data_image0
_chemical_formula_structural       FeS2FeS2FeSFeS3C3FeS2FeSFeCS2FeS2FeS2FeSFeS3CHFeCSCFeS2FeS2FeHFeS3FeHSH4CHC6H4C6H4C6H4C6H4C3SC2HCH2CPCHCSCHCHC6H4C4H3C6H4C3H2C2HCHCHCH2C4HCHCHCH4C2PC2HCHC2HCSC2HCH3CH2C2HC2H2CH3C6HCH4C2H4PHC2HC4HCH4CHC2HCHCHC2HC3H5CHC3H2SH3CHCH4CH3PC2HCH2CH2CH2C6PC18H20CHCHC5HC2H2C2H2C4PC4H2C2H3C10HSHC3H3CH7CHCHCHCH4C2H2CHCHC2HCHCH2CHC2HFeC3H2C5HCHFeCHC6H4CH4C5HCHC3PC18HCH17C6PC12SH3C2FeCH5CHCHC4HSC3H2C4HCH3CH5CPCH2SH2SC2HFeS2FeS2FeSFeS3CSH2CHSFeS2FeS2FeSFeS3HCSHC2FeS2FeS2FeHFeS3FeS2FeS2FeSFeS3CHFeHSHCSHSHFeS2CH2C7H4C6H4C3HC2H2C3H5CHC3H3C9H4CSC4FeHCH2C4H3C6SPH2C7H4C6H4C2HC3H5CHCH4C3HSHC6PC7H5CHCHC2H6CH3CHC2HC2H2C9H9C2H2CFeHC4SC3HC2HC4H3C6H3CHC2HPHC2H3C3H4C3HC3PH3C2HCH2PCHCH3FeHC2HC2HCHC6H2C3H2C2H2CH2CHCPC4HC5H3C5HCH2C3HCH4C2H5C2HC3HCHCHCH3C3H2CH4C3HSCH2CHCH2CFeCH3C2H4CHCHCHCH2C4HCH3CH2CH3C3H3C2H2CFeC5H3C4HCHC2H3C2HCHC7PCHC3HC2H3CH5C2H4CHC3HCH3C2H2CFeHCHCHC6PC2PH2C3H2C4H2C2HCHC4HSC6PC10H5CH2S2H2C2HPC10HC8H7CHCHC4PC2H2CH2FeHCHSCH3CFeS2H2CSCHSHCSFeSCFeCH2S2HC2HC2FeHFeSC2FeHSFeS2FeS2FeS2FeHFeS3HCHCFeS2FeS2FeSFeS3C6H5C2H5C6H2FeHC6H4C5H3C4HCHCHC2HPH2C6H5C3H3C8HCH2FeC4H2FeHC2H3CHCHCH5CHC4HFeCFeCHCHC2HCHC2PC7PC2H8C2H4C6PC2HCHC3HCHCHCHC2H8CH3C3HCH2C9H3CH4C5PC4SHC15H4CH12CHC2PCHCSCHC4HCSH4C2H2CHCH2C2FeHCHC2HC2HCHSC4HC4HCH6C2HC3HSH3C6H2CH2C2H3C2HCHCPFeHC2SHPHCH2C2HC4H4CHCH3SHCHCHC8PC8HC9H12C2H6CH3CS2CHCSHCHC3HC6SCHC4PC4SHC7H5CH6FeCSHCHC2HCH3C7HC4H2CHSC3H2C2H2C4H6C3H2C3H2CHC3HCH2CHCH3C2HC2H2CHCH2CH3C2HC3H3C3H4FeH2C4PHSCHCFeS2FeS2FeSFeS3FeS2FeS2FeS2FeS2FeS2FeHFeS3FeCS2CHFeS2HSHFeS3FeC7H5CPH2CHC4HCH4C7H4C6H4C6H4C3HC3HCHC2HC5H2C6H2CHC4H4C2H4C6H4CH5C2SHC2HC2HC3H2SC2H2C9PHCHC2H5C5HC2HC2HC3HSC2HCH2FeHCH2C2H2CH2C4H3CH2C3HCH5C2HC2SC6PC18H12C2H6C3HFeHFeC2H6SC7PC18H11CH8CHC4HC5HCHCHC2H5CH5CSH2CHCHC2HC4HCH4CH2CH2CHC2HCSCHCH2C2PCHCSCH6CHC2HC3HC5HC3H3CHC4HCFeC4H3CH5CH2CH3C2H4CHCHC2HCH2C4HC2H3PCH2C3H2CHPS2C2HCHCH4CHSC4H2PC3HC3HSC3H2CHCHCH2PC9PC4HCSH2CH8C3HC4HCH3CH2CP2C3SHC2H5C2HC2PHC2HCH2CHPH2C4HCFeC2H3C2H3C4SHCSHCH3C4HCHCHC3HCH2C2H3CFeCFeS2Fe2S3C4SHFeCSC2SHSHCH4CHC2HC3SHSFeS2FeS2FeSFeHS2FeS2FeS2FeSFeS3FeSCFeHSFe2S3FeS2FeS2Fe2S3C6H4C6H4C6H4C2H4SH4C3FeCH2CHC6HCHC6H4C5H3C4HC2H2C6H4SH5C7H4CHCH2C5H4C10H4C6H4C4H2FeC7PC9HC5H11SH5C4H3CH2C4HCHC3HCH2SC3HC2H6CFeH2CHC4PCH2CHCPC7FeSC2HCHCHCH6C5HC2HC2SHC5H3CH3CH2C2HCHCH6C3H3C3HC9HC4H2C2HC4H2CH2CHCH3C4H4CSC2HCPC8PC8HCH2C6H11C3H8C2H3CPHCSCH2C6SHC2H4CSCH3CH4C2PHC2HCHC2PH2C4HC3FeHFeHCHCH3C8PC8HC10H3CH8C2H5C6PC18H17CH2CHC6SH2C2H2C4H2C2H2PHC4HSH2CH3CH4C2SHSCHC2HCH2C3H2C2H3C2PHC4H2CHCHCHCH3C2HCHSH2C3H3C4HCHSCHC3HC3HCH3C3H3CHC5HSCH2C2H2C4H2C3H3C2HC3HSH3C4SHCHC3H2CSFeHSFeS2FeS2FeSFeS3FeS2FeS2FeSFeS3FeS2FeSHFeSFeS3FeS2FeS2C2SFeSFeHS2HC2HCSH2FeSHFeS2FeSFeS3CHC4HC5HC7H4C4PCH3C6H4C6H4C6H4C6H4C6H4C6H4C6H4C2HCH3CHC4H5CHC3H6C2HC2HC2HC6PC13H11CH8CFeCHCH2CHC2HCH3CH5C13HCHC2H4CFeH3C2HSCHCH2FeHSHC9HCH2SH4C2H7CH5CSCPHC2H3PC2PCH2CH3SC2H2C8HCHC2FeHC3H6C6PC18H16CH3CHC2H2CH3C7PC2H2C8H15C7HPC3PH3CH2C9HCHSCHC2H5CH3C3PC2HC3PH2C4HC4HCHCHCHCSC4HC3HSC2HC4H2C3HCH3SHCH2C2HPC10HC7HCH11C2H5C7SH4C3HC2HC2HC2H4SC3HC2HC2SH2CH2SCH2CH2C2H2C2H5C3HC3H2CHC2H2C7PC9H2C9H8CHC3H2SFeC2HC5HCSFeH2C2H2C3HC3H4C2HCHSCH2CHPC2HFeH2CH2C2FeSC2H4CH3CH2C2HC2HCH3C5HCH2CH2SH4C4SCHCH2C4FeS2FeS2FeSFeS3FeS2FeS2FeSFeSFeS3HSHFeS2FeSCFeSFeS3FeS2FeS2FeSFeS3HC2HC2HFeS2H2FeSHCH2CH2C2HC4H2C2HC2H3C6H4C6H5CHC8H4C3HC7H4C6H4C6H4CH4CHC2H2C3HCHC3SHC4HC2H3C3HC5HCHC7HCH2CHC2SC3H2C6PCHFeHCH2C11H5C2H2CH4CH4CHCHC2H2CH2C2HC2HC2HC2HC2H2CHC2SH3CH2C2HCH2CHC2H4C3HC6PCHSHSH2C2HC8H5C3H4CH6CHCH3CH6CH2C2HC2HSHCHCH2C2H3C3H2C3HCH2C4H2CHCPC8HC2H5CPC2HC4H2C3H2CH2C2H3CH4C2H5C5H4PC2HC2H3CH2C8PHC7HC3HC3H3CH5CH2C2H2CH2CH2CHC2PC14HPC2H10SC3HC3HC4HSHC2SCH2C2HCHCHCH3C2PH2CPHC8H2C2H3CH9C2FeH2C5H3CHC2HCHC8H2CHC4FeC2PCH2C2HC2HC2HPCFeS2FeSHFeSFeS4FeS2FeS2FeSFeS3CFeSCHC2HFeSH2SCFeSHFeS2FeSFeS3C6H3C7HCH2C3HC2H3C6H4CH2CHCH2C6H4C6H4C2HC6H6C4HSHPFeHCH2CHC6PC18H16CH3CHCHC3PC3HC2HCH3CH2CHCHCSC5HC3HCSC2H2C5HC2H3SC3HC3SHCH2SHC2SH2CHC3SHSHC2H2C3HCSCHC2H3CHCSC3H2CPH4C2HSH2CHCHCHCH2C2HC4HCH2C2FeCHC5HC4SHC2H4CH2CHCHC2HC2H2C11H9CHCH5C2HCPHC2HC2P2HC3PCHC3HC2H2CHC2H2C3H3CPCHCFeHC4H4CHFeHCPC3H2C3SC2HC6PC4HC12H5CPCH7PH4CH2C5HC2HC7H5CHCSCH3C2H4C4HPC11HCH3C2HCH2C2H5C11PCHCH7C2H2SC2H3C2HC2HC2H5CHC2H2CHC4HC2H4CHC6PC6H4C4H2CHC9SC2HC2H2SH2CHCHCH3C2H2CH5C2HC2H3CHCHC4H3CHFeCHFeHCH3C6HC3HCHS2C2HC5HCH2C4HPH2C2FeHCFeCHCHC2FeHSFeS2FeCFeHS2H2C2HCHC3H4CH2SCSCH2FeCSH4CHFeS2FeSCFeSFeS3FeS2FeSCFeSFeS3FeS2FeS2FeSHS2FeS2FeSFeSFeS4HC4H2C7H4C6H5C6H4C8H3PC5H4SC6H4C10H2C6H4C4HC2H2C4H3C2SH3CHC3HCHCHCHC6H6C2HFeC2H2C2HCHC5H3C7HC2H2CH2SCH2CH3CHC5SH2CHSCHC2H2CFeHCHC3HCH3CHSH3C6HCFeCH2CHCPHC6H2CHCH2C2H4C2H2CH2CHC3PC14H11C2H2C3H3C2HC7H2CH4CH3C2HC4SPC12H10PC9HCH2CH4CHC6PC3HC14H20CHCHSH3CSHC3H3CHCHC3HC3HC2H2CH2C2HC4H5C3H2C6HFeHC2H2CHCH4C2H2C2H2FeCHCSC2H2PSCH2SH3FeHCH3CHCHC2SC6PC15H2C3H10CH3CH3C3H5SC2HSC3HC4HCHCHCH7CHCH2C2FeH2SPH3C2H2C5SC3HC2H3C2HC2H2CPCPC2HC2HC2SFeSFeSFeC2FeS2FeSHCS2FeS2FeS2FeSFeS5C3HCPCH4CHCH2CSHSHCSHC2HC2H2FeCSH2C6FeS2FeS2FeSHSC2HC2HC3HCH2CHC4HSHCHCH2SH2C2FeHC7H4C6H4C6H7CHCSC6H5C2H2C3H2CH2C6H4C3FeCH4C3HC2HC2HC2H6CHPCH3C4HCHC3FeC4H2SC2HCHC5HCHCH5CSC2HCH2FeC3HC3H2FeHCHC6H4CH6C5H3CHCHPC2HCSCFeSCH4CH3C4H2CH2SCH3CHCHC4HC2HC3PC2HCSCHCHCH2CSCH4C6PC18HCH19CHC4HPC4HCHC5H2CH3CH4CH11C8PC18H16PH2CHC4HPC5HC13H16SHCH2C3PC11HFeCHCHC6FeCH3FeHC4H2CH2CHCH2CHCH2C3SHCHC2HC5H3C3HCSFeS2FeS2FeSFeS3FeS2FeS2FeSFeS3FeSFeSH2SFeS2FeS2FeSFeS3FeCFeSH2FeS2C2H2FeS2FeS2FeSFeCHS2FeS2FeS2FeSFeS2CHFeC2HS2H4C7H4C2SC2HC6H2CHC6H4C6H4C6H4C6H3C5HC8H4C6H4C6H2C6H4C3HPCHC2HC2FeCH2C2HC3FeHCHSH4CH7C3HSHCPH6C2H3C7HC3H2C3HC2HC2H5CH2CFeSHC4HSCHCHCH4CHC3HSH5C3H2C2SCHC3PC5H2C11HC2H4C3H5CH4C6PC4H2C12H6FeH6CH6PHC8PC9H12CHC4PC4HC15H4CHCH12C5HCH2C3H2CH3FeC5PC19H19CH2C6PC18H17CH3C4H2C2HCH3C2SC3H2C6H2CSH2C9SH3SPC4HCHC2HCHSHC2HCHC5HC4HC2H2CH2C4H2C2PCH5CSHCFeSPHCH2C7HCHC3H2CHC3SHCHCFeCH4SCHCSCHCH3CHCH2CH2C2H2C2H3C3HCHC3HCH3C9HCH3CHCHC4H2CH2CPCHCH2CHC5H2C2H2CHCSHCHCHCH3CPH2C4H3C2HSFeHSHFeSCHCFeSFeSFeSHFeS2FeSFeS3FeS2FeS2FeSFeS3CH2S2FeCHS2FeS2FeS2FeSFeS2C2H4SH3CHCHCHSC4HC5H2C7H3C2SC3H4C2H3C6H3C6H2CHC6H4C6H4CHCHCH6C6H4C4HCH2CFeCH2C8H3CSCHCSC6PC10H9C2H2CPH3CHC7PC18H18CH2C2SC2HC2HC2SC2H5C2HCHC4PC18HC2H5FeH11CSH3CPC4H3C11H2CH3CHCH3C2H7C2H2C2H2C3H2PCH2CHCHCHC10H3CHC3HCH2C2PC18H8CH4C4H2C2HC3HC9HC2HSCH3SCH4CFeCH2C5PC10H12CHCHC3H2C2H2CHC7H3C2HCH3CHSFeCH4C2PC2H2CHC3PC8HC9H4CH8C2H5CH2SH2C2H5C3HPC3HSCHC4HCH2CHCH4CHCHCH2CH3SHCHSCH2CHCFeHCH2C3H2FePH4CHFeS2HCFeSH3C2H3C2H2FeS2FeS2FeSFeS3HSHS2FeSCH3FeS2CHCFeSFeS3FeS2FeS2FeSFeS5FeSCHC2HCHC6H4C5HC7H4C6H4CSC2H2C4H2C6H4C4HCHC8H4C3HCHCHCSHC3HC7H4CHFeC3HC2HC2H2C6PC15HCH14C2HFeHCHC6PC18H21C5HC6PC9HC8H13CH3SH2C4HC2H2CSCH2C2HC2HC2H2C2H3CPHC10HC3H2C5H3CFeH4C2HCH4C2H2C3HCH2CH2C2SC3H2C2HCH2C6PC17H18C6PHC6H2C2H3CHCH12C4HC2H2CSCH2C3H4CHCHC2HC6PC11H7CH3PH6C2HCHCH8CSCHPC8H2SC7HCHCSH8C2H3C4HCHFeHC3PCFeHCHCSH2CHC2SHSH4CHCSHCHC2HCHC3HC9H3C3HCHCHCFeCH2C2SHCFeH3C6HCSC2H2CHC2H4SCHC2HCH2CPCH3C3H2C3HC5H3CH2C4S3FeSFeSFeS2FeS2FeSFeS3FeS2FeSFeSFeS3CHFeHSFeS2C3HSCSCHSFeS2FeSFeSFeS3HCHPCHC2HC4H3CHC4HFeC3HCHCHCH3CFeC7H2CHCH2C2HCHC6H4C6H5CH2C6H4C4HCH2SC7H4CSHCHC3HSHC2H3FeC2HCH2C13HC2H9C3HC9PC18H19C2H4CH4CH2C2HCH2CHCHC4FeHCH2CH5CHC3HCHCH2CHCHCH2CHPH2CH2C6H3C2HCHCHC2HCHCH3CH2CHC3H3C2HC5HCHCHC2H2CH2CHCHS2CHC2H2CHFeHCHCH2C3H2SCH4CH4C2HCH4CHC6PC18H9FeH5CHC7PC18H7CH12C2HCH2C6H7CHCPC2HC2HC2HC3HC2PC2FeC2FeH2C4H4C2HC2PC2H5CHCHCHC2SCHCHCHCHC2HPCSH3C2HCHCHC5HC4HCH3CH2CFeC7H5C3HC5H4C2HC2HCH3PC2HC2HSC3HFeC4HC2HSHCFeSFeS4H4FeS2FeSCSFeS2C3FeS2FeCSFeS2FeC3S2HCFeSHCSFeSHCFeS2FeSC2FeS2C2H3CH4CHC7H4CFeCHC2HC3H3C6H4C6H4C8HCH2C3HSC6H4C2H2C3SC2H2C6HCH2C4H4SC2H2CHC7HCH2CHCHPC8H2C2HC2HCHCH3C2H5C7H2C7PC18HCH18C2HCHC3HC2HC2HC14HC3HC2HCH6C3H6CH5C3HC6PC7H2C9H8CHCH8CPC2H2FeSCSH2CH3C2SCHPC2H2SCHC2HC4HCH2CH2CH3C3H5CPC2HCPHCH5C2H2CHSHC2HSCH3SH2CHC2HCHPCHC2SC2HCH2CHCH2CHPH2CHCH4C2H3PH2CFeCSCH2CPC2HC3HC3HFeHC2H3CH2C3SHCH2CH2CPH2CHCH2C6HC3H3CH3C8H2CHC2HCH3CH2C3HCH2CHCSCH4CH2C2HC3HC2H10C4H2CPHFeSCFeSCFeSFeS3FeS2FeS2FeSFeS2FeS2FeS2FeSFeS3HFeS2FeS2FeHFeS4FeS2FeCFeSPSCHC2HC3HC6H4C6H2CHC6H5C6H4CHC3H2C4H3C6H4CHCH3C2H3C6H5C2HC2H2CSHCHC4H2CH2SH2C3HC2H3CHCHC9H2C3H2CH4C4HC2PC2PC8HCHC8HCH8C2H10C2H4C10PC3HSC4HC4H3CH5C3H5C5H2C2H3CPC2H2C4HC3HC7HC2HPH2CHSC2HPCHCH2CH3C2PC2SCH2CHC2H3CHCSH2C5SHCHC6H4CH2CH2CHCHC3H2CH4CH2CHCHCHC2SCH3FeCH2CHC3SCHCSHCHC3HC2H3C3HC2HFeC2HC3H2C6PC18HCH14CFeHCH9C6HCPC8HC2HSC2HCHC2H2CHFeHCHCH2SCHCHCH2SHCSC2HC2H2CH3FeH2C4H3C4PHC2H2CH2CHSH4CHC2H2C2HCH2CH4CH2CH2C3H2C2H4CSFeS2FeSFeS2CHC2SFeS2FeS2FeSFeS3H2SCSHFeSFeCHSH3SCFeS2FeS2FeSFeS3H2SFeS2FeS2FeSFeCS2CSFeSHFeSFeS3CHC2HCH2C10H4C6H4C4H2C8HPC2PCH3C3H2CH2CHC6H4C6H4FeC2H2C3HC5H4C6H4C6H4C6H2C6HCHC3H3C8HCHCH3C7PC9HC8H11C3H2CH3CHC7FeHC2H8CSHPC7PC19H11CH11CHCPH7C2H2C2HC2PHCFeHCHC3H2C2H2CH2CH2C2HC2HCHCHCHC2HCHC2HC4H2CH2CHC2HSFeCH3C4HCHC2H2C6HC2H4CHFeC3H6C3HCH4CHCSC4H2C2H3C2H3CH2CHCSC2H2C2H2CHSCHC3HC5H3C2H4FeHSHC6PC15HC2HCH4CH9CH3C6PC18H11CH8SC2HC5H3C3HCH5CHC5H2C3H3C2HCH3C6PSCHC2H2CH2SHC4H7SHCHCH2CHFeSH2C3HCPHPC3HCHC2FeCHCPC2H3C2H2CHCH2C3H2C2HCH3CH2CHSC5HC4H4SHSHC3H3CHC2PHSHSC2SH5CFeSH3FeS2FeS2FeSFeS3FeS2FeS2CS2HSH2FeS3CHSFeCS2FeHS2HSCHSC2SFeSC2FeSCFeS2FeSFeS3CH2C2HCHC8H3C6H5SH2C6H4C4H3PHC3H3CHSC2HC3H2C4FeC2H3C6H5C6H6SC2SC2H4PC4H2C2H3CH6C3HCH2CH2CH2C2H4C2HCHCHC2HCHC7HCHSH2C6H7CH3C4PCH2CH2CH2C5FeHCFeHCHCHC5HCH5C11HC2H2C2H2C3HCHSH3C2HC3HC2PC2HC3HC2FeCHCHC5HCHCH2C2HCHC2HC6HFeC2H2CH2FeHCH2CH2CH2CHC7HCH2C4HCH2CH3C2H2PC8HPC2HCHSC6H2CHCH6CHCHCH6FeHCSC6PC18H17CH3PHCH2CH2C4HC7HC2H2CH4CHC6PC4H2C12H6C3H11C2HC3HC2FeCH3C3HC6H2CHC2H2C3H2CHCHSH2C5SH4SCHC3FeCH2C2HFeHFeHC2HC3H4CHFeC3HSHCSC2HCHCFeSCFeS2FeSFeS3CSCFeHSCS2CHPHCSHCFeS2FeS2FeSFeHS2HFeSHSFeSFeSC3HC4HCH2CHCH2SHPH2C2HC7H5CH3C6SHC6H4C6H2CHC6H4C2HC2HC2HCHC3HCHCH2C2H3C5HCH2C2HCH3CHCH3C4PC3HC10H2C2HCH5CH7C2H4CH2C6HC2HCHPC7PC7SCPC5HC2H6PH5CH2C2H3C3HC2HCH4CSCSCHCHCH2C4HCH2C7H2CH3CHCH2C3H2CHCH2CH3CH2SCH2CH2C2HC2H2CH5C2HCHC5H3C2HSHSHCHC2H3C2SH2C6PC3HCHC7H2CHCH2C2H2C2HCH8CH2C4H2C4HC2HC2HC2HC2HCHC2HC4HCHCH3SCHC4PFeC2HC6HCHCPC2HC4HCPH2CHCH2CHCHCH3C2PC2HCFeHC2H2C9FeC3H3CSHSH6C6PC18H16CH5C2HC2H2CH5CH2C3HC2H2CH2C3SC3H2C3H2CHCHSHCH2CHC3S2FeS2FeS2FeSFeS3FeSFeS2FeHFeS3HCS2FeSFeSFe2S2FeSHFeSFeS3H2C2H2FeS2FeS2CFeSHSHPCHCH3CSCSHFeSHSCHC2PC5H2C6H4C3H3C2HC6H2FeHCHC6H5C2FeHC3HSC5H2C6H4C6H4C5H3C7H4C5HC12H8PC3H2C2PCH3CHCH4C7H2CH2CH2C2HCHCH6C2HC4PC3H2C11HCHC2H3CHCH8CH2C3H2FeCFeCFeHCHC6HC2H2CHCHC5HC2HC2HCH2CHC4SHC3HC4HC2H8C6PC8HPC8H5C2H3C3H8CHCHCFeCHCH3C2HC7HCPHCH3CH3CHCHCHCH2CH2CSC3HCHCHCH4C2HCSPC2H3CHC4H4C2HCHC3HC2HC3HC2H2CHCH3FeH2C2SHC2H5CH5C2HSC2H2C2H5C2H2CH2C3HSHC2SH2CHCH2CHC6PC15SC2H7CH9SH2CH2C2PC4S2C3HC7H2CH2CH6CHCH2C8HC3H2C3H2CH3C2HC5HCH3SCH2CH2C2H3CH2
_chemical_formula_sum              "Fe480 S960 C7200 H5760 P240"
_cell_length_a       79.2712
_cell_length_b       79.5224
_cell_length_c       79.3867
_cell_angle_alpha    75.0441
_cell_angle_beta     74.9918
_cell_angle_gamma    74.9566

_space_group_name_H-M_alt    "P 1"
_space_group_IT_number       1

loop_
  _space_group_symop_operation_xyz
  'x, y, z'

loop_
  _atom_site_type_symbol
  _atom_site_label
  _atom_site_symmetry_multiplicity
  _atom_site_fract_x
  _atom_site_fract_y
  _atom_site_fract_z
  _atom_site_occupancy
  Fe  Fe1       1.0  0.43544  0.14029  0.11049  1.0000
  S   S1        1.0  0.44494  0.14283  0.08106  1.0000
  S   S2        1.0  0.44906  0.14364  0.13060  1.0000
  Fe  Fe2       1.0  0.40026  0.13166  0.11046  1.0000
  S   S3        1.0  0.40664  0.13349  0.08083  1.0000
  S   S4        1.0  0.37395  0.12654  0.12783  1.0000
  Fe  Fe3       1.0  0.43400  0.11835  0.08484  1.0000
  S   S5        1.0  0.45163  0.09406  0.07514  1.0000
  Fe  Fe4       1.0  0.41684  0.15782  0.07962  1.0000
  S   S6        1.0  0.41151  0.18311  0.05895  1.0000
  S   S7        1.0  0.42674  0.11462  0.11458  1.0000
  S   S8        1.0  0.40824  0.15707  0.10890  1.0000
  C   C1        1.0  0.28213  0.34984  0.99176  1.0000
  C   C2        1.0  0.09197  0.46505  0.13234  1.0000
  C   C3        1.0  0.23532  0.29489  0.98779  1.0000
  Fe  Fe5       1.0  0.44285  0.02318  0.03205  1.0000
  S   S9        1.0  0.45310  0.01154  0.05721  1.0000
  S   S10       1.0  0.43260  0.05301  0.02595  1.0000
  Fe  Fe6       1.0  0.47442  0.99400  0.04093  1.0000
  S   S11       1.0  0.48313  0.32918  0.99943  1.0000
  Fe  Fe7       1.0  0.43654  0.99148  0.06112  1.0000
  C   C4        1.0  0.26380  0.33758  0.01939  1.0000
  S   S12       1.0  0.46526  0.00702  0.01532  1.0000
  S   S13       1.0  0.42490  0.00389  0.03680  1.0000
  Fe  Fe8       1.0  0.32979  0.30748  0.04889  1.0000
  S   S14       1.0  0.33734  0.27809  0.04929  1.0000
  S   S15       1.0  0.30246  0.32578  0.05200  1.0000
  Fe  Fe9       1.0  0.36822  0.31263  0.03445  1.0000
  S   S16       1.0  0.37914  0.28394  0.03314  1.0000
  S   S17       1.0  0.38369  0.33454  0.02270  1.0000
  Fe  Fe10      1.0  0.35498  0.28543  0.02266  1.0000
  S   S18       1.0  0.35815  0.27323  0.99910  1.0000
  Fe  Fe11      1.0  0.36097  0.27849  0.05988  1.0000
  S   S19       1.0  0.37056  0.25634  0.08180  1.0000
  S   S20       1.0  0.34577  0.31466  0.02125  1.0000
  S   S21       1.0  0.35175  0.30738  0.06213  1.0000
  C   C5        1.0  0.09271  0.43877  0.99930  1.0000
  H   H1        1.0  0.47970  0.25283  0.00584  1.0000
  Fe  Fe12      1.0  0.48773  0.35580  0.98354  1.0000
  C   C6        1.0  0.48664  0.19490  0.04844  1.0000
  S   S22       1.0  0.45454  0.33344  0.04634  1.0000
  C   C7        1.0  0.30553  0.27906  0.98305  1.0000
  Fe  Fe13      1.0  0.20823  0.32789  0.11161  1.0000
  S   S23       1.0  0.18290  0.31912  0.11332  1.0000
  S   S24       1.0  0.23485  0.30826  0.11160  1.0000
  Fe  Fe14      1.0  0.18955  0.36671  0.10963  1.0000
  S   S25       1.0  0.16281  0.36148  0.11042  1.0000
  S   S26       1.0  0.19370  0.39476  0.10486  1.0000
  Fe  Fe15      1.0  0.16999  0.33786  0.13203  1.0000
  H   H2        1.0  0.46817  0.25096  0.07357  1.0000
  Fe  Fe16      1.0  0.17750  0.34322  0.09172  1.0000
  S   S27       1.0  0.17101  0.33965  0.06690  1.0000
  S   S28       1.0  0.19574  0.34451  0.13256  1.0000
  S   S29       1.0  0.20367  0.35063  0.08879  1.0000
  Fe  Fe17      1.0  0.13020  0.39365  0.99087  1.0000
  H   H3        1.0  0.43090  0.99775  0.13393  1.0000
  S   S30       1.0  0.11713  0.39211  0.01997  1.0000
  H   H4        1.0  0.31310  0.35961  0.02546  1.0000
  H   H5        1.0  0.18695  0.37783  0.00022  1.0000
  H   H6        1.0  0.42111  0.22876  0.98727  1.0000
  H   H7        1.0  0.30958  0.14997  0.01374  1.0000
  C   C8        1.0  0.09998  0.44136  0.01245  1.0000
  H   H8        1.0  0.17340  0.30073  0.15983  1.0000
  C   C9        1.0  0.15565  0.35458  0.05451  1.0000
  C   C10       1.0  0.15778  0.35373  0.03665  1.0000
  C   C11       1.0  0.14613  0.36533  0.02609  1.0000
  C   C12       1.0  0.13184  0.37763  0.03340  1.0000
  C   C13       1.0  0.12942  0.37834  0.05140  1.0000
  C   C14       1.0  0.14135  0.36686  0.06194  1.0000
  H   H9        1.0  0.16870  0.34419  0.03083  1.0000
  H   H10       1.0  0.14811  0.36451  0.01231  1.0000
  H   H11       1.0  0.11832  0.38773  0.05718  1.0000
  H   H12       1.0  0.13933  0.36724  0.07585  1.0000
  C   C15       1.0  0.19452  0.40265  0.12332  1.0000
  C   C16       1.0  0.20107  0.39111  0.13781  1.0000
  C   C17       1.0  0.20319  0.39793  0.15162  1.0000
  C   C18       1.0  0.19832  0.41625  0.15123  1.0000
  C   C19       1.0  0.19118  0.42776  0.13703  1.0000
  C   C20       1.0  0.18952  0.42098  0.12298  1.0000
  H   H13       1.0  0.20499  0.37698  0.13812  1.0000
  H   H14       1.0  0.35987  0.38056  0.01804  1.0000
  H   H15       1.0  0.18731  0.44191  0.13667  1.0000
  H   H16       1.0  0.18438  0.42996  0.11182  1.0000
  C   C21       1.0  0.28391  0.31995  0.06831  1.0000
  C   C22       1.0  0.28543  0.30465  0.08177  1.0000
  C   C23       1.0  0.27029  0.30106  0.09494  1.0000
  C   C24       1.0  0.25356  0.31263  0.09456  1.0000
  C   C25       1.0  0.25209  0.32758  0.08075  1.0000
  C   C26       1.0  0.26722  0.33139  0.06792  1.0000
  H   H17       1.0  0.29831  0.29585  0.08220  1.0000
  H   H18       1.0  0.27154  0.28941  0.10554  1.0000
  H   H19       1.0  0.23940  0.33649  0.08014  1.0000
  H   H20       1.0  0.26599  0.34334  0.05772  1.0000
  C   C27       1.0  0.40340  0.33373  0.02949  1.0000
  C   C28       1.0  0.40728  0.32301  0.04558  1.0000
  C   C29       1.0  0.42285  0.32323  0.05086  1.0000
  C   C30       1.0  0.43477  0.33383  0.03989  1.0000
  C   C31       1.0  0.43092  0.34445  0.02377  1.0000
  C   C32       1.0  0.41521  0.34449  0.01866  1.0000
  H   H21       1.0  0.39817  0.31476  0.05405  1.0000
  H   H22       1.0  0.42577  0.31500  0.06335  1.0000
  H   H23       1.0  0.44004  0.35265  0.01522  1.0000
  H   H24       1.0  0.41227  0.35282  0.00622  1.0000
  C   C33       1.0  0.33792  0.27413  0.99356  1.0000
  C   C34       1.0  0.14750  0.44540  0.04249  1.0000
  C   C35       1.0  0.20866  0.43480  0.02139  1.0000
  S   S31       1.0  0.41626  0.98509  0.08598  1.0000
  C   C36       1.0  0.30562  0.27900  0.00068  1.0000
  C   C37       1.0  0.32180  0.27671  0.00591  1.0000
  H   H25       1.0  0.41595  0.26854  0.00086  1.0000
  C   C38       1.0  0.21764  0.40618  0.99710  1.0000
  H   H26       1.0  0.29313  0.28126  0.01018  1.0000
  H   H27       1.0  0.32177  0.27729  0.01936  1.0000
  C   C39       1.0  0.35085  0.37639  0.01250  1.0000
  P   P1        1.0  0.45386  0.26536  0.98270  1.0000
  C   C40       1.0  0.44513  0.24085  0.07383  1.0000
  H   H28       1.0  0.21074  0.35147  0.99723  1.0000
  C   C41       1.0  0.08903  0.45276  0.98501  1.0000
  S   S32       1.0  0.15801  0.39788  0.98544  1.0000
  C   C42       1.0  0.47770  0.23265  0.11879  1.0000
  H   H29       1.0  0.43854  0.19349  0.07575  1.0000
  C   C43       1.0  0.25511  0.34123  0.99135  1.0000
  H   H30       1.0  0.24398  0.44900  0.02599  1.0000
  C   C44       1.0  0.40014  0.20322  0.06585  1.0000
  C   C45       1.0  0.39269  0.20394  0.08373  1.0000
  C   C46       1.0  0.38361  0.22028  0.08852  1.0000
  C   C47       1.0  0.38184  0.23597  0.07548  1.0000
  C   C48       1.0  0.38917  0.23519  0.05763  1.0000
  C   C49       1.0  0.39841  0.21892  0.05289  1.0000
  H   H31       1.0  0.39384  0.19199  0.09389  1.0000
  H   H32       1.0  0.37779  0.22075  0.10234  1.0000
  H   H33       1.0  0.38792  0.24712  0.04745  1.0000
  H   H34       1.0  0.40423  0.21846  0.03909  1.0000
  C   C50       1.0  0.21741  0.29506  0.98881  1.0000
  C   C51       1.0  0.37533  0.11870  0.15040  1.0000
  C   C52       1.0  0.39134  0.11668  0.15576  1.0000
  C   C53       1.0  0.25625  0.40863  0.08722  1.0000
  H   H35       1.0  0.21871  0.43845  0.10086  1.0000
  H   H36       1.0  0.40280  0.12050  0.14621  1.0000
  H   H37       1.0  0.21126  0.47736  0.11231  1.0000
  C   C54       1.0  0.44548  0.08277  0.06197  1.0000
  C   C55       1.0  0.42975  0.08915  0.05535  1.0000
  C   C56       1.0  0.42580  0.07996  0.04431  1.0000
  C   C57       1.0  0.43739  0.06427  0.04011  1.0000
  C   C58       1.0  0.45295  0.05787  0.04694  1.0000
  C   C59       1.0  0.45700  0.06711  0.05775  1.0000
  H   H38       1.0  0.42082  0.10125  0.05848  1.0000
  H   H39       1.0  0.41376  0.08501  0.03902  1.0000
  H   H40       1.0  0.46218  0.04609  0.04344  1.0000
  H   H41       1.0  0.46921  0.06216  0.06274  1.0000
  C   C60       1.0  0.47065  0.14817  0.12488  1.0000
  C   C61       1.0  0.14449  0.47373  0.98729  1.0000
  C   C62       1.0  0.46480  0.04978  0.14040  1.0000
  H   H42       1.0  0.06980  0.37522  0.98907  1.0000
  H   H43       1.0  0.20638  0.31821  0.05482  1.0000
  C   C63       1.0  0.35876  0.19117  0.13103  1.0000
  C   C64       1.0  0.29806  0.38523  0.09137  1.0000
  H   H44       1.0  0.10924  0.45999  0.02153  1.0000
  C   C65       1.0  0.44046  0.22468  0.02382  1.0000
  H   H45       1.0  0.19009  0.30491  0.00087  1.0000
  C   C66       1.0  0.41788  0.22444  0.10899  1.0000
  H   H46       1.0  0.43741  0.25289  0.01994  1.0000
  C   C67       1.0  0.39498  0.06572  0.15477  1.0000
  H   H47       1.0  0.34983  0.07975  0.16240  1.0000
  H   H48       1.0  0.07275  0.46364  0.04527  1.0000
  C   C68       1.0  0.34410  0.36907  0.98738  1.0000
  C   C69       1.0  0.25419  0.37283  0.10921  1.0000
  C   C70       1.0  0.12702  0.21195  0.17314  1.0000
  C   C71       1.0  0.10890  0.37805  0.13110  1.0000
  H   H49       1.0  0.27853  0.19456  0.98390  1.0000
  C   C72       1.0  0.29147  0.18722  0.98650  1.0000
  H   H50       1.0  0.23728  0.47222  0.16437  1.0000
  C   C73       1.0  0.15045  0.31640  0.17411  1.0000
  H   H51       1.0  0.26137  0.33378  0.03375  1.0000
  C   C74       1.0  0.22936  0.45823  0.14876  1.0000
  H   H52       1.0  0.22388  0.40551  0.00791  1.0000
  H   H53       1.0  0.47233  0.07501  0.12846  1.0000
  H   H54       1.0  0.11827  0.36645  0.13633  1.0000
  H   H55       1.0  0.39997  0.16972  0.16440  1.0000
  C   C75       1.0  0.32453  0.36454  0.01667  1.0000
  C   C76       1.0  0.32865  0.36377  0.99861  1.0000
  P   P2        1.0  0.26385  0.38505  0.08792  1.0000
  C   C77       1.0  0.19536  0.42022  0.97911  1.0000
  C   C78       1.0  0.24356  0.37799  0.04123  1.0000
  H   H56       1.0  0.23783  0.42930  0.05577  1.0000
  C   C79       1.0  0.48397  0.35777  0.09363  1.0000
  H   H57       1.0  0.24167  0.33312  0.12814  1.0000
  C   C80       1.0  0.47718  0.18341  0.04606  1.0000
  C   C81       1.0  0.19478  0.45916  0.99108  1.0000
  H   H58       1.0  0.42938  0.28761  0.04571  1.0000
  C   C82       1.0  0.17219  0.43659  0.01872  1.0000
  S   S33       1.0  0.20225  0.42465  0.16797  1.0000
  C   C83       1.0  0.47759  0.27418  0.01860  1.0000
  C   C84       1.0  0.29236  0.17184  0.99992  1.0000
  H   H59       1.0  0.45731  0.28092  0.05704  1.0000
  C   C85       1.0  0.47409  0.36403  0.06087  1.0000
  H   H60       1.0  0.38838  0.28748  0.99229  1.0000
  H   H61       1.0  0.47606  0.24362  0.12519  1.0000
  H   H62       1.0  0.06462  0.39246  0.13088  1.0000
  C   C86       1.0  0.26503  0.24895  0.98121  1.0000
  H   H63       1.0  0.33741  0.15967  0.99608  1.0000
  H   H64       1.0  0.28799  0.35449  0.07457  1.0000
  C   C87       1.0  0.22424  0.39292  0.98698  1.0000
  C   C88       1.0  0.44231  0.24152  0.01358  1.0000
  H   H65       1.0  0.15826  0.41749  0.15435  1.0000
  C   C89       1.0  0.37710  0.01649  0.16013  1.0000
  C   C90       1.0  0.22267  0.44393  0.01702  1.0000
  H   H66       1.0  0.28059  0.41591  0.07039  1.0000
  H   H67       1.0  0.36724  0.37936  0.98622  1.0000
  C   C91       1.0  0.47891  0.20576  0.06093  1.0000
  H   H68       1.0  0.40661  0.06833  0.14466  1.0000
  H   H69       1.0  0.16288  0.46060  0.10409  1.0000
  H   H70       1.0  0.14817  0.19253  0.16147  1.0000
  C   C92       1.0  0.35352  0.20201  0.14360  1.0000
  C   C93       1.0  0.13763  0.43490  0.03909  1.0000
  C   C94       1.0  0.46904  0.29152  0.02045  1.0000
  C   C95       1.0  0.40371  0.21883  0.12206  1.0000
  C   C96       1.0  0.47937  0.15361  0.10722  1.0000
  C   C97       1.0  0.16475  0.44611  0.03252  1.0000
  H   H71       1.0  0.25380  0.30403  0.99706  1.0000
  C   C98       1.0  0.10343  0.45797  0.01145  1.0000
  H   H72       1.0  0.13740  0.41687  0.02307  1.0000
  H   H73       1.0  0.99365  0.04102  0.13803  1.0000
  H   H74       1.0  0.23530  0.34540  0.15533  1.0000
  H   H75       1.0  0.47563  0.31278  0.08067  1.0000
  C   C99       1.0  0.25124  0.37942  0.12476  1.0000
  C   C100      1.0  0.14498  0.42515  0.02566  1.0000
  H   H76       1.0  0.19518  0.41590  0.04132  1.0000
  H   H77       1.0  0.48642  0.21465  0.06260  1.0000
  H   H78       1.0  0.36994  0.16462  0.12642  1.0000
  H   H79       1.0  0.25409  0.35024  0.09897  1.0000
  P   P3        1.0  0.45194  0.21922  0.08721  1.0000
  H   H80       1.0  0.46108  0.19985  0.99242  1.0000
  C   C101      1.0  0.10458  0.46062  0.14307  1.0000
  C   C102      1.0  0.43329  0.21201  0.10356  1.0000
  H   H81       1.0  0.32190  0.21818  0.98639  1.0000
  C   C103      1.0  0.42946  0.24464  0.06721  1.0000
  C   C104      1.0  0.42375  0.26148  0.05718  1.0000
  C   C105      1.0  0.20310  0.41997  0.99323  1.0000
  C   C106      1.0  0.43461  0.19402  0.11199  1.0000
  H   H82       1.0  0.42147  0.17456  0.13146  1.0000
  C   C107      1.0  0.42042  0.18848  0.12510  1.0000
  H   H83       1.0  0.37714  0.08560  0.13995  1.0000
  H   H84       1.0  0.42151  0.23464  0.07003  1.0000
  H   H85       1.0  0.41139  0.26446  0.05252  1.0000
  H   H86       1.0  0.44660  0.18425  0.10849  1.0000
  C   C108      1.0  0.23201  0.47336  0.15273  1.0000
  H   H87       1.0  0.48359  0.19297  0.09642  1.0000
  C   C109      1.0  0.40105  0.28812  0.98314  1.0000
  C   C110      1.0  0.32458  0.36365  0.08206  1.0000
  H   H88       1.0  0.21977  0.44804  0.13126  1.0000
  C   C111      1.0  0.15150  0.47059  0.10838  1.0000
  H   H89       1.0  0.18111  0.47419  0.01173  1.0000
  C   C112      1.0  0.28768  0.37703  0.08538  1.0000
  H   H90       1.0  0.05504  0.47693  0.98479  1.0000
  C   C113      1.0  0.32457  0.16743  0.99346  1.0000
  C   C114      1.0  0.09252  0.46952  0.98384  1.0000
  H   H91       1.0  0.33289  0.37065  0.03776  1.0000
  C   C115      1.0  0.14673  0.37902  0.15520  1.0000
  C   C116      1.0  0.22215  0.45979  0.13401  1.0000
  C   C117      1.0  0.45975  0.27579  0.99734  1.0000
  H   H92       1.0  0.32036  0.34321  0.07117  1.0000
  H   H93       1.0  0.20982  0.29851  0.08380  1.0000
  H   H94       1.0  0.22960  0.40630  0.10228  1.0000
  H   H95       1.0  0.45450  0.24424  0.10734  1.0000
  H   H96       1.0  0.14413  0.44665  0.98679  1.0000
  C   C118      1.0  0.31649  0.37865  0.08954  1.0000
  H   H97       1.0  0.10335  0.46836  0.15291  1.0000
  C   C119      1.0  0.43379  0.27456  0.05349  1.0000
  C   C120      1.0  0.24426  0.34610  0.12720  1.0000
  C   C121      1.0  0.45985  0.18304  0.05592  1.0000
  H   H98       1.0  0.44926  0.31437  0.01227  1.0000
  H   H99       1.0  0.07676  0.43085  0.05546  1.0000
  S   S34       1.0  0.14748  0.33428  0.15597  1.0000
  H   H100      1.0  0.39385  0.19644  0.13992  1.0000
  H   H101      1.0  0.28829  0.34542  0.01772  1.0000
  H   H102      1.0  0.34793  0.11589  0.15912  1.0000
  C   C122      1.0  0.40490  0.20083  0.12999  1.0000
  H   H103      1.0  0.37624  0.98893  0.17100  1.0000
  C   C123      1.0  0.43579  0.05076  0.16049  1.0000
  H   H104      1.0  0.42203  0.07690  0.16559  1.0000
  H   H105      1.0  0.29193  0.39654  0.09765  1.0000
  H   H106      1.0  0.08614  0.36585  0.14252  1.0000
  H   H107      1.0  0.43037  0.15163  0.16399  1.0000
  C   C124      1.0  0.21590  0.42162  0.05053  1.0000
  H   H108      1.0  0.41671  0.23849  0.10323  1.0000
  H   H109      1.0  0.45235  0.17442  0.05380  1.0000
  H   H110      1.0  0.46080  0.34597  0.10458  1.0000
  P   P4        1.0  0.19462  0.43756  0.00584  1.0000
  C   C125      1.0  0.42670  0.99955  0.14759  1.0000
  C   C126      1.0  0.46562  0.23304  0.10852  1.0000
  H   H111      1.0  0.22972  0.37919  0.08526  1.0000
  C   C127      1.0  0.36037  0.11430  0.16315  1.0000
  H   H112      1.0  0.12435  0.43421  0.04694  1.0000
  H   H113      1.0  0.47271  0.29776  0.02924  1.0000
  C   C128      1.0  0.36600  0.17310  0.13607  1.0000
  H   H114      1.0  0.24183  0.37487  0.15325  1.0000
  H   H115      1.0  0.39173  0.22847  0.12586  1.0000
  C   C129      1.0  0.26093  0.43893  0.07665  1.0000
  H   H116      1.0  0.13846  0.47264  0.00130  1.0000
  H   H117      1.0  0.26960  0.38080  0.02547  1.0000
  C   C130      1.0  0.32376  0.16948  0.09941  1.0000
  C   C131      1.0  0.34097  0.16159  0.10239  1.0000
  C   C132      1.0  0.35550  0.16875  0.09180  1.0000
  C   C133      1.0  0.35289  0.18371  0.07816  1.0000
  C   C134      1.0  0.33571  0.19133  0.07461  1.0000
  C   C135      1.0  0.32111  0.18440  0.08568  1.0000
  P   P5        1.0  0.33207  0.21148  0.05791  1.0000
  C   C136      1.0  0.31701  0.21207  0.04406  1.0000
  C   C137      1.0  0.32426  0.22928  0.07006  1.0000
  C   C138      1.0  0.30668  0.23930  0.07130  1.0000
  C   C139      1.0  0.30052  0.25222  0.08180  1.0000
  C   C140      1.0  0.31168  0.25492  0.09144  1.0000
  C   C141      1.0  0.32901  0.24476  0.09057  1.0000
  C   C142      1.0  0.33535  0.23207  0.07983  1.0000
  C   C143      1.0  0.31192  0.22792  0.03204  1.0000
  C   C144      1.0  0.30077  0.22862  0.02071  1.0000
  C   C145      1.0  0.29493  0.21338  0.02100  1.0000
  C   C146      1.0  0.30041  0.19740  0.03251  1.0000
  C   C147      1.0  0.31151  0.19669  0.04394  1.0000
  C   C148      1.0  0.35262  0.21336  0.04200  1.0000
  C   C149      1.0  0.36267  0.19856  0.03479  1.0000
  C   C150      1.0  0.37840  0.19986  0.02204  1.0000
  C   C151      1.0  0.38393  0.21606  0.01609  1.0000
  C   C152      1.0  0.37378  0.23093  0.02294  1.0000
  C   C153      1.0  0.35813  0.22964  0.03583  1.0000
  H   H118      1.0  0.31248  0.16410  0.10788  1.0000
  H   H119      1.0  0.34307  0.15005  0.11304  1.0000
  H   H120      1.0  0.36883  0.16274  0.09426  1.0000
  H   H121      1.0  0.36435  0.18933  0.07059  1.0000
  H   H122      1.0  0.30766  0.19065  0.08384  1.0000
  H   H123      1.0  0.29757  0.23705  0.06446  1.0000
  H   H124      1.0  0.28703  0.26005  0.08263  1.0000
  H   H125      1.0  0.30690  0.26487  0.09964  1.0000
  H   H126      1.0  0.33760  0.24682  0.09815  1.0000
  H   H127      1.0  0.34884  0.22433  0.07929  1.0000
  H   H128      1.0  0.31660  0.23978  0.03140  1.0000
  H   H129      1.0  0.29672  0.24102  0.01167  1.0000
  H   H130      1.0  0.28626  0.21393  0.01223  1.0000
  H   H131      1.0  0.29608  0.18554  0.03254  1.0000
  H   H132      1.0  0.31594  0.18411  0.05243  1.0000
  H   H133      1.0  0.35851  0.18591  0.03924  1.0000
  H   H134      1.0  0.38647  0.18823  0.01703  1.0000
  H   H135      1.0  0.39630  0.21692  0.00653  1.0000
  H   H136      1.0  0.37827  0.24339  0.01870  1.0000
  H   H137      1.0  0.35046  0.24132  0.04095  1.0000
  C   C154      1.0  0.30890  0.16196  0.00342  1.0000
  H   H138      1.0  0.15719  0.46664  0.13449  1.0000
  C   C155      1.0  0.44685  0.20975  0.01608  1.0000
  H   H139      1.0  0.44522  0.09222  0.14520  1.0000
  C   C156      1.0  0.23861  0.41524  0.09535  1.0000
  C   C157      1.0  0.37920  0.99881  0.15905  1.0000
  C   C158      1.0  0.36817  0.16586  0.15358  1.0000
  C   C159      1.0  0.29583  0.36162  0.07845  1.0000
  C   C160      1.0  0.39655  0.05288  0.17050  1.0000
  H   H140      1.0  0.21388  0.28807  0.98062  1.0000
  C   C161      1.0  0.42499  0.01617  0.15149  1.0000
  C   C162      1.0  0.32374  0.18277  0.98000  1.0000
  H   H141      1.0  0.22542  0.45267  0.00413  1.0000
  H   H142      1.0  0.17229  0.45387  0.03589  1.0000
  C   C163      1.0  0.45579  0.30092  0.01090  1.0000
  C   C164      1.0  0.42276  0.98523  0.16130  1.0000
  H   H143      1.0  0.32012  0.35836  0.99373  1.0000
  H   H144      1.0  0.10378  0.46522  0.08162  1.0000
  C   C165      1.0  0.08225  0.43836  0.06157  1.0000
  C   C166      1.0  0.09151  0.42961  0.07525  1.0000
  C   C167      1.0  0.09857  0.43929  0.08328  1.0000
  C   C168      1.0  0.09736  0.45764  0.07653  1.0000
  P   P6        1.0  0.11089  0.42793  0.10063  1.0000
  C   C169      1.0  0.10861  0.44123  0.11678  1.0000
  C   C170      1.0  0.10299  0.40823  0.11375  1.0000
  C   C171      1.0  0.08474  0.40796  0.11772  1.0000
  C   C172      1.0  0.09973  0.47199  0.99724  1.0000
  H   H145      1.0  0.23953  0.28064  0.08835  1.0000
  H   H146      1.0  0.21884  0.37619  0.06012  1.0000
  C   C173      1.0  0.11498  0.39329  0.12085  1.0000
  C   C174      1.0  0.12097  0.43665  0.12791  1.0000
  H   H147      1.0  0.23526  0.38215  0.99015  1.0000
  H   H148      1.0  0.48787  0.26685  0.02599  1.0000
  H   H149      1.0  0.08081  0.47615  0.13399  1.0000
  C   C175      1.0  0.09380  0.45523  0.11942  1.0000
  C   C176      1.0  0.13364  0.42128  0.08942  1.0000
  C   C177      1.0  0.13838  0.40666  0.08108  1.0000
  C   C178      1.0  0.15622  0.40048  0.07355  1.0000
  C   C179      1.0  0.16931  0.40901  0.07409  1.0000
  C   C180      1.0  0.16456  0.42417  0.08144  1.0000
  C   C181      1.0  0.14677  0.43031  0.08909  1.0000
  C   C182      1.0  0.24444  0.36957  0.14134  1.0000
  C   C183      1.0  0.08011  0.45680  0.05573  1.0000
  C   C184      1.0  0.48192  0.20425  0.10236  1.0000
  H   H150      1.0  0.09324  0.41529  0.07943  1.0000
  S   S35       1.0  0.14532  0.47685  0.07461  1.0000
  H   H151      1.0  0.07520  0.41953  0.11287  1.0000
  C   C185      1.0  0.41679  0.27741  0.98796  1.0000
  C   C186      1.0  0.23865  0.37939  0.07233  1.0000
  C   C187      1.0  0.47944  0.14568  0.13877  1.0000
  H   H152      1.0  0.12905  0.39335  0.11851  1.0000
  H   H153      1.0  0.13219  0.42562  0.12648  1.0000
  H   H154      1.0  0.34717  0.23175  0.98455  1.0000
  C   C188      1.0  0.48342  0.11067  0.11064  1.0000
  H   H155      1.0  0.40510  0.32946  0.98722  1.0000
  H   H156      1.0  0.08361  0.45857  0.11163  1.0000
  H   H157      1.0  0.12840  0.39971  0.08085  1.0000
  H   H158      1.0  0.15999  0.38880  0.06773  1.0000
  H   H159      1.0  0.18319  0.40347  0.06939  1.0000
  H   H160      1.0  0.17475  0.43084  0.08176  1.0000
  H   H161      1.0  0.14337  0.44192  0.09493  1.0000
  C   C189      1.0  0.11900  0.44636  0.14093  1.0000
  H   H162      1.0  0.45217  0.35142  0.07544  1.0000
  C   C190      1.0  0.46874  0.35256  0.09266  1.0000
  H   H163      1.0  0.21673  0.34693  0.05075  1.0000
  C   C191      1.0  0.48868  0.30577  0.08332  1.0000
  H   H164      1.0  0.48052  0.28085  0.09555  1.0000
  C   C192      1.0  0.35543  0.19474  0.16123  1.0000
  H   H165      1.0  0.15478  0.40024  0.13396  1.0000
  H   H166      1.0  0.34796  0.21605  0.13965  1.0000
  H   H167      1.0  0.10313  0.43038  0.02329  1.0000
  H   H168      1.0  0.19223  0.37325  0.05370  1.0000
  C   C193      1.0  0.38564  0.99375  0.14260  1.0000
  C   C194      1.0  0.27896  0.34446  0.01031  1.0000
  H   H169      1.0  0.23249  0.44528  0.15729  1.0000
  H   H170      1.0  0.44517  0.19674  0.02405  1.0000
  C   C195      1.0  0.41971  0.01846  0.16922  1.0000
  H   H171      1.0  0.35725  0.19674  0.11738  1.0000
  C   C196      1.0  0.25112  0.35590  0.11063  1.0000
  H   H172      1.0  0.14472  0.37172  0.14637  1.0000
  C   C197      1.0  0.26717  0.38250  0.05271  1.0000
  C   C198      1.0  0.20562  0.42335  0.03805  1.0000
  H   H173      1.0  0.16737  0.41831  0.00530  1.0000
  C   C199      1.0  0.43388  0.06919  0.15854  1.0000
  H   H174      1.0  0.47268  0.15549  0.09640  1.0000
  C   C200      1.0  0.30716  0.19288  0.97650  1.0000
  H   H175      1.0  0.47681  0.04228  0.13338  1.0000
  H   H176      1.0  0.12881  0.44300  0.14921  1.0000
  C   C201      1.0  0.08770  0.46642  0.06317  1.0000
  H   H177      1.0  0.21310  0.41320  0.06364  1.0000
  C   C202      1.0  0.14777  0.45902  0.97912  1.0000
  C   C203      1.0  0.23242  0.37763  0.05807  1.0000
  H   H178      1.0  0.37398  0.15186  0.15721  1.0000
  Fe  Fe18      1.0  0.44843  0.98622  0.02298  1.0000
  C   C204      1.0  0.21735  0.47650  0.12330  1.0000
  C   C205      1.0  0.44958  0.27076  0.05976  1.0000
  C   C206      1.0  0.46383  0.35565  0.07628  1.0000
  H   H179      1.0  0.45398  0.02670  0.15388  1.0000
  H   H180      1.0  0.39243  0.25074  0.98759  1.0000
  C   C207      1.0  0.37820  0.07541  0.15191  1.0000
  C   C208      1.0  0.44704  0.07791  0.14705  1.0000
  C   C209      1.0  0.18752  0.47473  0.99791  1.0000
  C   C210      1.0  0.07869  0.39269  0.12801  1.0000
  C   C211      1.0  0.26724  0.42063  0.07748  1.0000
  H   H181      1.0  0.28021  0.16748  0.00751  1.0000
  C   C212      1.0  0.45081  0.24356  0.99549  1.0000
  H   H182      1.0  0.47281  0.14144  0.15240  1.0000
  Fe  Fe19      1.0  0.47649  0.34146  0.02334  1.0000
  C   C213      1.0  0.24352  0.44536  0.08523  1.0000
  H   H183      1.0  0.47316  0.10615  0.13894  1.0000
  C   C214      1.0  0.45551  0.25383  0.06950  1.0000
  C   C215      1.0  0.47293  0.26630  0.00713  1.0000
  C   C216      1.0  0.25617  0.38159  0.06981  1.0000
  C   C217      1.0  0.46173  0.20499  0.07131  1.0000
  C   C218      1.0  0.45780  0.22837  0.98798  1.0000
  C   C219      1.0  0.46798  0.21908  0.09978  1.0000
  H   H184      1.0  0.43427  0.22314  0.03786  1.0000
  H   H185      1.0  0.14188  0.45285  0.05303  1.0000
  H   H186      1.0  0.25410  0.39218  0.12414  1.0000
  H   H187      1.0  0.09030  0.42576  0.00003  1.0000
  C   C220      1.0  0.09078  0.37772  0.13461  1.0000
  H   H188      1.0  0.23869  0.37637  0.03029  1.0000
  H   H189      1.0  0.26951  0.44815  0.06926  1.0000
  H   H190      1.0  0.20856  0.38898  0.16266  1.0000
  H   H191      1.0  0.28059  0.38468  0.05030  1.0000
  C   C221      1.0  0.45567  0.21156  0.99822  1.0000
  C   C222      1.0  0.16211  0.42603  0.01551  1.0000
  C   C223      1.0  0.45169  0.04102  0.15189  1.0000
  C   C224      1.0  0.36277  0.17655  0.16636  1.0000
  C   C225      1.0  0.45207  0.19384  0.06844  1.0000
  H   H192      1.0  0.32450  0.38502  0.09412  1.0000
  C   C226      1.0  0.33570  0.37072  0.02364  1.0000
  H   H193      1.0  0.12390  0.21949  0.16046  1.0000
  C   C227      1.0  0.38130  0.02917  0.14469  1.0000
  C   C228      1.0  0.38727  0.02434  0.12801  1.0000
  C   C229      1.0  0.38993  0.00639  0.12717  1.0000
  P   P7        1.0  0.39312  0.04058  0.10805  1.0000
  C   C230      1.0  0.37965  0.06267  0.10855  1.0000
  C   C231      1.0  0.41665  0.03985  0.10516  1.0000
  C   C232      1.0  0.42265  0.05336  0.10895  1.0000
  C   C233      1.0  0.44092  0.05272  0.10630  1.0000
  C   C234      1.0  0.45333  0.03828  0.10050  1.0000
  C   C235      1.0  0.44747  0.02441  0.09747  1.0000
  C   C236      1.0  0.42920  0.02524  0.09965  1.0000
  C   C237      1.0  0.38593  0.07756  0.09732  1.0000
  C   C238      1.0  0.37581  0.09471  0.09799  1.0000
  C   C239      1.0  0.35904  0.09711  0.10933  1.0000
  C   C240      1.0  0.35220  0.08233  0.11970  1.0000
  C   C241      1.0  0.36239  0.06515  0.11920  1.0000
  C   C242      1.0  0.38858  0.03502  0.08928  1.0000
  C   C243      1.0  0.37399  0.02712  0.09151  1.0000
  C   C244      1.0  0.37015  0.02321  0.07689  1.0000
  C   C245      1.0  0.38049  0.02766  0.05989  1.0000
  C   C246      1.0  0.39459  0.03609  0.05751  1.0000
  C   C247      1.0  0.39875  0.03967  0.07212  1.0000
  H   H194      1.0  0.17736  0.38888  0.02847  1.0000
  C   C248      1.0  0.15217  0.39520  0.14824  1.0000
  H   H195      1.0  0.37986  0.04269  0.14577  1.0000
  H   H196      1.0  0.39531  0.00212  0.11461  1.0000
  H   H197      1.0  0.41337  0.06453  0.11376  1.0000
  H   H198      1.0  0.44547  0.06363  0.10837  1.0000
  H   H199      1.0  0.46750  0.03797  0.09810  1.0000
  H   H200      1.0  0.45711  0.01318  0.09304  1.0000
  H   H201      1.0  0.42490  0.01452  0.09689  1.0000
  H   H202      1.0  0.39875  0.07597  0.08814  1.0000
  H   H203      1.0  0.38106  0.10616  0.08983  1.0000
  H   H204      1.0  0.35142  0.11044  0.11009  1.0000
  H   H205      1.0  0.33909  0.08418  0.12831  1.0000
  H   H206      1.0  0.35677  0.05387  0.12717  1.0000
  H   H207      1.0  0.36565  0.02387  0.10454  1.0000
  H   H208      1.0  0.35921  0.01670  0.07875  1.0000
  H   H209      1.0  0.37767  0.02455  0.04853  1.0000
  H   H210      1.0  0.40244  0.03970  0.04429  1.0000
  H   H211      1.0  0.40986  0.04611  0.06995  1.0000
  C   C249      1.0  0.16412  0.30137  0.17243  1.0000
  C   C250      1.0  0.36284  0.07210  0.16451  1.0000
  C   C251      1.0  0.20400  0.30457  0.00018  1.0000
  C   C252      1.0  0.20848  0.31414  0.01032  1.0000
  C   C253      1.0  0.22642  0.31454  0.00885  1.0000
  C   C254      1.0  0.23984  0.30437  0.99798  1.0000
  P   P8        1.0  0.23216  0.32711  0.02169  1.0000
  C   C255      1.0  0.21516  0.34693  0.02395  1.0000
  C   C256      1.0  0.23454  0.31225  0.04274  1.0000
  C   C257      1.0  0.25119  0.30144  0.04511  1.0000
  C   C258      1.0  0.25299  0.29007  0.06151  1.0000
  C   C259      1.0  0.23809  0.28905  0.07546  1.0000
  C   C260      1.0  0.22136  0.29924  0.07296  1.0000
  C   C261      1.0  0.21953  0.31063  0.05659  1.0000
  C   C262      1.0  0.20698  0.35615  0.00960  1.0000
  C   C263      1.0  0.19355  0.37130  0.01120  1.0000
  C   C264      1.0  0.18836  0.37762  0.02700  1.0000
  C   C265      1.0  0.19683  0.36884  0.04118  1.0000
  C   C266      1.0  0.21039  0.35366  0.03960  1.0000
  S   S36       1.0  0.47884  0.36878  0.00731  1.0000
  H   H212      1.0  0.48764  0.02170  0.04851  1.0000
  H   H213      1.0  0.42782  0.02718  0.14068  1.0000
  H   H214      1.0  0.26305  0.25766  0.99035  1.0000
  C   C267      1.0  0.46235  0.06824  0.13775  1.0000
  C   C268      1.0  0.23233  0.43352  0.09446  1.0000
  Fe  Fe20      1.0  0.14755  0.47501  0.17067  1.0000
  C   C269      1.0  0.25200  0.33550  0.00996  1.0000
  H   H215      1.0  0.33206  0.30820  0.98086  1.0000
  H   H216      1.0  0.19789  0.32150  0.01901  1.0000
  H   H217      1.0  0.37277  0.34015  0.98944  1.0000
  H   H218      1.0  0.26284  0.30185  0.03438  1.0000
  H   H219      1.0  0.26598  0.28233  0.06351  1.0000
  C   C270      1.0  0.14832  0.47402  0.12558  1.0000
  H   H220      1.0  0.44117  0.30097  0.99176  1.0000
  C   C271      1.0  0.31422  0.35509  0.07663  1.0000
  H   H221      1.0  0.47035  0.36620  0.04814  1.0000
  C   C272      1.0  0.45126  0.29322  0.99922  1.0000
  C   C273      1.0  0.22979  0.43079  0.04615  1.0000
  C   C274      1.0  0.15441  0.40476  0.15970  1.0000
  C   C275      1.0  0.23323  0.44187  0.02938  1.0000
  H   H222      1.0  0.47042  0.11668  0.10739  1.0000
  S   S37       1.0  0.17603  0.47561  0.16958  1.0000
  C   C276      1.0  0.26094  0.38049  0.03853  1.0000
  C   C277      1.0  0.24078  0.35297  0.14254  1.0000
  C   C278      1.0  0.35501  0.37565  0.99445  1.0000
  H   H223      1.0  0.33884  0.35846  0.08072  1.0000
  H   H224      1.0  0.23860  0.45952  0.08457  1.0000
  C   C279      1.0  0.14069  0.19676  0.17371  1.0000
  C   C280      1.0  0.14441  0.37193  0.17350  1.0000
  C   C281      1.0  0.14033  0.48045  0.09654  1.0000
  C   C282      1.0  0.39251  0.10993  0.17365  1.0000
  H   H225      1.0  0.48708  0.06123  0.01929  1.0000
  C   C283      1.0  0.48495  0.10456  0.12844  1.0000
  H   H226      1.0  0.35146  0.32773  0.98050  1.0000
  H   H227      1.0  0.23772  0.25660  0.97803  1.0000
  H   H228      1.0  0.48326  0.17485  0.03653  1.0000
  C   C284      1.0  0.27018  0.34829  0.98229  1.0000
  H   H229      1.0  0.37236  0.02027  0.17299  1.0000
  H   H230      1.0  0.29294  0.23998  0.98104  1.0000
  H   H231      1.0  0.29388  0.35514  0.98474  1.0000
  H   H232      1.0  0.48749  0.35508  0.10648  1.0000
  H   H233      1.0  0.35124  0.20338  0.17072  1.0000
  C   C285      1.0  0.40213  0.15803  0.17479  1.0000
  P   P9        1.0  0.41805  0.03985  0.17421  1.0000
  C   C286      1.0  0.41943  0.14785  0.17454  1.0000
  H   H234      1.0  0.24591  0.34023  0.98382  1.0000
  H   H235      1.0  0.24575  0.28778  0.97879  1.0000
  S   S38       1.0  0.15174  0.44536  0.17632  1.0000
  H   H236      1.0  0.48796  0.99164  0.97740  1.0000
  H   H237      1.0  0.08611  0.48072  0.05852  1.0000
  S   S39       1.0  0.28515  0.28303  0.97658  1.0000
  C   C287      1.0  0.38165  0.34371  0.97681  1.0000
  C   C288      1.0  0.06719  0.38467  0.97700  1.0000
  H   H238      1.0  0.04264  0.37727  0.97798  1.0000
  Fe  Fe21      1.0  0.20510  0.12463  0.33874  1.0000
  S   S40       1.0  0.20821  0.09711  0.33447  1.0000
  S   S41       1.0  0.22677  0.13032  0.34882  1.0000
  Fe  Fe22      1.0  0.17227  0.13907  0.32196  1.0000
  S   S42       1.0  0.17313  0.11269  0.31604  1.0000
  S   S43       1.0  0.14897  0.16086  0.31467  1.0000
  Fe  Fe23      1.0  0.17842  0.10135  0.34353  1.0000
  S   S44       1.0  0.16381  0.08251  0.36521  1.0000
  Fe  Fe24      1.0  0.20279  0.11095  0.30745  1.0000
  S   S45       1.0  0.21940  0.10095  0.28294  1.0000
  S   S46       1.0  0.17575  0.12784  0.35011  1.0000
  S   S47       1.0  0.20145  0.13831  0.31102  1.0000
  C   C289      1.0  0.25113  0.14971  0.24567  1.0000
  S   S48       1.0  0.10985  0.04616  0.34758  1.0000
  H   H239      1.0  0.11358  0.40772  0.25704  1.0000
  H   H240      1.0  0.19393  0.39948  0.21099  1.0000
  C   C290      1.0  0.35906  0.21175  0.21860  1.0000
  H   H241      1.0  0.15387  0.40538  0.18666  1.0000
  S   S49       1.0  0.05973  0.06504  0.36167  1.0000
  Fe  Fe25      1.0  0.33508  0.05718  0.23309  1.0000
  S   S50       1.0  0.36357  0.05436  0.23452  1.0000
  S   S51       1.0  0.32812  0.04012  0.21814  1.0000
  Fe  Fe26      1.0  0.32208  0.08735  0.25328  1.0000
  S   S52       1.0  0.34971  0.08676  0.25635  1.0000
  S   S53       1.0  0.30017  0.10844  0.26477  1.0000
  Fe  Fe27      1.0  0.35801  0.08407  0.22773  1.0000
  S   S54       1.0  0.37966  0.09719  0.20877  1.0000
  Fe  Fe28      1.0  0.35271  0.05713  0.26296  1.0000
  S   S55       1.0  0.36549  0.03687  0.28431  1.0000
  S   S56       1.0  0.33024  0.08693  0.22405  1.0000
  S   S57       1.0  0.32439  0.05776  0.26211  1.0000
  H   H242      1.0  0.12680  0.27288  0.19682  1.0000
  C   C291      1.0  0.05886  0.28352  0.36785  1.0000
  S   S58       1.0  0.39820  0.05525  0.34101  1.0000
  H   H243      1.0  0.01087  0.26961  0.31227  1.0000
  C   C292      1.0  0.08497  0.48078  0.34800  1.0000
  C   C293      1.0  0.03700  0.28282  0.24991  1.0000
  Fe  Fe29      1.0  0.09188  0.38952  0.33690  1.0000
  S   S59       1.0  0.07544  0.39346  0.36375  1.0000
  S   S60       1.0  0.10880  0.36210  0.33533  1.0000
  Fe  Fe30      1.0  0.07904  0.42756  0.31949  1.0000
  S   S61       1.0  0.06094  0.43442  0.34474  1.0000
  S   S62       1.0  0.08180  0.45011  0.29570  1.0000
  Fe  Fe31      1.0  0.08411  0.41949  0.35743  1.0000
  H   H244      1.0  0.02863  0.33353  0.31189  1.0000
  Fe  Fe32      1.0  0.05362  0.40798  0.34898  1.0000
  S   S63       1.0  0.02621  0.40249  0.36283  1.0000
  S   S64       1.0  0.10281  0.41419  0.33194  1.0000
  S   S65       1.0  0.06950  0.40242  0.32235  1.0000
  Fe  Fe33      1.0  0.10134  0.26881  0.27329  1.0000
  S   S66       1.0  0.10812  0.27816  0.29460  1.0000
  S   S67       1.0  0.07389  0.26375  0.27697  1.0000
  Fe  Fe34      1.0  0.13671  0.27280  0.24758  1.0000
  S   S68       1.0  0.14663  0.28186  0.26704  1.0000
  S   S69       1.0  0.15476  0.26902  0.22109  1.0000
  Fe  Fe35      1.0  0.13481  0.26028  0.28741  1.0000
  S   S70       1.0  0.14956  0.24180  0.30809  1.0000
  Fe  Fe36      1.0  0.11912  0.29883  0.27225  1.0000
  S   S71       1.0  0.11326  0.32863  0.26969  1.0000
  S   S72       1.0  0.12725  0.24965  0.26746  1.0000
  S   S73       1.0  0.10989  0.29103  0.25149  1.0000
  C   C294      1.0  0.21365  0.36153  0.35782  1.0000
  H   H245      1.0  0.40499  0.10828  0.17760  1.0000
  Fe  Fe37      1.0  0.00043  0.18358  0.28755  1.0000
  H   H246      1.0  0.04012  0.25703  0.32071  1.0000
  S   S74       1.0  0.17297  0.44536  0.20709  1.0000
  H   H247      1.0  0.25662  0.44995  0.20647  1.0000
  C   C295      1.0  0.07336  0.22896  0.33191  1.0000
  S   S75       1.0  0.01807  0.16472  0.30536  1.0000
  H   H248      1.0  0.09383  0.10903  0.26429  1.0000
  S   S76       1.0  0.01298  0.20643  0.28570  1.0000
  H   H249      1.0  0.12512  0.04641  0.30288  1.0000
  Fe  Fe38      1.0  0.02820  0.18836  0.30594  1.0000
  S   S77       1.0  0.05720  0.18680  0.30515  1.0000
  S   S78       1.0  0.00758  0.19583  0.32952  1.0000
  C   C296      1.0  0.22079  0.43487  0.23487  1.0000
  H   H250      1.0  0.99010  0.23084  0.33990  1.0000
  H   H251      1.0  0.14343  0.36465  0.34527  1.0000
  C   C297      1.0  0.16553  0.31885  0.23110  1.0000
  C   C298      1.0  0.06997  0.24218  0.28585  1.0000
  C   C299      1.0  0.08384  0.22729  0.28817  1.0000
  C   C300      1.0  0.07990  0.21022  0.29479  1.0000
  C   C301      1.0  0.06215  0.20811  0.29890  1.0000
  C   C302      1.0  0.04837  0.22308  0.29706  1.0000
  C   C303      1.0  0.05230  0.24003  0.29055  1.0000
  H   H252      1.0  0.09754  0.22887  0.28469  1.0000
  H   H253      1.0  0.09063  0.19867  0.29627  1.0000
  H   H254      1.0  0.03464  0.22163  0.30056  1.0000
  H   H255      1.0  0.04158  0.25156  0.28922  1.0000
  C   C304      1.0  0.10906  0.35279  0.31737  1.0000
  C   C305      1.0  0.11561  0.33448  0.31826  1.0000
  C   C306      1.0  0.11654  0.32681  0.30386  1.0000
  C   C307      1.0  0.11124  0.33753  0.28839  1.0000
  C   C308      1.0  0.10457  0.35582  0.28753  1.0000
  C   C309      1.0  0.10330  0.36342  0.30206  1.0000
  H   H256      1.0  0.12007  0.32621  0.33008  1.0000
  H   H257      1.0  0.12174  0.31271  0.30457  1.0000
  H   H258      1.0  0.10048  0.36415  0.27555  1.0000
  H   H259      1.0  0.09831  0.37755  0.30121  1.0000
  C   C310      1.0  0.09966  0.42613  0.27428  1.0000
  C   C311      1.0  0.09447  0.44399  0.27571  1.0000
  C   C312      1.0  0.09950  0.45722  0.26103  1.0000
  H   H260      1.0  0.09576  0.41588  0.28554  1.0000
  C   C313      1.0  0.41496  0.00419  0.18282  1.0000
  C   C314      1.0  0.15335  0.28761  0.20331  1.0000
  H   H261      1.0  0.21756  0.42805  0.19522  1.0000
  H   H262      1.0  0.09249  0.34610  0.23704  1.0000
  C   C315      1.0  0.07715  0.21311  0.34416  1.0000
  C   C316      1.0  0.13842  0.31711  0.19047  1.0000
  C   C317      1.0  0.13999  0.30285  0.20508  1.0000
  H   H263      1.0  0.15043  0.47736  0.27039  1.0000
  H   H264      1.0  0.12790  0.32875  0.19186  1.0000
  H   H265      1.0  0.13077  0.30363  0.21762  1.0000
  H   H266      1.0  0.24481  0.44074  0.18496  1.0000
  H   H267      1.0  0.37250  0.98353  0.35767  1.0000
  C   C318      1.0  0.09486  0.38962  0.22960  1.0000
  H   H268      1.0  0.35747  0.22230  0.22556  1.0000
  C   C319      1.0  0.11667  0.44537  0.35697  1.0000
  C   C320      1.0  0.12952  0.45587  0.35304  1.0000
  C   C321      1.0  0.16545  0.28693  0.18698  1.0000
  H   H269      1.0  0.35236  0.05665  0.18984  1.0000
  H   H270      1.0  0.11589  0.43846  0.34722  1.0000
  H   H271      1.0  0.13861  0.45704  0.34028  1.0000
  C   C322      1.0  0.00504  0.38093  0.36080  1.0000
  C   C323      1.0  0.11746  0.21749  0.18891  1.0000
  C   C324      1.0  0.14194  0.40140  0.36070  1.0000
  C   C325      1.0  0.37416  0.04275  0.29987  1.0000
  C   C326      1.0  0.38033  0.02922  0.31345  1.0000
  C   C327      1.0  0.38795  0.03298  0.32579  1.0000
  C   C328      1.0  0.38915  0.05038  0.32502  1.0000
  C   C329      1.0  0.38303  0.06401  0.31138  1.0000
  C   C330      1.0  0.37553  0.06022  0.29882  1.0000
  H   H272      1.0  0.37931  0.01571  0.31440  1.0000
  H   H273      1.0  0.39330  0.02231  0.33562  1.0000
  H   H274      1.0  0.38399  0.07753  0.31058  1.0000
  H   H275      1.0  0.37085  0.07076  0.28835  1.0000
  C   C331      1.0  0.02171  0.39454  0.33276  1.0000
  S   S79       1.0  0.13839  0.47682  0.19943  1.0000
  C   C332      1.0  0.35482  0.01435  0.23048  1.0000
  C   C333      1.0  0.34342  0.01966  0.21849  1.0000
  C   C334      1.0  0.34425  0.00851  0.20702  1.0000
  C   C335      1.0  0.17033  0.34035  0.19697  1.0000
  Fe  Fe39      1.0  0.16725  0.47517  0.19906  1.0000
  H   H276      1.0  0.35360  0.02225  0.24007  1.0000
  C   C336      1.0  0.14476  0.18706  0.19005  1.0000
  H   H277      1.0  0.15538  0.17529  0.19047  1.0000
  H   H278      1.0  0.14041  0.35923  0.17868  1.0000
  C   C337      1.0  0.03285  0.01320  0.35551  1.0000
  C   C338      1.0  0.03069  0.00103  0.34651  1.0000
  C   C339      1.0  0.01364  0.00036  0.34492  1.0000
  C   C340      1.0  0.99870  0.01179  0.35261  1.0000
  H   H279      1.0  0.12165  0.10517  0.35450  1.0000
  H   H280      1.0  0.04605  0.01370  0.35656  1.0000
  H   H281      1.0  0.25241  0.12067  0.37089  1.0000
  C   C341      1.0  0.40942  0.05151  0.20627  1.0000
  C   C342      1.0  0.23931  0.15886  0.30426  1.0000
  C   C343      1.0  0.41674  0.98758  0.17885  1.0000
  C   C344      1.0  0.03766  0.13299  0.36159  1.0000
  C   C345      1.0  0.02304  0.14398  0.35462  1.0000
  C   C346      1.0  0.00616  0.13970  0.36085  1.0000
  S   S80       1.0  0.01977  0.04057  0.37412  1.0000
  P   P10       1.0  0.99419  0.11182  0.28035  1.0000
  H   H282      1.0  0.05066  0.13637  0.35679  1.0000
  H   H283      1.0  0.02489  0.15569  0.34438  1.0000
  C   C347      1.0  0.15584  0.18012  0.37222  1.0000
  C   C348      1.0  0.27807  0.10522  0.27046  1.0000
  C   C349      1.0  0.27264  0.09452  0.26225  1.0000
  C   C350      1.0  0.25458  0.09330  0.26609  1.0000
  C   C351      1.0  0.24199  0.10245  0.27842  1.0000
  C   C352      1.0  0.24752  0.11288  0.28686  1.0000
  C   C353      1.0  0.26547  0.11440  0.28274  1.0000
  H   H284      1.0  0.28228  0.08743  0.25272  1.0000
  H   H285      1.0  0.25039  0.08516  0.25958  1.0000
  H   H286      1.0  0.23795  0.11989  0.29645  1.0000
  H   H287      1.0  0.26964  0.12260  0.28920  1.0000
  C   C354      1.0  0.14940  0.18321  0.31317  1.0000
  C   C355      1.0  0.13534  0.19656  0.30760  1.0000
  C   C356      1.0  0.13540  0.21453  0.30589  1.0000
  C   C357      1.0  0.14934  0.21928  0.31012  1.0000
  C   C358      1.0  0.16322  0.20593  0.31609  1.0000
  C   C359      1.0  0.16342  0.18791  0.31732  1.0000
  H   H288      1.0  0.12452  0.19304  0.30421  1.0000
  H   H289      1.0  0.12447  0.22467  0.30157  1.0000
  H   H290      1.0  0.17393  0.20961  0.31950  1.0000
  H   H291      1.0  0.17431  0.17765  0.32159  1.0000
  C   C360      1.0  0.15015  0.07129  0.35975  1.0000
  C   C361      1.0  0.23295  0.45843  0.28072  1.0000
  H   H292      1.0  0.40231  0.06037  0.23109  1.0000
  C   C362      1.0  0.12606  0.05498  0.35226  1.0000
  C   C363      1.0  0.13776  0.06374  0.33835  1.0000
  C   C364      1.0  0.14963  0.07208  0.34208  1.0000
  H   H293      1.0  0.08786  0.20396  0.20643  1.0000
  H   H294      1.0  0.11814  0.36194  0.37065  1.0000
  H   H295      1.0  0.13753  0.06432  0.32468  1.0000
  H   H296      1.0  0.15832  0.07911  0.33130  1.0000
  H   H297      1.0  0.04370  0.25677  0.24360  1.0000
  C   C365      1.0  0.28062  0.06431  0.32180  1.0000
  H   H298      1.0  0.44292  0.00588  0.34047  1.0000
  C   C366      1.0  0.07084  0.47738  0.36230  1.0000
  H   H299      1.0  0.07141  0.34420  0.27063  1.0000
  H   H300      1.0  0.35015  0.10371  0.19079  1.0000
  H   H301      1.0  0.05835  0.34167  0.18497  1.0000
  H   H302      1.0  0.01467  0.43668  0.37540  1.0000
  C   C367      1.0  0.34405  0.20648  0.21720  1.0000
  C   C368      1.0  0.21888  0.40943  0.26897  1.0000
  C   C369      1.0  0.34428  0.06398  0.35142  1.0000
  H   H303      1.0  0.17582  0.27517  0.18554  1.0000
  S   S81       1.0  0.12828  0.42845  0.22391  1.0000
  H   H304      1.0  0.99560  0.08093  0.26514  1.0000
  C   C370      1.0  0.14782  0.37499  0.29526  1.0000
  C   C371      1.0  0.16355  0.36869  0.28386  1.0000
  C   C372      1.0  0.17999  0.36974  0.28643  1.0000
  C   C373      1.0  0.18072  0.37655  0.30075  1.0000
  C   C374      1.0  0.16503  0.38207  0.31281  1.0000
  C   C375      1.0  0.14850  0.38181  0.30957  1.0000
  P   P11       1.0  0.16612  0.39137  0.33093  1.0000
  C   C376      1.0  0.18513  0.37983  0.34089  1.0000
  C   C377      1.0  0.16621  0.41464  0.32182  1.0000
  C   C378      1.0  0.18183  0.42126  0.31826  1.0000
  C   C379      1.0  0.18164  0.43930  0.31094  1.0000
  C   C380      1.0  0.16599  0.45072  0.30671  1.0000
  C   C381      1.0  0.15050  0.44414  0.30980  1.0000
  C   C382      1.0  0.15057  0.42621  0.31748  1.0000
  H   H305      1.0  0.40062  0.06294  0.20006  1.0000
  H   H306      1.0  0.40976  0.00580  0.19646  1.0000
  H   H307      1.0  0.23348  0.36716  0.26146  1.0000
  H   H308      1.0  0.08771  0.16552  0.24758  1.0000
  H   H309      1.0  0.09453  0.16377  0.31588  1.0000
  C   C383      1.0  0.14740  0.38921  0.34934  1.0000
  H   H310      1.0  0.18841  0.35522  0.33224  1.0000
  C   C384      1.0  0.09501  0.17083  0.35632  1.0000
  H   H311      1.0  0.04806  0.28712  0.24000  1.0000
  C   C385      1.0  0.22670  0.16931  0.31527  1.0000
  C   C386      1.0  0.32725  0.13695  0.20121  1.0000
  H   H312      1.0  0.13505  0.37450  0.29306  1.0000
  H   H313      1.0  0.16292  0.36314  0.27296  1.0000
  H   H314      1.0  0.19215  0.36520  0.27735  1.0000
  H   H315      1.0  0.19352  0.37749  0.30244  1.0000
  H   H316      1.0  0.13608  0.38677  0.31808  1.0000
  H   H317      1.0  0.19414  0.41262  0.32117  1.0000
  C   C387      1.0  0.35271  0.10413  0.36396  1.0000
  H   H318      1.0  0.16583  0.46470  0.30125  1.0000
  H   H319      1.0  0.13831  0.45299  0.30658  1.0000
  H   H320      1.0  0.13843  0.42135  0.31994  1.0000
  C   C388      1.0  0.34003  0.14711  0.19177  1.0000
  H   H321      1.0  0.24249  0.19446  0.22924  1.0000
  C   C389      1.0  0.21418  0.42978  0.22257  1.0000
  C   C390      1.0  0.42263  0.13267  0.18777  1.0000
  H   H322      1.0  0.99599  0.13531  0.30280  1.0000
  C   C391      1.0  0.09245  0.20905  0.35144  1.0000
  C   C392      1.0  0.09313  0.16141  0.33019  1.0000
  H   H323      1.0  0.18399  0.40106  0.35391  1.0000
  H   H324      1.0  0.10221  0.18485  0.32907  1.0000
  C   C393      1.0  0.20573  0.15817  0.25947  1.0000
  C   C394      1.0  0.18970  0.15844  0.27223  1.0000
  C   C395      1.0  0.17886  0.14653  0.27379  1.0000
  C   C396      1.0  0.18385  0.13435  0.26260  1.0000
  C   C397      1.0  0.19940  0.13446  0.24941  1.0000
  C   C398      1.0  0.21017  0.14648  0.24764  1.0000
  C   C399      1.0  0.19176  0.23046  0.23696  1.0000
  C   C400      1.0  0.18755  0.21610  0.23300  1.0000
  C   C401      1.0  0.19615  0.19869  0.23929  1.0000
  H   H325      1.0  0.16684  0.14636  0.28406  1.0000
  H   H326      1.0  0.17589  0.12459  0.26439  1.0000
  H   H327      1.0  0.20344  0.12479  0.24094  1.0000
  H   H328      1.0  0.22204  0.14631  0.23722  1.0000
  H   H329      1.0  0.18495  0.24393  0.23224  1.0000
  H   H330      1.0  0.17749  0.21854  0.22517  1.0000
  H   H331      1.0  0.19263  0.18773  0.23617  1.0000
  H   H332      1.0  0.13189  0.16662  0.35023  1.0000
  H   H333      1.0  0.02621  0.11143  0.29237  1.0000
  C   C402      1.0  0.01755  0.07901  0.28709  1.0000
  C   C403      1.0  0.33469  0.98522  0.26226  1.0000
  H   H334      1.0  0.01837  0.24623  0.26611  1.0000
  H   H335      1.0  0.99334  0.06585  0.33623  1.0000
  C   C404      1.0  0.37613  0.20339  0.21100  1.0000
  Fe  Fe40      1.0  0.99145  0.21219  0.30929  1.0000
  H   H336      1.0  0.05066  0.12768  0.27956  1.0000
  C   C405      1.0  0.00000  0.06954  0.32247  1.0000
  C   C406      1.0  0.03551  0.11759  0.37464  1.0000
  C   C407      1.0  0.08919  0.15556  0.36712  1.0000
  C   C408      1.0  0.39123  0.13797  0.20173  1.0000
  S   S82       1.0  0.14721  0.47783  0.35980  1.0000
  C   C409      1.0  0.33422  0.03643  0.36521  1.0000
  C   C410      1.0  0.41578  0.98391  0.28182  1.0000
  C   C411      1.0  0.99354  0.08580  0.31188  1.0000
  H   H337      1.0  0.43974  0.01389  0.19798  1.0000
  C   C412      1.0  0.01505  0.05790  0.31532  1.0000
  C   C413      1.0  0.04099  0.14100  0.25566  1.0000
  H   H338      1.0  0.37545  0.99398  0.24061  1.0000
  C   C414      1.0  0.08071  0.14064  0.28967  1.0000
  C   C415      1.0  0.28854  0.13439  0.36699  1.0000
  C   C416      1.0  0.38103  0.04944  0.18298  1.0000
  C   C417      1.0  0.38785  0.15315  0.18838  1.0000
  H   H339      1.0  0.01199  0.29047  0.36702  1.0000
  H   H340      1.0  0.05155  0.14841  0.25029  1.0000
  H   H341      1.0  0.33521  0.01242  0.19792  1.0000
  C   C418      1.0  0.01345  0.13455  0.25359  1.0000
  C   C419      1.0  0.34806  0.04553  0.35712  1.0000
  C   C420      1.0  0.00392  0.12457  0.37423  1.0000
  C   C421      1.0  0.43799  0.00812  0.32839  1.0000
  C   C422      1.0  0.01275  0.12288  0.27028  1.0000
  C   C423      1.0  0.02388  0.06267  0.29766  1.0000
  H   H342      1.0  0.41084  0.11573  0.21142  1.0000
  H   H343      1.0  0.39126  0.00279  0.28862  1.0000
  H   H344      1.0  0.99258  0.31871  0.25173  1.0000
  C   C424      1.0  0.02648  0.12024  0.27945  1.0000
  H   H345      1.0  0.18834  0.46656  0.26545  1.0000
  C   C425      1.0  0.00206  0.37537  0.33310  1.0000
  C   C426      1.0  0.36870  0.98745  0.21896  1.0000
  H   H346      1.0  0.02761  0.15294  0.23374  1.0000
  P   P12       1.0  0.03992  0.30911  0.34417  1.0000
  H   H347      1.0  0.30594  0.03850  0.37369  1.0000
  C   C427      1.0  0.26549  0.07713  0.31821  1.0000
  C   C428      1.0  0.02537  0.29420  0.26080  1.0000
  H   H348      1.0  0.12377  0.34383  0.22145  1.0000
  H   H349      1.0  0.44131  0.01156  0.22924  1.0000
  H   H350      1.0  0.10443  0.28250  0.33443  1.0000
  C   C429      1.0  0.08192  0.15565  0.27592  1.0000
  C   C430      1.0  0.01791  0.02475  0.36302  1.0000
  C   C431      1.0  0.08695  0.15384  0.25818  1.0000
  H   H351      1.0  0.00297  0.13731  0.24629  1.0000
  H   H352      1.0  0.07691  0.14241  0.30334  1.0000
  H   H353      1.0  0.32969  0.12275  0.37427  1.0000
  H   H354      1.0  0.11827  0.40025  0.21641  1.0000
  C   C432      1.0  0.01722  0.39183  0.35134  1.0000
  C   C433      1.0  0.10973  0.42154  0.25815  1.0000
  C   C434      1.0  0.33835  0.99591  0.27180  1.0000
  H   H355      1.0  0.04164  0.19448  0.24687  1.0000
  C   C435      1.0  0.22292  0.17196  0.28034  1.0000
  C   C436      1.0  0.09008  0.12190  0.26786  1.0000
  C   C437      1.0  0.25770  0.08967  0.32895  1.0000
  P   P13       1.0  0.28965  0.07652  0.36547  1.0000
  H   H356      1.0  0.08271  0.24276  0.24312  1.0000
  H   H357      1.0  0.22350  0.20805  0.26096  1.0000
  H   H358      1.0  0.08885  0.47313  0.33760  1.0000
  C   C438      1.0  0.20766  0.35318  0.34766  1.0000
  C   C439      1.0  0.43139  0.02400  0.20515  1.0000
  H   H359      1.0  0.01990  0.04522  0.32354  1.0000
  C   C440      1.0  0.19080  0.38787  0.35167  1.0000
  H   H360      1.0  0.25872  0.09930  0.35140  1.0000
  H   H361      1.0  0.36174  0.03831  0.35545  1.0000
  P   P14       1.0  0.02793  0.31684  0.25783  1.0000
  C   C441      1.0  0.22987  0.37797  0.26855  1.0000
  H   H362      1.0  0.27539  0.13161  0.23692  1.0000
  C   C442      1.0  0.20471  0.22748  0.24702  1.0000
  H   H363      1.0  0.07087  0.35917  0.32909  1.0000
  H   H364      1.0  0.22195  0.39761  0.24632  1.0000
  H   H365      1.0  0.38480  0.01096  0.25852  1.0000
  Fe  Fe41      1.0  0.99626  0.17343  0.32764  1.0000
  H   H366      1.0  0.24747  0.15187  0.27882  1.0000
  C   C443      1.0  0.00391  0.34261  0.27561  1.0000
  C   C444      1.0  0.42177  0.03566  0.23225  1.0000
  H   H367      1.0  0.28804  0.14800  0.36745  1.0000
  C   C445      1.0  0.22000  0.47386  0.28272  1.0000
  C   C446      1.0  0.17885  0.32240  0.19966  1.0000
  H   H368      1.0  0.20642  0.47472  0.21411  1.0000
  C   C447      1.0  0.22342  0.39531  0.25996  1.0000
  H   H369      1.0  0.35745  0.98361  0.19864  1.0000
  C   C448      1.0  0.00621  0.33041  0.26476  1.0000
  C   C449      1.0  0.10741  0.07202  0.30237  1.0000
  C   C450      1.0  0.21837  0.06763  0.37400  1.0000
  C   C451      1.0  0.08486  0.24087  0.32659  1.0000
  C   C452      1.0  0.02648  0.33547  0.22285  1.0000
  C   C453      1.0  0.08450  0.12361  0.28578  1.0000
  H   H370      1.0  0.02459  0.08258  0.27346  1.0000
  H   H371      1.0  0.18064  0.38281  0.19745  1.0000
  C   C454      1.0  0.37823  0.18970  0.20208  1.0000
  C   C455      1.0  0.18164  0.39517  0.21814  1.0000
  C   C456      1.0  0.01492  0.30427  0.32766  1.0000
  H   H372      1.0  0.37610  0.08386  0.35809  1.0000
  H   H373      1.0  0.34808  0.10476  0.35208  1.0000
  C   C457      1.0  0.00777  0.29449  0.31993  1.0000
  C   C458      1.0  0.02027  0.25962  0.26450  1.0000
  H   H374      1.0  0.03082  0.40316  0.32533  1.0000
  H   H375      1.0  0.33081  0.21297  0.22307  1.0000
  C   C459      1.0  0.02927  0.11720  0.32519  1.0000
  H   H376      1.0  0.29972  0.05397  0.33858  1.0000
  H   H377      1.0  0.08096  0.31842  0.29356  1.0000
  C   C460      1.0  0.28792  0.06396  0.33618  1.0000
  H   H378      1.0  0.11293  0.07498  0.31210  1.0000
  C   C461      1.0  0.31257  0.06443  0.36222  1.0000
  P   P15       1.0  0.21998  0.17314  0.25812  1.0000
  C   C462      1.0  0.12047  0.18394  0.36916  1.0000
  C   C463      1.0  0.03736  0.32488  0.23469  1.0000
  C   C464      1.0  0.04694  0.11847  0.31705  1.0000
  C   C465      1.0  0.34923  0.15348  0.20092  1.0000
  H   H379      1.0  0.06692  0.29217  0.30161  1.0000
  C   C466      1.0  0.09804  0.35798  0.23236  1.0000
  C   C467      1.0  0.99763  0.37253  0.35172  1.0000
  C   C468      1.0  0.21219  0.18107  0.30895  1.0000
  C   C469      1.0  0.02092  0.32924  0.36999  1.0000
  C   C470      1.0  0.21345  0.21013  0.25320  1.0000
  H   H380      1.0  0.28883  0.15513  0.21438  1.0000
  H   H381      1.0  0.06336  0.33087  0.34686  1.0000
  H   H382      1.0  0.25025  0.14932  0.30941  1.0000
  C   C471      1.0  0.29070  0.12963  0.35067  1.0000
  C   C472      1.0  0.34610  0.19281  0.20828  1.0000
  C   C473      1.0  0.13061  0.46506  0.36547  1.0000
  C   C474      1.0  0.37769  0.10520  0.18637  1.0000
  C   C475      1.0  0.07639  0.29450  0.33904  1.0000
  H   H383      1.0  0.14832  0.34204  0.23978  1.0000
  C   C476      1.0  0.23627  0.44200  0.22893  1.0000
  H   H384      1.0  0.09538  0.13551  0.24040  1.0000
  H   H385      1.0  0.02560  0.34976  0.19592  1.0000
  C   C477      1.0  0.01146  0.28786  0.27389  1.0000
  C   C478      1.0  0.23752  0.16024  0.28687  1.0000
  C   C479      1.0  0.41955  0.03820  0.19691  1.0000
  H   H386      1.0  0.01508  0.34458  0.27979  1.0000
  C   C480      1.0  0.03319  0.27023  0.32261  1.0000
  H   H387      1.0  0.21682  0.41639  0.29416  1.0000
  H   H388      1.0  0.16956  0.17874  0.37316  1.0000
  H   H389      1.0  0.18706  0.31674  0.18844  1.0000
  H   H390      1.0  0.11228  0.03822  0.28145  1.0000
  C   C481      1.0  0.24939  0.18069  0.23105  1.0000
  C   C482      1.0  0.11433  0.05566  0.29719  1.0000
  H   H391      1.0  0.09548  0.47104  0.26213  1.0000
  H   H392      1.0  0.03562  0.05364  0.29221  1.0000
  H   H393      1.0  0.24565  0.45671  0.28435  1.0000
  H   H394      1.0  0.00148  0.37887  0.37516  1.0000
  H   H395      1.0  0.38184  0.03933  0.19505  1.0000
  C   C483      1.0  0.13914  0.37460  0.35343  1.0000
  C   C484      1.0  0.14936  0.38490  0.23594  1.0000
  H   H396      1.0  0.16356  0.31053  0.24428  1.0000
  C   C485      1.0  0.00085  0.02395  0.36158  1.0000
  C   C486      1.0  0.41046  0.05016  0.22389  1.0000
  C   C487      1.0  0.32661  0.07344  0.35398  1.0000
  H   H397      1.0  0.00158  0.46906  0.37100  1.0000
  C   C488      1.0  0.09115  0.13696  0.25416  1.0000
  H   H398      1.0  0.07898  0.16872  0.27902  1.0000
  C   C489      1.0  0.24483  0.44420  0.21097  1.0000
  H   H399      1.0  0.01219  0.33923  0.22734  1.0000
  C   C490      1.0  0.05147  0.33281  0.26591  1.0000
  H   H400      1.0  0.05035  0.13142  0.31325  1.0000
  H   H401      1.0  0.07772  0.32281  0.20568  1.0000
  H   H402      1.0  0.99498  0.29991  0.31618  1.0000
  C   C491      1.0  0.05589  0.32026  0.22831  1.0000
  C   C492      1.0  0.06341  0.32633  0.21046  1.0000
  C   C493      1.0  0.09743  0.17338  0.33775  1.0000
  H   H403      1.0  0.20235  0.18898  0.31762  1.0000
  H   H404      1.0  0.04758  0.34412  0.25568  1.0000
  C   C494      1.0  0.15706  0.39422  0.24364  1.0000
  H   H405      1.0  0.38777  0.20747  0.21206  1.0000
  H   H406      1.0  0.32401  0.08771  0.34948  1.0000
  H   H407      1.0  0.01927  0.12902  0.32743  1.0000
  H   H408      1.0  0.09314  0.09444  0.36472  1.0000
  C   C495      1.0  0.04557  0.32978  0.33065  1.0000
  C   C496      1.0  0.33273  0.13922  0.22904  1.0000
  C   C497      1.0  0.12361  0.37182  0.21845  1.0000
  H   H409      1.0  0.40510  0.99623  0.23443  1.0000
  S   S83       1.0  0.38828  0.01016  0.37148  1.0000
  C   C498      1.0  0.43509  0.02516  0.31774  1.0000
  H   H410      1.0  0.27223  0.18648  0.21061  1.0000
  H   H411      1.0  0.19844  0.19102  0.28729  1.0000
  C   C499      1.0  0.04046  0.12934  0.27219  1.0000
  H   H412      1.0  0.35260  0.15387  0.22706  1.0000
  C   C500      1.0  0.06191  0.35333  0.32520  1.0000
  H   H413      1.0  0.32678  0.99129  0.25213  1.0000
  H   H414      1.0  0.10254  0.26226  0.36408  1.0000
  C   C501      1.0  0.20908  0.19558  0.24957  1.0000
  Fe  Fe42      1.0  0.40024  0.03413  0.36632  1.0000
  C   C502      1.0  0.15888  0.34754  0.21130  1.0000
  H   H415      1.0  0.16285  0.16360  0.35288  1.0000
  H   H416      1.0  0.24171  0.44611  0.23801  1.0000
  H   H417      1.0  0.22814  0.06456  0.36225  1.0000
  C   C503      1.0  0.34547  0.14942  0.21966  1.0000
  C   C504      1.0  0.28019  0.07658  0.34702  1.0000
  H   H418      1.0  0.11384  0.46284  0.23378  1.0000
  H   H419      1.0  0.06843  0.20374  0.34744  1.0000
  H   H420      1.0  0.28681  0.05477  0.31326  1.0000
  H   H421      1.0  0.24548  0.13921  0.25537  1.0000
  C   C505      1.0  0.26494  0.08937  0.34333  1.0000
  H   H422      1.0  0.20788  0.23866  0.25012  1.0000
  C   C506      1.0  0.06495  0.33293  0.27426  1.0000
  H   H423      1.0  0.33726  0.02213  0.36987  1.0000
  C   C507      1.0  0.11276  0.38837  0.22092  1.0000
  H   H424      1.0  0.22797  0.16793  0.32887  1.0000
  C   C508      1.0  0.36729  0.99831  0.23075  1.0000
  H   H425      1.0  0.33009  0.13575  0.24349  1.0000
  H   H426      1.0  0.05785  0.37453  0.30259  1.0000
  C   C509      1.0  0.42841  0.02801  0.30235  1.0000
  C   C510      1.0  0.24164  0.16746  0.24383  1.0000
  C   C511      1.0  0.15205  0.17141  0.36089  1.0000
  C   C512      1.0  0.04056  0.27999  0.33010  1.0000
  H   H427      1.0  0.05880  0.19503  0.21583  1.0000
  C   C513      1.0  0.40034  0.99641  0.27826  1.0000
  H   H428      1.0  0.13683  0.38114  0.24304  1.0000
  H   H429      1.0  0.42566  0.04133  0.29441  1.0000
  H   H430      1.0  0.41854  0.01666  0.28616  1.0000
  C   C514      1.0  0.36426  0.05913  0.18002  1.0000
  H   H431      1.0  0.42228  0.03452  0.24602  1.0000
  H   H432      1.0  0.08680  0.40240  0.23195  1.0000
  C   C515      1.0  0.23813  0.43912  0.19884  1.0000
  H   H433      1.0  0.17862  0.40722  0.24046  1.0000
  H   H434      1.0  0.23682  0.36112  0.29282  1.0000
  H   H435      1.0  0.20238  0.42411  0.22677  1.0000
  C   C516      1.0  0.21012  0.18222  0.29167  1.0000
  C   C517      1.0  0.02281  0.31391  0.36341  1.0000
  C   C518      1.0  0.17309  0.39948  0.23470  1.0000
  H   H436      1.0  0.33303  0.01014  0.26928  1.0000
  H   H437      1.0  0.15014  0.39801  0.25620  1.0000
  H   H438      1.0  0.14831  0.41258  0.35813  1.0000
  C   C519      1.0  0.27568  0.15857  0.22250  1.0000
  C   C520      1.0  0.23174  0.37456  0.28622  1.0000
  H   H439      1.0  0.17260  0.34838  0.18367  1.0000
  H   H440      1.0  0.32051  0.13169  0.19410  1.0000
  C   C521      1.0  0.13926  0.06163  0.37358  1.0000
  Fe  Fe43      1.0  0.08466  0.04678  0.36903  1.0000
  C   C522      1.0  0.22701  0.38847  0.29537  1.0000
  C   C523      1.0  0.07423  0.27175  0.37252  1.0000
  C   C524      1.0  0.17631  0.31161  0.21668  1.0000
  C   C525      1.0  0.02757  0.14347  0.24630  1.0000
  C   C526      1.0  0.09171  0.28278  0.34378  1.0000
  H   H441      1.0  0.99646  0.09063  0.37506  1.0000
  H   H442      1.0  0.08021  0.13186  0.36793  1.0000
  H   H443      1.0  0.20944  0.38514  0.36820  1.0000
  C   C527      1.0  0.20514  0.37883  0.35991  1.0000
  C   C528      1.0  0.17397  0.38587  0.21040  1.0000
  C   C529      1.0  0.31651  0.04580  0.36757  1.0000
  C   C530      1.0  0.06417  0.19871  0.22530  1.0000
  H   H444      1.0  0.43751  0.03626  0.32167  1.0000
  C   C531      1.0  0.03449  0.26558  0.25182  1.0000
  H   H445      1.0  0.11642  0.21805  0.35053  1.0000
  C   C532      1.0  0.10404  0.22106  0.34595  1.0000
  C   C533      1.0  0.22281  0.43192  0.20464  1.0000
  H   H446      1.0  0.38057  0.13362  0.21224  1.0000
  H   H447      1.0  0.10953  0.24579  0.32899  1.0000
  H   H448      1.0  0.07979  0.27504  0.23840  1.0000
  C   C534      1.0  0.10697  0.05101  0.28527  1.0000
  C   C535      1.0  0.26808  0.14532  0.23513  1.0000
  H   H449      1.0  0.18244  0.29756  0.21863  1.0000
  C   C536      1.0  0.05987  0.29511  0.35112  1.0000
  H   H450      1.0  0.03643  0.36168  0.29436  1.0000
  C   C537      1.0  0.29119  0.11206  0.35014  1.0000
  C   C538      1.0  0.15838  0.44947  0.25078  1.0000
  C   C539      1.0  0.14931  0.43761  0.26389  1.0000
  C   C540      1.0  0.15859  0.42374  0.27493  1.0000
  C   C541      1.0  0.17692  0.42192  0.27322  1.0000
  C   C542      1.0  0.18619  0.43379  0.26010  1.0000
  C   C543      1.0  0.17676  0.44762  0.24889  1.0000
  P   P16       1.0  0.20982  0.43174  0.25811  1.0000
  C   C544      1.0  0.21357  0.44814  0.26806  1.0000
  H   H451      1.0  0.22835  0.38582  0.30912  1.0000
  C   C545      1.0  0.32359  0.13305  0.21982  1.0000
  C   C546      1.0  0.36162  0.10736  0.18108  1.0000
  C   C547      1.0  0.08753  0.37440  0.23548  1.0000
  H   H452      1.0  0.05321  0.27394  0.33400  1.0000
  C   C548      1.0  0.00218  0.09062  0.29405  1.0000
  C   C549      1.0  0.20068  0.46380  0.27000  1.0000
  H   H453      1.0  0.05377  0.20307  0.26842  1.0000
  H   H454      1.0  0.43598  0.12458  0.18731  1.0000
  H   H455      1.0  0.35514  0.07087  0.34507  1.0000
  C   C550      1.0  0.22978  0.44562  0.27339  1.0000
  H   H456      1.0  0.33434  0.18892  0.20723  1.0000
  H   H457      1.0  0.13052  0.24050  0.20171  1.0000
  H   H458      1.0  0.04312  0.29180  0.28715  1.0000
  H   H459      1.0  0.07746  0.30305  0.32592  1.0000
  H   H460      1.0  0.00729  0.31715  0.33017  1.0000
  C   C551      1.0  0.05455  0.36199  0.31028  1.0000
  C   C552      1.0  0.35689  0.99230  0.20731  1.0000
  H   H461      1.0  0.13506  0.43915  0.26560  1.0000
  H   H462      1.0  0.15142  0.41456  0.28497  1.0000
  H   H463      1.0  0.18372  0.41135  0.28224  1.0000
  H   H464      1.0  0.18356  0.45705  0.23872  1.0000
  C   C553      1.0  0.42676  0.99684  0.30868  1.0000
  H   H465      1.0  0.35289  0.99683  0.29088  1.0000
  C   C554      1.0  0.05754  0.33727  0.33529  1.0000
  C   C555      1.0  0.10020  0.23692  0.33363  1.0000
  C   C556      1.0  0.05249  0.33696  0.19880  1.0000
  H   H466      1.0  0.29297  0.10857  0.33738  1.0000
  C   C557      1.0  0.28929  0.09916  0.36600  1.0000
  H   H467      1.0  0.25993  0.07744  0.30698  1.0000
  H   H468      1.0  0.10154  0.29032  0.21500  1.0000
  H   H469      1.0  0.24018  0.43396  0.27151  1.0000
  C   C558      1.0  0.26631  0.17623  0.22041  1.0000
  C   C559      1.0  0.39662  0.00101  0.26119  1.0000
  H   H470      1.0  0.39979  0.99061  0.33710  1.0000
  H   H471      1.0  0.31387  0.12498  0.22717  1.0000
  C   C560      1.0  0.40802  0.99276  0.24766  1.0000
  Fe  Fe44      1.0  0.14489  0.44717  0.20505  1.0000
  H   H472      1.0  0.06186  0.23158  0.32597  1.0000
  C   C561      1.0  0.07039  0.31836  0.28725  1.0000
  H   H473      1.0  0.07376  0.37531  0.24249  1.0000
  C   C562      1.0  0.19332  0.36220  0.33940  1.0000
  H   H474      1.0  0.18572  0.16752  0.28130  1.0000
  C   C563      1.0  0.08498  0.14353  0.35954  1.0000
  C   C564      1.0  0.08663  0.14667  0.34110  1.0000
  C   C565      1.0  0.03405  0.34151  0.20498  1.0000
  C   C566      1.0  0.10988  0.45261  0.24501  1.0000
  C   C567      1.0  0.04257  0.35471  0.30562  1.0000
  C   C568      1.0  0.04349  0.31795  0.27040  1.0000
  P   P17       1.0  0.09787  0.18777  0.36618  1.0000
  C   C569      1.0  0.01676  0.27740  0.31765  1.0000
  C   C570      1.0  0.22053  0.40582  0.28682  1.0000
  P   P18       1.0  0.14698  0.37044  0.20819  1.0000
  H   H475      1.0  0.22181  0.09456  0.36904  1.0000
  H   H476      1.0  0.08290  0.13764  0.33528  1.0000
  C   C571      1.0  0.15745  0.38122  0.21895  1.0000
  C   C572      1.0  0.06232  0.30369  0.29195  1.0000
  C   C573      1.0  0.03804  0.33870  0.31576  1.0000
  H   H477      1.0  0.06405  0.46713  0.36252  1.0000
  H   H478      1.0  0.01726  0.38899  0.30929  1.0000
  C   C574      1.0  0.04883  0.30351  0.28366  1.0000
  C   C575      1.0  0.03150  0.29717  0.33265  1.0000
  C   C576      1.0  0.11596  0.35670  0.22370  1.0000
  C   C577      1.0  0.00882  0.27075  0.27556  1.0000
  H   H479      1.0  0.00257  0.29610  0.28283  1.0000
  H   H480      1.0  0.19358  0.44450  0.30866  1.0000
  C   C578      1.0  0.15691  0.33675  0.22847  1.0000
  C   C579      1.0  0.10500  0.44372  0.37358  1.0000
  H   H481      1.0  0.06458  0.31197  0.23715  1.0000
  C   C580      1.0  0.36851  0.09238  0.36734  1.0000
  H   H482      1.0  0.08220  0.25284  0.31656  1.0000
  C   C581      1.0  0.13445  0.17324  0.35936  1.0000
  C   C582      1.0  0.43241  0.02270  0.22281  1.0000
  C   C583      1.0  0.01398  0.38651  0.32369  1.0000
  C   C584      1.0  0.40854  0.12776  0.20138  1.0000
  H   H483      1.0  0.24616  0.09983  0.32601  1.0000
  S   S84       1.0  0.99289  0.36549  0.32104  1.0000
  C   C585      1.0  0.34953  0.98838  0.28399  1.0000
  C   C586      1.0  0.03731  0.08528  0.32839  1.0000
  C   C587      1.0  0.02448  0.10065  0.33080  1.0000
  C   C588      1.0  0.42424  0.01392  0.29780  1.0000
  C   C589      1.0  0.05987  0.10311  0.31405  1.0000
  C   C590      1.0  0.05493  0.08646  0.32016  1.0000
  P   P19       1.0  0.08289  0.10429  0.30377  1.0000
  C   C591      1.0  0.09304  0.08391  0.29569  1.0000
  C   C592      1.0  0.08545  0.07899  0.28399  1.0000
  C   C593      1.0  0.09252  0.06267  0.27867  1.0000
  C   C594      1.0  0.99117  0.32812  0.25999  1.0000
  C   C595      1.0  0.09439  0.10573  0.32005  1.0000
  C   C596      1.0  0.11045  0.11186  0.31441  1.0000
  C   C597      1.0  0.12007  0.11192  0.32687  1.0000
  C   C598      1.0  0.11386  0.10563  0.34498  1.0000
  C   C599      1.0  0.09788  0.09953  0.35070  1.0000
  C   C600      1.0  0.08811  0.09968  0.33830  1.0000
  H   H484      1.0  0.03374  0.07236  0.33348  1.0000
  H   H485      1.0  0.01092  0.09966  0.33732  1.0000
  H   H486      1.0  0.06473  0.07422  0.31917  1.0000
  H   H487      1.0  0.07388  0.08764  0.27925  1.0000
  H   H488      1.0  0.08662  0.05890  0.26969  1.0000
  C   C601      1.0  0.11500  0.43474  0.24357  1.0000
  H   H489      1.0  0.11577  0.11625  0.30039  1.0000
  H   H490      1.0  0.13254  0.11650  0.32251  1.0000
  S   S85       1.0  0.99893  0.17830  0.26139  1.0000
  S   S86       1.0  0.01152  0.98531  0.33305  1.0000
  H   H491      1.0  0.07584  0.09483  0.34302  1.0000
  H   H492      1.0  0.29187  0.13956  0.33842  1.0000
  C   C602      1.0  0.13523  0.19257  0.20585  1.0000
  C   C603      1.0  0.12161  0.20795  0.20539  1.0000
  H   H493      1.0  0.15116  0.46008  0.24201  1.0000
  P   P20       1.0  0.10911  0.21523  0.22569  1.0000
  C   C604      1.0  0.08767  0.20874  0.23222  1.0000
  C   C605      1.0  0.12186  0.20516  0.24294  1.0000
  C   C606      1.0  0.12019  0.18824  0.25341  1.0000
  C   C607      1.0  0.13109  0.17982  0.26577  1.0000
  C   C608      1.0  0.14373  0.18819  0.26770  1.0000
  C   C609      1.0  0.14521  0.20515  0.25766  1.0000
  C   C610      1.0  0.13443  0.21358  0.24521  1.0000
  C   C611      1.0  0.07783  0.20835  0.24972  1.0000
  C   C612      1.0  0.06131  0.20327  0.25492  1.0000
  C   C613      1.0  0.05448  0.19842  0.24275  1.0000
  H   H494      1.0  0.99356  0.18013  0.22725  1.0000
  C   C614      1.0  0.08068  0.20385  0.22002  1.0000
  C   C615      1.0  0.10633  0.23913  0.22213  1.0000
  C   C616      1.0  0.11891  0.24787  0.20934  1.0000
  C   C617      1.0  0.11693  0.26629  0.20657  1.0000
  C   C618      1.0  0.10268  0.27612  0.21683  1.0000
  C   C619      1.0  0.09039  0.26752  0.22992  1.0000
  C   C620      1.0  0.09217  0.24910  0.23259  1.0000
  C   C621      1.0  0.36322  0.18418  0.20082  1.0000
  H   H495      1.0  0.13868  0.18486  0.21832  1.0000
  H   H496      1.0  0.11070  0.18142  0.25187  1.0000
  H   H497      1.0  0.12980  0.16680  0.27391  1.0000
  H   H498      1.0  0.15223  0.18162  0.27719  1.0000
  H   H499      1.0  0.15464  0.21182  0.25966  1.0000
  H   H500      1.0  0.13604  0.22663  0.23739  1.0000
  H   H501      1.0  0.08294  0.21201  0.25935  1.0000
  C   C622      1.0  0.20387  0.47654  0.27740  1.0000
  H   H502      1.0  0.23035  0.47910  0.22677  1.0000
  C   C623      1.0  0.14798  0.38079  0.18493  1.0000
  H   H503      1.0  0.99798  0.26601  0.28560  1.0000
  C   C624      1.0  0.43394  0.99400  0.32384  1.0000
  C   C625      1.0  0.01109  0.30225  0.37193  1.0000
  C   C626      1.0  0.12496  0.37282  0.36805  1.0000
  C   C627      1.0  0.09064  0.27139  0.36050  1.0000
  P   P21       1.0  0.36566  0.16684  0.18897  1.0000
  C   C628      1.0  0.12723  0.05356  0.36986  1.0000
  C   C629      1.0  0.15216  0.39769  0.17802  1.0000
  H   H504      1.0  0.39157  0.18344  0.19630  1.0000
  H   H505      1.0  0.10689  0.22930  0.18826  1.0000
  C   C630      1.0  0.12815  0.39923  0.37563  1.0000
  H   H506      1.0  0.21390  0.33957  0.34651  1.0000
  H   H507      1.0  0.22462  0.35446  0.36441  1.0000
  Fe  Fe45      1.0  0.17942  0.44579  0.17774  1.0000
  H   H508      1.0  0.02944  0.33870  0.36359  1.0000
  C   C631      1.0  0.22418  0.12923  0.37173  1.0000
  H   H509      1.0  0.04230  0.99216  0.34064  1.0000
  S   S87       1.0  0.42588  0.01918  0.37518  1.0000
  C   C632      1.0  0.39354  0.98129  0.33445  1.0000
  H   H510      1.0  0.43587  0.98095  0.33248  1.0000
  H   H511      1.0  0.98925  0.03281  0.36741  1.0000
  H   H512      1.0  0.34285  0.14960  0.17738  1.0000
  C   C633      1.0  0.34247  0.11443  0.37635  1.0000
  Fe  Fe46      1.0  0.45636  0.06632  0.50143  1.0000
  S   S88       1.0  0.45784  0.08931  0.47807  1.0000
  S   S89       1.0  0.42873  0.06224  0.51579  1.0000
  H   H513      1.0  0.32663  0.08487  0.52165  1.0000
  H   H514      1.0  0.42165  0.36450  0.51890  1.0000
  C   C634      1.0  0.37427  0.09114  0.38292  1.0000
  S   S90       1.0  0.47282  0.04557  0.48575  1.0000
  C   C635      1.0  0.43236  0.09192  0.40940  1.0000
  H   H515      1.0  0.10829  0.38393  0.39033  1.0000
  S   S91       1.0  0.35886  0.14345  0.54085  1.0000
  H   H516      1.0  0.99421  0.42239  0.40993  1.0000
  C   C636      1.0  0.04707  0.01006  0.49853  1.0000
  S   S92       1.0  0.31561  0.15668  0.54866  1.0000
  Fe  Fe47      1.0  0.33562  0.13552  0.53587  1.0000
  S   S93       1.0  0.33730  0.12685  0.51046  1.0000
  C   C637      1.0  0.20013  0.99654  0.53922  1.0000
  Fe  Fe48      1.0  0.05714  0.07513  0.38613  1.0000
  C   C638      1.0  0.29676  0.02462  0.55104  1.0000
  H   H517      1.0  0.04030  0.01860  0.47257  1.0000
  H   H518      1.0  0.07887  0.08539  0.41430  1.0000
  S   S94       1.0  0.43137  0.38554  0.54835  1.0000
  S   S95       1.0  0.08908  0.43016  0.37919  1.0000
  H   H519      1.0  0.14057  0.15399  0.40266  1.0000
  C   C639      1.0  0.42079  0.18668  0.49924  1.0000
  C   C640      1.0  0.99071  0.40952  0.41508  1.0000
  H   H520      1.0  0.21188  0.04167  0.38223  1.0000
  C   C641      1.0  0.36197  0.11941  0.42506  1.0000
  C   C642      1.0  0.47770  0.18672  0.51304  1.0000
  Fe  Fe49      1.0  0.41312  0.99546  0.38150  1.0000
  H   H521      1.0  0.48421  0.25407  0.56945  1.0000
  Fe  Fe50      1.0  0.06688  0.03767  0.40810  1.0000
  S   S96       1.0  0.07091  0.02086  0.43514  1.0000
  C   C643      1.0  0.43511  0.18537  0.48454  1.0000
  C   C644      1.0  0.40305  0.07558  0.48114  1.0000
  Fe  Fe51      1.0  0.41159  0.02315  0.40283  1.0000
  H   H522      1.0  0.42969  0.99658  0.50715  1.0000
  S   S97       1.0  0.41855  0.02756  0.42721  1.0000
  Fe  Fe52      1.0  0.37716  0.01570  0.39894  1.0000
  S   S98       1.0  0.34884  0.01532  0.41407  1.0000
  S   S99       1.0  0.40077  0.99817  0.40973  1.0000
  Fe  Fe53      1.0  0.13940  0.04256  0.52763  1.0000
  S   S100      1.0  0.16236  0.01937  0.52546  1.0000
  S   S101      1.0  0.13052  0.06091  0.54725  1.0000
  Fe  Fe54      1.0  0.12559  0.03748  0.49695  1.0000
  S   S102      1.0  0.14725  0.01353  0.49240  1.0000
  S   S103      1.0  0.10603  0.05358  0.47934  1.0000
  Fe  Fe55      1.0  0.14249  0.00538  0.52224  1.0000
  H   H523      1.0  0.99898  0.13751  0.42283  1.0000
  Fe  Fe56      1.0  0.16566  0.02894  0.49593  1.0000
  S   S104      1.0  0.19131  0.02944  0.47552  1.0000
  S   S105      1.0  0.11899  0.02793  0.52670  1.0000
  S   S106      1.0  0.14453  0.05355  0.49821  1.0000
  H   H524      1.0  0.03911  0.45154  0.45771  1.0000
  C   C645      1.0  0.47503  0.28791  0.52630  1.0000
  H   H525      1.0  0.41317  0.06340  0.48164  1.0000
  C   C646      1.0  0.36166  0.13635  0.41399  1.0000
  Fe  Fe57      1.0  0.26514  0.11931  0.46713  1.0000
  S   S107      1.0  0.28258  0.09206  0.46770  1.0000
  S   S108      1.0  0.26626  0.13928  0.48239  1.0000
  Fe  Fe58      1.0  0.24362  0.11422  0.44247  1.0000
  S   S109      1.0  0.25941  0.08659  0.44079  1.0000
  S   S110      1.0  0.21907  0.12738  0.43084  1.0000
  Fe  Fe59      1.0  0.25737  0.08284  0.47028  1.0000
  S   S111      1.0  0.25041  0.05946  0.49188  1.0000
  Fe  Fe60      1.0  0.28305  0.09826  0.43840  1.0000
  S   S112      1.0  0.30833  0.09429  0.41790  1.0000
  S   S113      1.0  0.23978  0.10961  0.47217  1.0000
  S   S114      1.0  0.26747  0.12632  0.43752  1.0000
  C   C647      1.0  0.20847  0.03631  0.48048  1.0000
  C   C648      1.0  0.22118  0.04335  0.46643  1.0000
  C   C649      1.0  0.23426  0.05022  0.46989  1.0000
  C   C650      1.0  0.23513  0.04943  0.48743  1.0000
  C   C651      1.0  0.22324  0.04114  0.50152  1.0000
  C   C652      1.0  0.20957  0.03509  0.49806  1.0000
  H   H526      1.0  0.22033  0.04426  0.45284  1.0000
  H   H527      1.0  0.24356  0.05626  0.45900  1.0000
  H   H528      1.0  0.22423  0.03992  0.51512  1.0000
  H   H529      1.0  0.19991  0.02945  0.50892  1.0000
  H   H530      1.0  0.38340  0.21660  0.56844  1.0000
  C   C653      1.0  0.34099  0.06493  0.44699  1.0000
  C   C654      1.0  0.38395  0.14778  0.47132  1.0000
  H   H531      1.0  0.44852  0.18502  0.48558  1.0000
  H   H532      1.0  0.99506  0.47221  0.41872  1.0000
  H   H533      1.0  0.40086  0.10602  0.38409  1.0000
  H   H534      1.0  0.40129  0.47593  0.56831  1.0000
  H   H535      1.0  0.02183  0.11955  0.43991  1.0000
  C   C655      1.0  0.33608  0.03702  0.41424  1.0000
  C   C656      1.0  0.32102  0.04027  0.42783  1.0000
  C   C657      1.0  0.31190  0.05785  0.42880  1.0000
  C   C658      1.0  0.31788  0.07211  0.41616  1.0000
  C   C659      1.0  0.33230  0.06873  0.40217  1.0000
  C   C660      1.0  0.34130  0.05128  0.40118  1.0000
  H   H536      1.0  0.31677  0.02925  0.43785  1.0000
  H   H537      1.0  0.30063  0.06038  0.43958  1.0000
  Fe  Fe61      1.0  0.04521  0.04420  0.37961  1.0000
  H   H538      1.0  0.23656  0.06410  0.56594  1.0000
  C   C661      1.0  0.08188  0.02939  0.44686  1.0000
  C   C662      1.0  0.08783  0.01878  0.46219  1.0000
  C   C663      1.0  0.09588  0.02578  0.47200  1.0000
  C   C664      1.0  0.09769  0.04354  0.46669  1.0000
  C   C665      1.0  0.09191  0.05402  0.45129  1.0000
  C   C666      1.0  0.08420  0.04694  0.44136  1.0000
  H   H539      1.0  0.08612  0.00517  0.46660  1.0000
  H   H540      1.0  0.10025  0.01759  0.48390  1.0000
  H   H541      1.0  0.09326  0.06775  0.44711  1.0000
  H   H542      1.0  0.07946  0.05526  0.42979  1.0000
  C   C667      1.0  0.00221  0.39468  0.46736  1.0000
  C   C668      1.0  0.26988  0.11522  0.53159  1.0000
  C   C669      1.0  0.22115  0.12773  0.40817  1.0000
  C   C670      1.0  0.20588  0.13316  0.40070  1.0000
  C   C671      1.0  0.21476  0.08456  0.37780  1.0000
  H   H543      1.0  0.24969  0.11882  0.40312  1.0000
  H   H544      1.0  0.19290  0.13674  0.40901  1.0000
  H   H545      1.0  0.17143  0.11950  0.53737  1.0000
  C   C672      1.0  0.39305  0.45114  0.54335  1.0000
  C   C673      1.0  0.43307  0.12443  0.44202  1.0000
  C   C674      1.0  0.42488  0.09806  0.39425  1.0000
  C   C675      1.0  0.42272  0.16730  0.53602  1.0000
  H   H546      1.0  0.36934  0.06314  0.54996  1.0000
  C   C676      1.0  0.39784  0.45521  0.55738  1.0000
  H   H547      1.0  0.39469  0.08829  0.44115  1.0000
  C   C677      1.0  0.23789  0.12299  0.39743  1.0000
  H   H548      1.0  0.41831  0.08950  0.56754  1.0000
  C   C678      1.0  0.01522  0.37800  0.49290  1.0000
  C   C679      1.0  0.40298  0.09112  0.42798  1.0000
  H   H549      1.0  0.34391  0.18777  0.47740  1.0000
  P   P22       1.0  0.48496  0.31547  0.53446  1.0000
  H   H550      1.0  0.10777  0.07946  0.39361  1.0000
  H   H551      1.0  0.34514  0.22349  0.56042  1.0000
  C   C680      1.0  0.31729  0.13014  0.50324  1.0000
  C   C681      1.0  0.31635  0.11968  0.49187  1.0000
  C   C682      1.0  0.30084  0.12253  0.48524  1.0000
  C   C683      1.0  0.28619  0.13589  0.48988  1.0000
  C   C684      1.0  0.28721  0.14649  0.50108  1.0000
  C   C685      1.0  0.30265  0.14350  0.50793  1.0000
  H   H552      1.0  0.32761  0.10933  0.48819  1.0000
  H   H553      1.0  0.30030  0.11445  0.47645  1.0000
  H   H554      1.0  0.27596  0.15690  0.50456  1.0000
  H   H555      1.0  0.30331  0.15171  0.51658  1.0000
  H   H556      1.0  0.40669  0.13896  0.40399  1.0000
  C   C686      1.0  0.44680  0.05023  0.44755  1.0000
  C   C687      1.0  0.43444  0.04144  0.44550  1.0000
  C   C688      1.0  0.43463  0.03849  0.42876  1.0000
  H   H557      1.0  0.36559  0.18822  0.44847  1.0000
  H   H558      1.0  0.35401  0.16467  0.41255  1.0000
  H   H559      1.0  0.44619  0.05285  0.46042  1.0000
  C   C689      1.0  0.44758  0.04401  0.41408  1.0000
  C   C690      1.0  0.40084  0.20413  0.54740  1.0000
  C   C691      1.0  0.41612  0.07566  0.53109  1.0000
  C   C692      1.0  0.42354  0.07850  0.54406  1.0000
  C   C693      1.0  0.41266  0.08778  0.55723  1.0000
  C   C694      1.0  0.39450  0.09476  0.55710  1.0000
  C   C695      1.0  0.38729  0.09247  0.54373  1.0000
  C   C696      1.0  0.39796  0.08256  0.53105  1.0000
  H   H560      1.0  0.43749  0.07301  0.54430  1.0000
  C   C697      1.0  0.03566  0.99530  0.40636  1.0000
  H   H561      1.0  0.37334  0.09791  0.54348  1.0000
  H   H562      1.0  0.39215  0.08034  0.52109  1.0000
  Fe  Fe62      1.0  0.41172  0.40800  0.55938  1.0000
  C   C698      1.0  0.06541  0.19641  0.38985  1.0000
  C   C699      1.0  0.44582  0.21161  0.51912  1.0000
  C   C700      1.0  0.35259  0.04848  0.44601  1.0000
  C   C701      1.0  0.37038  0.04774  0.43733  1.0000
  H   H563      1.0  0.34771  0.03626  0.45138  1.0000
  H   H564      1.0  0.37928  0.03496  0.43639  1.0000
  Fe  Fe63      1.0  0.35538  0.12299  0.56607  1.0000
  H   H565      1.0  0.26990  0.17375  0.55205  1.0000
  C   C702      1.0  0.46202  0.00705  0.47100  1.0000
  C   C703      1.0  0.04386  0.12935  0.42069  1.0000
  H   H566      1.0  0.33701  0.05010  0.50869  1.0000
  H   H567      1.0  0.06226  0.14191  0.39892  1.0000
  H   H568      1.0  0.20620  0.01977  0.54353  1.0000
  C   C704      1.0  0.10622  0.45272  0.38615  1.0000
  H   H569      1.0  0.04623  0.28345  0.37723  1.0000
  C   C705      1.0  0.21804  0.08671  0.55487  1.0000
  H   H570      1.0  0.36682  0.11896  0.48070  1.0000
  C   C706      1.0  0.18493  0.01070  0.56424  1.0000
  H   H571      1.0  0.12737  0.10132  0.38389  1.0000
  H   H572      1.0  0.35799  0.09004  0.49022  1.0000
  H   H573      1.0  0.35471  0.08701  0.52802  1.0000
  H   H574      1.0  0.46990  0.05721  0.40473  1.0000
  H   H575      1.0  0.47505  0.46388  0.42748  1.0000
  C   C707      1.0  0.38183  0.16264  0.45729  1.0000
  H   H576      1.0  0.05988  0.38453  0.40445  1.0000
  C   C708      1.0  0.07540  0.46892  0.43477  1.0000
  C   C709      1.0  0.27517  0.04943  0.41667  1.0000
  C   C710      1.0  0.05140  0.99057  0.47815  1.0000
  C   C711      1.0  0.25678  0.05131  0.41878  1.0000
  H   H577      1.0  0.26697  0.47709  0.51666  1.0000
  Fe  Fe64      1.0  0.33858  0.16219  0.55669  1.0000
  C   C712      1.0  0.01298  0.46370  0.37732  1.0000
  Fe  Fe65      1.0  0.47547  0.06877  0.46294  1.0000
  C   C713      1.0  0.04557  0.00747  0.48226  1.0000
  H   H578      1.0  0.23395  0.06280  0.40669  1.0000
  C   C714      1.0  0.46974  0.99005  0.46721  1.0000
  H   H579      1.0  0.46143  0.16864  0.51382  1.0000
  C   C715      1.0  0.26844  0.10430  0.52102  1.0000
  C   C716      1.0  0.44521  0.46585  0.56709  1.0000
  H   H580      1.0  0.27755  0.07923  0.51340  1.0000
  C   C717      1.0  0.11460  0.10411  0.39294  1.0000
  H   H581      1.0  0.44336  0.18334  0.45693  1.0000
  C   C718      1.0  0.39524  0.10790  0.47570  1.0000
  C   C719      1.0  0.13196  0.14008  0.55917  1.0000
  P   P23       1.0  0.00439  0.40769  0.44480  1.0000
  C   C720      1.0  0.04033  0.07020  0.44592  1.0000
  C   C721      1.0  0.43925  0.14003  0.49013  1.0000
  C   C722      1.0  0.43503  0.13178  0.50802  1.0000
  C   C723      1.0  0.42143  0.12219  0.51381  1.0000
  C   C724      1.0  0.41197  0.12088  0.50177  1.0000
  C   C725      1.0  0.41604  0.12917  0.48377  1.0000
  C   C726      1.0  0.42947  0.13917  0.47812  1.0000
  P   P24       1.0  0.40234  0.12892  0.46890  1.0000
  C   C727      1.0  0.37209  0.14813  0.48784  1.0000
  C   C728      1.0  0.40816  0.09203  0.47590  1.0000
  H   H582      1.0  0.45014  0.14707  0.48562  1.0000
  H   H583      1.0  0.44222  0.13285  0.51745  1.0000
  H   H584      1.0  0.41820  0.11574  0.52767  1.0000
  H   H585      1.0  0.40132  0.11356  0.50660  1.0000
  H   H586      1.0  0.43247  0.14626  0.46447  1.0000
  H   H587      1.0  0.37367  0.13709  0.49905  1.0000
  H   H588      1.0  0.42222  0.09231  0.47222  1.0000
  H   H589      1.0  0.39046  0.13657  0.43529  1.0000
  C   C729      1.0  0.38730  0.46498  0.52972  1.0000
  C   C730      1.0  0.01278  0.13876  0.41790  1.0000
  H   H590      1.0  0.14495  0.19780  0.39060  1.0000
  H   H591      1.0  0.10220  0.16676  0.40158  1.0000
  H   H592      1.0  0.44666  0.08985  0.40816  1.0000
  H   H593      1.0  0.43983  0.13208  0.39683  1.0000
  C   C731      1.0  0.18654  0.15917  0.51070  1.0000
  C   C732      1.0  0.19943  0.15598  0.49546  1.0000
  C   C733      1.0  0.21688  0.14736  0.49698  1.0000
  C   C734      1.0  0.22154  0.14215  0.51367  1.0000
  C   C735      1.0  0.20889  0.14599  0.52894  1.0000
  C   C736      1.0  0.19121  0.15416  0.52740  1.0000
  P   P25       1.0  0.21542  0.13973  0.55029  1.0000
  C   C737      1.0  0.22261  0.11578  0.55494  1.0000
  C   C738      1.0  0.23250  0.15094  0.55058  1.0000
  H   H594      1.0  0.12621  0.14464  0.57157  1.0000
  C   C739      1.0  0.13610  0.08313  0.56505  1.0000
  H   H595      1.0  0.02677  0.37272  0.49901  1.0000
  C   C740      1.0  0.25374  0.17011  0.53572  1.0000
  C   C741      1.0  0.24037  0.16184  0.53514  1.0000
  C   C742      1.0  0.03545  0.15158  0.39515  1.0000
  H   H596      1.0  0.41974  0.33568  0.53996  1.0000
  C   C743      1.0  0.34791  0.15009  0.43952  1.0000
  H   H597      1.0  0.14139  0.99757  0.56271  1.0000
  C   C744      1.0  0.21307  0.10527  0.55085  1.0000
  H   H598      1.0  0.45664  0.12150  0.42127  1.0000
  C   C745      1.0  0.42137  0.08874  0.42627  1.0000
  H   H599      1.0  0.28588  0.09432  0.39468  1.0000
  C   C746      1.0  0.04297  0.44987  0.39270  1.0000
  C   C747      1.0  0.28727  0.10402  0.38229  1.0000
  H   H600      1.0  0.18548  0.06050  0.56634  1.0000
  H   H601      1.0  0.17293  0.16554  0.50957  1.0000
  H   H602      1.0  0.19591  0.15992  0.48248  1.0000
  H   H603      1.0  0.22689  0.14476  0.48520  1.0000
  H   H604      1.0  0.23514  0.13546  0.51456  1.0000
  H   H605      1.0  0.18097  0.15664  0.53900  1.0000
  H   H606      1.0  0.29070  0.99866  0.56267  1.0000
  H   H607      1.0  0.03088  0.46237  0.42825  1.0000
  C   C748      1.0  0.23277  0.07848  0.56267  1.0000
  H   H608      1.0  0.26001  0.17821  0.52371  1.0000
  H   H609      1.0  0.23649  0.16393  0.52256  1.0000
  H   H610      1.0  0.29925  0.08632  0.55524  1.0000
  C   C749      1.0  0.03584  0.46822  0.39009  1.0000
  C   C750      1.0  0.99607  0.32108  0.39327  1.0000
  C   C751      1.0  0.44220  0.12554  0.42429  1.0000
  H   H611      1.0  0.20136  0.11133  0.54515  1.0000
  C   C752      1.0  0.01761  0.15021  0.40169  1.0000
  H   H612      1.0  0.14008  0.06043  0.38724  1.0000
  H   H613      1.0  0.99695  0.36755  0.51618  1.0000
  C   C753      1.0  0.28238  0.04736  0.56837  1.0000
  C   C754      1.0  0.40356  0.18728  0.49716  1.0000
  C   C755      1.0  0.40076  0.18622  0.48083  1.0000
  C   C756      1.0  0.41507  0.18481  0.46633  1.0000
  C   C757      1.0  0.43223  0.18446  0.46817  1.0000
  C   C758      1.0  0.43346  0.14385  0.55968  1.0000
  C   C759      1.0  0.41986  0.13519  0.56081  1.0000
  C   C760      1.0  0.40749  0.14267  0.54984  1.0000
  C   C761      1.0  0.40883  0.15866  0.53757  1.0000
  H   H614      1.0  0.39216  0.18878  0.50809  1.0000
  H   H615      1.0  0.38743  0.18658  0.47949  1.0000
  H   H616      1.0  0.41287  0.18398  0.45368  1.0000
  C   C762      1.0  0.35701  0.06214  0.54714  1.0000
  H   H617      1.0  0.28014  0.06076  0.57041  1.0000
  H   H618      1.0  0.39680  0.13603  0.55089  1.0000
  H   H619      1.0  0.39890  0.16415  0.52946  1.0000
  H   H620      1.0  0.99126  0.44630  0.57294  1.0000
  C   C763      1.0  0.00762  0.33276  0.38488  1.0000
  C   C764      1.0  0.01712  0.38779  0.47537  1.0000
  C   C765      1.0  0.20195  0.08865  0.39276  1.0000
  C   C766      1.0  0.19246  0.07594  0.40398  1.0000
  C   C767      1.0  0.19637  0.05884  0.40024  1.0000
  P   P26       1.0  0.17535  0.08175  0.42284  1.0000
  C   C768      1.0  0.18504  0.08078  0.44138  1.0000
  C   C769      1.0  0.16353  0.10444  0.41674  1.0000
  C   C770      1.0  0.15852  0.11589  0.42885  1.0000
  C   C771      1.0  0.15023  0.13368  0.42382  1.0000
  S   S115      1.0  0.07045  0.02466  0.38492  1.0000
  H   H621      1.0  0.47868  0.35113  0.51096  1.0000
  C   C772      1.0  0.15998  0.11109  0.39957  1.0000
  C   C773      1.0  0.17550  0.07642  0.45894  1.0000
  C   C774      1.0  0.18218  0.07726  0.47328  1.0000
  C   C775      1.0  0.19824  0.08276  0.47023  1.0000
  C   C776      1.0  0.20767  0.08733  0.45284  1.0000
  C   C777      1.0  0.20113  0.08640  0.43843  1.0000
  C   C778      1.0  0.16037  0.06648  0.42890  1.0000
  C   C779      1.0  0.16492  0.04964  0.43967  1.0000
  C   C780      1.0  0.15388  0.03739  0.44388  1.0000
  C   C781      1.0  0.13830  0.04176  0.43722  1.0000
  C   C782      1.0  0.13377  0.05839  0.42631  1.0000
  C   C783      1.0  0.14478  0.07072  0.42209  1.0000
  C   C784      1.0  0.17633  0.98470  0.56127  1.0000
  C   C785      1.0  0.44776  0.00933  0.48543  1.0000
  C   C786      1.0  0.14197  0.19079  0.38205  1.0000
  H   H622      1.0  0.01687  0.10165  0.39123  1.0000
  H   H623      1.0  0.18935  0.04867  0.40857  1.0000
  H   H624      1.0  0.16133  0.11124  0.44207  1.0000
  H   H625      1.0  0.14675  0.14244  0.43315  1.0000
  C   C787      1.0  0.34856  0.13328  0.45066  1.0000
  H   H626      1.0  0.40360  0.22180  0.50308  1.0000
  H   H627      1.0  0.16386  0.10255  0.38997  1.0000
  H   H628      1.0  0.16293  0.07227  0.46165  1.0000
  H   H629      1.0  0.17518  0.07307  0.48677  1.0000
  H   H630      1.0  0.20379  0.08284  0.48130  1.0000
  H   H631      1.0  0.22022  0.09136  0.45054  1.0000
  H   H632      1.0  0.20860  0.09030  0.42509  1.0000
  H   H633      1.0  0.17718  0.04585  0.44459  1.0000
  H   H634      1.0  0.15750  0.02447  0.45226  1.0000
  H   H635      1.0  0.12974  0.03223  0.44051  1.0000
  H   H636      1.0  0.12177  0.06158  0.42104  1.0000
  H   H637      1.0  0.14126  0.08333  0.41330  1.0000
  C   C788      1.0  0.41406  0.13534  0.41458  1.0000
  H   H638      1.0  0.28199  0.11710  0.55222  1.0000
  C   C789      1.0  0.46043  0.99285  0.42945  1.0000
  C   C790      1.0  0.14683  0.14019  0.40666  1.0000
  P   P27       1.0  0.30417  0.05836  0.53553  1.0000
  C   C791      1.0  0.48548  0.46343  0.43416  1.0000
  H   H639      1.0  0.47910  0.42383  0.55457  1.0000
  C   C792      1.0  0.28092  0.10863  0.54397  1.0000
  S   S116      1.0  0.05373  0.10459  0.38394  1.0000
  C   C793      1.0  0.45041  0.35934  0.51341  1.0000
  H   H640      1.0  0.46683  0.01868  0.46275  1.0000
  C   C794      1.0  0.29074  0.09116  0.54558  1.0000
  C   C795      1.0  0.44458  0.45953  0.55244  1.0000
  C   C796      1.0  0.15171  0.12890  0.39456  1.0000
  C   C797      1.0  0.03803  0.99277  0.42374  1.0000
  H   H641      1.0  0.31835  0.03137  0.47224  1.0000
  C   C798      1.0  0.39540  0.09690  0.41280  1.0000
  S   S117      1.0  0.34158  0.19019  0.55542  1.0000
  H   H642      1.0  0.19624  0.17448  0.55787  1.0000
  H   H643      1.0  0.44068  0.11940  0.45243  1.0000
  H   H644      1.0  0.38027  0.24548  0.51521  1.0000
  H   H645      1.0  0.28742  0.03741  0.48976  1.0000
  C   C799      1.0  0.44029  0.19870  0.56598  1.0000
  C   C800      1.0  0.47057  0.44190  0.57284  1.0000
  H   H646      1.0  0.04349  0.09156  0.42319  1.0000
  H   H647      1.0  0.10703  0.14707  0.55044  1.0000
  C   C801      1.0  0.15011  0.13241  0.55531  1.0000
  H   H648      1.0  0.05494  0.44440  0.39808  1.0000
  C   C802      1.0  0.32954  0.04027  0.48967  1.0000
  H   H649      1.0  0.28118  0.04877  0.51724  1.0000
  H   H650      1.0  0.04285  0.00260  0.42749  1.0000
  C   C803      1.0  0.47488  0.12318  0.53432  1.0000
  C   C804      1.0  0.99363  0.39955  0.43186  1.0000
  Fe  Fe66      1.0  0.45048  0.39117  0.56159  1.0000
  H   H651      1.0  0.47238  0.29725  0.51420  1.0000
  C   C805      1.0  0.03581  0.39434  0.42223  1.0000
  H   H652      1.0  0.24912  0.04525  0.43123  1.0000
  C   C806      1.0  0.02767  0.40598  0.43404  1.0000
  C   C807      1.0  0.46142  0.18202  0.51475  1.0000
  H   H653      1.0  0.16773  0.04835  0.55211  1.0000
  C   C808      1.0  0.37647  0.06343  0.42899  1.0000
  C   C809      1.0  0.31565  0.03677  0.48412  1.0000
  H   H654      1.0  0.47715  0.98763  0.50605  1.0000
  C   C810      1.0  0.38032  0.23252  0.54259  1.0000
  H   H655      1.0  0.45195  0.19771  0.55529  1.0000
  S   S118      1.0  0.47811  0.39170  0.54453  1.0000
  C   C811      1.0  0.29470  0.04689  0.50944  1.0000
  C   C812      1.0  0.16173  0.05994  0.55792  1.0000
  C   C813      1.0  0.40491  0.13403  0.43232  1.0000
  C   C814      1.0  0.41437  0.12949  0.44612  1.0000
  H   H656      1.0  0.40685  0.19298  0.55652  1.0000
  C   C815      1.0  0.34924  0.04750  0.55599  1.0000
  C   C816      1.0  0.02581  0.12847  0.42746  1.0000
  C   C817      1.0  0.46978  0.43563  0.55813  1.0000
  C   C818      1.0  0.28510  0.05717  0.40058  1.0000
  H   H657      1.0  0.28174  0.04207  0.42756  1.0000
  C   C819      1.0  0.34827  0.11330  0.39191  1.0000
  H   H658      1.0  0.20986  0.99623  0.52680  1.0000
  H   H659      1.0  0.43951  0.99636  0.41533  1.0000
  H   H660      1.0  0.04283  0.15930  0.47143  1.0000
  H   H661      1.0  0.33967  0.12067  0.40176  1.0000
  H   H662      1.0  0.35629  0.10505  0.45240  1.0000
  H   H663      1.0  0.03025  0.38988  0.46818  1.0000
  C   C820      1.0  0.43268  0.33877  0.53324  1.0000
  C   C821      1.0  0.99459  0.43092  0.44528  1.0000
  H   H664      1.0  0.30568  0.02026  0.53941  1.0000
  C   C822      1.0  0.02029  0.44546  0.37982  1.0000
  C   C823      1.0  0.32598  0.04755  0.50476  1.0000
  C   C824      1.0  0.47717  0.11704  0.51865  1.0000
  H   H665      1.0  0.43187  0.22709  0.55783  1.0000
  S   S119      1.0  0.38741  0.04071  0.39324  1.0000
  H   H666      1.0  0.38343  0.46190  0.51894  1.0000
  H   H667      1.0  0.07757  0.40321  0.41025  1.0000
  H   H668      1.0  0.38106  0.06207  0.49054  1.0000
  C   C825      1.0  0.18925  0.98401  0.54552  1.0000
  C   C826      1.0  0.29349  0.04240  0.55280  1.0000
  C   C827      1.0  0.05376  0.19451  0.40649  1.0000
  C   C828      1.0  0.05960  0.18278  0.42127  1.0000
  C   C829      1.0  0.07712  0.17296  0.41945  1.0000
  C   C830      1.0  0.08879  0.17479  0.40283  1.0000
  H   H669      1.0  0.29928  0.05584  0.39934  1.0000
  H   H670      1.0  0.45940  0.98288  0.39052  1.0000
  C   C831      1.0  0.38775  0.21764  0.55417  1.0000
  H   H671      1.0  0.37016  0.24297  0.54792  1.0000
  H   H672      1.0  0.12401  0.40866  0.38436  1.0000
  C   C832      1.0  0.04799  0.45805  0.44659  1.0000
  C   C833      1.0  0.38600  0.23389  0.52418  1.0000
  H   H673      1.0  0.04015  0.20208  0.40787  1.0000
  H   H674      1.0  0.05051  0.18129  0.43411  1.0000
  H   H675      1.0  0.08160  0.16380  0.43091  1.0000
  C   C834      1.0  0.27854  0.08699  0.52228  1.0000
  C   C835      1.0  0.46504  0.33097  0.52903  1.0000
  H   H676      1.0  0.48857  0.28447  0.56475  1.0000
  C   C836      1.0  0.19796  0.00989  0.54858  1.0000
  H   H677      1.0  0.04131  0.42452  0.38883  1.0000
  C   C837      1.0  0.47639  0.25820  0.54442  1.0000
  P   P28       1.0  0.37159  0.09988  0.41553  1.0000
  Fe  Fe67      1.0  0.31483  0.13540  0.57351  1.0000
  H   H678      1.0  0.44545  0.16627  0.54703  1.0000
  C   C838      1.0  0.28991  0.08027  0.53449  1.0000
  C   C839      1.0  0.35521  0.17679  0.47571  1.0000
  S   S120      1.0  0.43153  0.41514  0.57053  1.0000
  H   H679      1.0  0.42448  0.03714  0.45691  1.0000
  P   P29       1.0  0.42417  0.18829  0.52042  1.0000
  H   H680      1.0  0.11919  0.04585  0.38064  1.0000
  C   C840      1.0  0.43272  0.13140  0.41055  1.0000
  H   H681      1.0  0.03423  0.06340  0.43966  1.0000
  H   H682      1.0  0.25993  0.10940  0.51137  1.0000
  C   C841      1.0  0.36471  0.08001  0.42926  1.0000
  C   C842      1.0  0.42898  0.21519  0.56735  1.0000
  H   H683      1.0  0.26254  0.12882  0.53007  1.0000
  C   C843      1.0  0.44530  0.19442  0.51788  1.0000
  C   C844      1.0  0.48522  0.13476  0.53502  1.0000
  C   C845      1.0  0.07081  0.47514  0.41806  1.0000
  C   C846      1.0  0.10362  0.09171  0.39853  1.0000
  H   H684      1.0  0.43370  0.22150  0.52156  1.0000
  H   H685      1.0  0.41872  0.12277  0.57028  1.0000
  H   H686      1.0  0.09742  0.45124  0.39910  1.0000
  H   H687      1.0  0.11377  0.20148  0.38779  1.0000
  C   C847      1.0  0.45690  0.44446  0.54793  1.0000
  H   H688      1.0  0.33733  0.09319  0.43791  1.0000
  C   C848      1.0  0.46007  0.05271  0.41615  1.0000
  H   H689      1.0  0.34314  0.03727  0.48236  1.0000
  H   H690      1.0  0.46250  0.22933  0.51877  1.0000
  H   H691      1.0  0.44788  0.04167  0.40116  1.0000
  S   S121      1.0  0.33338  0.11378  0.56026  1.0000
  H   H692      1.0  0.04287  0.02321  0.50159  1.0000
  C   C849      1.0  0.19009  0.16447  0.56784  1.0000
  H   H693      1.0  0.44700  0.31458  0.54682  1.0000
  C   C850      1.0  0.46214  0.21618  0.51753  1.0000
  H   H694      1.0  0.06752  0.45582  0.46203  1.0000
  C   C851      1.0  0.40636  0.20521  0.52898  1.0000
  C   C852      1.0  0.05461  0.47312  0.41551  1.0000
  C   C853      1.0  0.19145  0.07250  0.52080  1.0000
  C   C854      1.0  0.20738  0.07820  0.51801  1.0000
  C   C855      1.0  0.20796  0.09611  0.51137  1.0000
  C   C856      1.0  0.19263  0.10834  0.50740  1.0000
  C   C857      1.0  0.17653  0.10274  0.51016  1.0000
  C   C858      1.0  0.17598  0.08475  0.51715  1.0000
  P   P30       1.0  0.15631  0.11894  0.50720  1.0000
  C   C859      1.0  0.14674  0.12710  0.52763  1.0000
  C   C860      1.0  0.16125  0.13719  0.48898  1.0000
  C   C861      1.0  0.15181  0.15468  0.48969  1.0000
  C   C862      1.0  0.15536  0.16871  0.47539  1.0000
  C   C863      1.0  0.16821  0.16538  0.46019  1.0000
  C   C864      1.0  0.17753  0.14803  0.45933  1.0000
  C   C865      1.0  0.17420  0.13399  0.47366  1.0000
  C   C866      1.0  0.12852  0.13498  0.53155  1.0000
  H   H695      1.0  0.45120  0.37214  0.50459  1.0000
  C   C867      1.0  0.99845  0.37506  0.50259  1.0000
  C   C868      1.0  0.46601  0.34736  0.51716  1.0000
  C   C869      1.0  0.20923  0.05475  0.38526  1.0000
  C   C870      1.0  0.14098  0.10878  0.50174  1.0000
  C   C871      1.0  0.12855  0.10065  0.51529  1.0000
  C   C872      1.0  0.11664  0.09287  0.51109  1.0000
  C   C873      1.0  0.11719  0.09291  0.49336  1.0000
  C   C874      1.0  0.12980  0.10059  0.47978  1.0000
  C   C875      1.0  0.14164  0.10849  0.48394  1.0000
  H   H696      1.0  0.19102  0.05857  0.52595  1.0000
  H   H697      1.0  0.21934  0.06879  0.52103  1.0000
  H   H698      1.0  0.22033  0.10045  0.50940  1.0000
  H   H699      1.0  0.19328  0.12218  0.50251  1.0000
  H   H700      1.0  0.16365  0.08010  0.51990  1.0000
  H   H701      1.0  0.14170  0.15756  0.50124  1.0000
  H   H702      1.0  0.14812  0.18218  0.47606  1.0000
  H   H703      1.0  0.17103  0.17620  0.44907  1.0000
  H   H704      1.0  0.18744  0.14546  0.44751  1.0000
  H   H705      1.0  0.18165  0.12063  0.47265  1.0000
  H   H706      1.0  0.11997  0.13601  0.52251  1.0000
  H   H707      1.0  0.34332  0.13219  0.46484  1.0000
  C   C876      1.0  0.35572  0.11795  0.44351  1.0000
  C   C877      1.0  0.05076  0.14046  0.45413  1.0000
  H   H708      1.0  0.34213  0.16187  0.44515  1.0000
  H   H709      1.0  0.12834  0.09981  0.52918  1.0000
  H   H710      1.0  0.10755  0.08604  0.52171  1.0000
  H   H711      1.0  0.10847  0.08615  0.49025  1.0000
  H   H712      1.0  0.13075  0.09981  0.46613  1.0000
  H   H713      1.0  0.15154  0.11394  0.47327  1.0000
  C   C878      1.0  0.03783  0.41638  0.43739  1.0000
  H   H714      1.0  0.99269  0.37393  0.44994  1.0000
  H   H715      1.0  0.39014  0.06244  0.42163  1.0000
  H   H716      1.0  0.03186  0.42532  0.44655  1.0000
  C   C879      1.0  0.06396  0.46048  0.44906  1.0000
  S   S122      1.0  0.47962  0.06956  0.51090  1.0000
  S   S123      1.0  0.08285  0.05816  0.39253  1.0000
  C   C880      1.0  0.05376  0.39330  0.41378  1.0000
  H   H717      1.0  0.45620  0.43926  0.53683  1.0000
  C   C881      1.0  0.17391  0.99815  0.57066  1.0000
  S   S124      1.0  0.39426  0.42892  0.54251  1.0000
  H   H718      1.0  0.02856  0.98457  0.38766  1.0000
  C   C882      1.0  0.04563  0.08612  0.43665  1.0000
  H   H719      1.0  0.07339  0.26287  0.38546  1.0000
  C   C883      1.0  0.14595  0.08989  0.57306  1.0000
  C   C884      1.0  0.43375  0.35504  0.52144  1.0000
  C   C885      1.0  0.44822  0.32683  0.53713  1.0000
  H   H720      1.0  0.11133  0.99074  0.52584  1.0000
  C   C886      1.0  0.04339  0.46422  0.42987  1.0000
  C   C887      1.0  0.06373  0.40381  0.41706  1.0000
  C   C888      1.0  0.05580  0.41530  0.42890  1.0000
  C   C889      1.0  0.29824  0.04014  0.49399  1.0000
  C   C890      1.0  0.24827  0.06112  0.40489  1.0000
  C   C891      1.0  0.30851  0.05096  0.51480  1.0000
  S   S125      1.0  0.48105  0.14326  0.55439  1.0000
  C   C892      1.0  0.35773  0.16249  0.48996  1.0000
  H   H721      1.0  0.03840  0.00719  0.39669  1.0000
  C   C893      1.0  0.05183  0.07104  0.47102  1.0000
  C   C894      1.0  0.04346  0.06266  0.46307  1.0000
  C   C895      1.0  0.05389  0.09478  0.44462  1.0000
  C   C896      1.0  0.05706  0.08701  0.46186  1.0000
  P   P31       1.0  0.06088  0.11528  0.43248  1.0000
  C   C897      1.0  0.08183  0.11083  0.41689  1.0000
  C   C898      1.0  0.15747  0.12588  0.53967  1.0000
  C   C899      1.0  0.09287  0.12333  0.41107  1.0000
  C   C900      1.0  0.10909  0.12003  0.39905  1.0000
  S   S126      1.0  0.38090  0.10609  0.57379  1.0000
  H   H722      1.0  0.34834  0.16233  0.50264  1.0000
  C   C901      1.0  0.16375  0.08185  0.57360  1.0000
  C   C902      1.0  0.06412  0.12662  0.44804  1.0000
  C   C903      1.0  0.07998  0.12123  0.45457  1.0000
  C   C904      1.0  0.08245  0.12959  0.46697  1.0000
  C   C905      1.0  0.06911  0.14338  0.47296  1.0000
  C   C906      1.0  0.05329  0.14881  0.46654  1.0000
  C   C907      1.0  0.45358  0.99143  0.41541  1.0000
  H   H723      1.0  0.05495  0.06479  0.48402  1.0000
  H   H724      1.0  0.03993  0.05002  0.46996  1.0000
  H   H725      1.0  0.06393  0.09288  0.46822  1.0000
  H   H726      1.0  0.32709  0.06557  0.45347  1.0000
  H   H727      1.0  0.08885  0.13567  0.41573  1.0000
  C   C908      1.0  0.23769  0.14916  0.56668  1.0000
  H   H728      1.0  0.40184  0.44472  0.56817  1.0000
  H   H729      1.0  0.15839  0.13078  0.56480  1.0000
  H   H730      1.0  0.42717  0.08431  0.43800  1.0000
  H   H731      1.0  0.09027  0.11022  0.45042  1.0000
  H   H732      1.0  0.09456  0.12511  0.47221  1.0000
  H   H733      1.0  0.07092  0.14964  0.48280  1.0000
  Fe  Fe68      1.0  0.48248  0.09087  0.48604  1.0000
  C   C909      1.0  0.08725  0.09506  0.41038  1.0000
  S   S127      1.0  0.04070  0.05578  0.40390  1.0000
  H   H734      1.0  0.19924  0.10180  0.39548  1.0000
  C   C910      1.0  0.43486  0.15985  0.54743  1.0000
  H   H735      1.0  0.02835  0.38614  0.41935  1.0000
  C   C911      1.0  0.47807  0.20373  0.51452  1.0000
  C   C912      1.0  0.39908  0.22035  0.51737  1.0000
  H   H736      1.0  0.21009  0.07871  0.55246  1.0000
  C   C913      1.0  0.19665  0.14635  0.56745  1.0000
  H   H737      1.0  0.06360  0.42349  0.43128  1.0000
  H   H738      1.0  0.39133  0.16341  0.44477  1.0000
  H   H739      1.0  0.46506  0.11894  0.54588  1.0000
  C   C914      1.0  0.14393  0.06829  0.55728  1.0000
  C   C915      1.0  0.34691  0.08065  0.43831  1.0000
  C   C916      1.0  0.37201  0.09057  0.48602  1.0000
  C   C917      1.0  0.38498  0.07484  0.48623  1.0000
  C   C918      1.0  0.36736  0.17695  0.45942  1.0000
  C   C919      1.0  0.33322  0.04623  0.55253  1.0000
  C   C920      1.0  0.37711  0.10704  0.48070  1.0000
  H   H740      1.0  0.45144  0.99906  0.43999  1.0000
  C   C921      1.0  0.17168  0.06673  0.56610  1.0000
  C   C922      1.0  0.12117  0.14137  0.54729  1.0000
  C   C923      1.0  0.45956  0.05604  0.43285  1.0000
  C   C924      1.0  0.28695  0.12155  0.38276  1.0000
  H   H741      1.0  0.11151  0.99438  0.56263  1.0000
  H   H742      1.0  0.38616  0.08142  0.38564  1.0000
  C   C925      1.0  0.48103  0.29317  0.53893  1.0000
  H   H743      1.0  0.25579  0.47353  0.54938  1.0000
  S   S128      1.0  0.47410  0.06854  0.43485  1.0000
  C   C926      1.0  0.32488  0.05967  0.54018  1.0000
  C   C927      1.0  0.20737  0.13381  0.38250  1.0000
  C   C928      1.0  0.25924  0.16772  0.55167  1.0000
  H   H744      1.0  0.46656  0.34003  0.55927  1.0000
  H   H745      1.0  0.36677  0.13772  0.39977  1.0000
  C   C929      1.0  0.23940  0.12400  0.37921  1.0000
  C   C930      1.0  0.23719  0.10735  0.56315  1.0000
  H   H746      1.0  0.46877  0.26630  0.51896  1.0000
  H   H747      1.0  0.06050  0.20545  0.37862  1.0000
  C   C931      1.0  0.05408  0.99563  0.51084  1.0000
  C   C932      1.0  0.99779  0.30584  0.38678  1.0000
  C   C933      1.0  0.47291  0.27043  0.52896  1.0000
  C   C934      1.0  0.33285  0.07429  0.53123  1.0000
  H   H748      1.0  0.43442  0.46617  0.54468  1.0000
  H   H749      1.0  0.46916  0.10809  0.51819  1.0000
  H   H750      1.0  0.03831  0.14466  0.44955  1.0000
  H   H751      1.0  0.99749  0.98554  0.39406  1.0000
  H   H752      1.0  0.42341  0.47600  0.42128  1.0000
  H   H753      1.0  0.33669  0.07962  0.39217  1.0000
  C   C935      1.0  0.04852  0.14116  0.40457  1.0000
  C   C936      1.0  0.39735  0.47294  0.55751  1.0000
  C   C937      1.0  0.25107  0.15743  0.56716  1.0000
  H   H754      1.0  0.35229  0.04890  0.39022  1.0000
  H   H755      1.0  0.00610  0.34475  0.38971  1.0000
  C   C938      1.0  0.48163  0.26353  0.55740  1.0000
  C   C939      1.0  0.47912  0.33261  0.56285  1.0000
  C   C940      1.0  0.28837  0.01226  0.56426  1.0000
  H   H756      1.0  0.05516  0.99751  0.52354  1.0000
  H   H757      1.0  0.11967  0.47051  0.39177  1.0000
  C   C941      1.0  0.34882  0.07553  0.53476  1.0000
  H   H758      1.0  0.25368  0.08250  0.57288  1.0000
  C   C942      1.0  0.40641  0.10090  0.39595  1.0000
  C   C943      1.0  0.34367  0.19668  0.57442  1.0000
  C   C944      1.0  0.08304  0.18655  0.38786  1.0000
  H   H759      1.0  0.24480  0.11482  0.56675  1.0000
  C   C945      1.0  0.01863  0.11335  0.38091  1.0000
  H   H760      1.0  0.44313  0.13811  0.56815  1.0000
  H   H761      1.0  0.44197  0.02253  0.48825  1.0000
  C   C946      1.0  0.25821  0.06876  0.38872  1.0000
  H   H762      1.0  0.11736  0.12983  0.39438  1.0000
  C   C947      1.0  0.13194  0.99584  0.57523  1.0000
  H   H763      1.0  0.03926  0.16009  0.38235  1.0000
  H   H764      1.0  0.14912  0.13392  0.38125  1.0000
  H   H765      1.0  0.00763  0.15765  0.39394  1.0000
  C   C948      1.0  0.03528  0.43857  0.38751  1.0000
  C   C949      1.0  0.35456  0.15164  0.42120  1.0000
  H   H766      1.0  0.12232  0.08951  0.56481  1.0000
  C   C950      1.0  0.99898  0.44414  0.43026  1.0000
  C   C951      1.0  0.24235  0.08883  0.56672  1.0000
  H   H767      1.0  0.28538  0.12511  0.39546  1.0000
  H   H768      1.0  0.25138  0.07642  0.37821  1.0000
  C   C952      1.0  0.99171  0.46214  0.43043  1.0000
  H   H769      1.0  0.44912  0.47248  0.50753  1.0000
  C   C953      1.0  0.36452  0.10206  0.39504  1.0000
  H   H770      1.0  0.44111  0.47530  0.44305  1.0000
  H   H771      1.0  0.32737  0.03483  0.55957  1.0000
  C   C954      1.0  0.48411  0.28089  0.55463  1.0000
  H   H772      1.0  0.99081  0.12150  0.37939  1.0000
  H   H773      1.0  0.46957  0.47336  0.47823  1.0000
  H   H774      1.0  0.00813  0.44055  0.41843  1.0000
  C   C955      1.0  0.02080  0.47509  0.38227  1.0000
  C   C956      1.0  0.27676  0.06658  0.38632  1.0000
  H   H775      1.0  0.18353  0.02116  0.57121  1.0000
  C   C957      1.0  0.11476  0.99444  0.57507  1.0000
  C   C958      1.0  0.12434  0.19277  0.38048  1.0000
  C   C959      1.0  0.11884  0.46357  0.38205  1.0000
  H   H776      1.0  0.08758  0.15304  0.38137  1.0000
  H   H777      1.0  0.08785  0.47079  0.43662  1.0000
  H   H778      1.0  0.47521  0.24452  0.54629  1.0000
  C   C960      1.0  0.46482  0.98386  0.40139  1.0000
  C   C961      1.0  0.44084  0.99472  0.49605  1.0000
  C   C962      1.0  0.34547  0.21414  0.57298  1.0000
  H   H779      1.0  0.99937  0.47661  0.51638  1.0000
  H   H780      1.0  0.19558  0.13789  0.37680  1.0000
  H   H781      1.0  0.05012  0.98900  0.46546  1.0000
  H   H782      1.0  0.43343  0.10059  0.38120  1.0000
  Fe  Fe69      1.0  0.42238  0.36826  0.57469  1.0000
  H   H783      1.0  0.35561  0.03718  0.56562  1.0000
  H   H784      1.0  0.43549  0.47744  0.57066  1.0000
  C   C963      1.0  0.11941  0.38517  0.37912  1.0000
  C   C964      1.0  0.48484  0.47720  0.44254  1.0000
  C   C965      1.0  0.47866  0.98645  0.42963  1.0000
  C   C966      1.0  0.02985  0.98250  0.40135  1.0000
  P   P32       1.0  0.48768  0.98744  0.44799  1.0000
  H   H785      1.0  0.08875  0.98233  0.42181  1.0000
  S   S129      1.0  0.48880  0.18667  0.56184  1.0000
  C   C967      1.0  0.98992  0.38237  0.43748  1.0000
  H   H786      1.0  0.37579  0.16005  0.57630  1.0000
  C   C968      1.0  0.47102  0.14442  0.61151  1.0000
  Fe  Fe70      1.0  0.36177  0.23736  0.62230  1.0000
  S   S130      1.0  0.37485  0.25553  0.59880  1.0000
  S   S131      1.0  0.35050  0.21366  0.62298  1.0000
  Fe  Fe71      1.0  0.37070  0.25320  0.64943  1.0000
  S   S132      1.0  0.38524  0.27214  0.62826  1.0000
  S   S133      1.0  0.36553  0.25110  0.67937  1.0000
  Fe  Fe72      1.0  0.36257  0.27696  0.61460  1.0000
  S   S134      1.0  0.35341  0.30588  0.60276  1.0000
  Fe  Fe73      1.0  0.39666  0.24959  0.61395  1.0000
  S   S135      1.0  0.42385  0.24795  0.59638  1.0000
  S   S136      1.0  0.34691  0.25950  0.63683  1.0000
  S   S137      1.0  0.38466  0.22982  0.63645  1.0000
  Fe  Fe74      1.0  0.42194  0.39592  0.59507  1.0000
  S   S138      1.0  0.41450  0.40036  0.62318  1.0000
  S   S139      1.0  0.44277  0.37247  0.58732  1.0000
  Fe  Fe75      1.0  0.37494  0.31845  0.73359  1.0000
  S   S140      1.0  0.34774  0.33460  0.74291  1.0000
  S   S141      1.0  0.38521  0.31089  0.70647  1.0000
  Fe  Fe76      1.0  0.36246  0.35137  0.75037  1.0000
  S   S142      1.0  0.35410  0.38129  0.74424  1.0000
  S   S143      1.0  0.38945  0.33685  0.73874  1.0000
  Fe  Fe77      1.0  0.22402  0.07122  0.61797  1.0000
  S   S144      1.0  0.20346  0.09642  0.61360  1.0000
  S   S145      1.0  0.25390  0.06800  0.60958  1.0000
  Fe  Fe78      1.0  0.19637  0.04852  0.63536  1.0000
  S   S146      1.0  0.17336  0.07178  0.63267  1.0000
  S   S147      1.0  0.19537  0.01965  0.64695  1.0000
  Fe  Fe79      1.0  0.18906  0.08000  0.60512  1.0000
  H   H787      1.0  0.13041  0.03016  0.58971  1.0000
  Fe  Fe80      1.0  0.18954  0.08614  0.64140  1.0000
  S   S148      1.0  0.17480  0.10365  0.66118  1.0000
  S   S149      1.0  0.21094  0.05568  0.60705  1.0000
  S   S150      1.0  0.21123  0.06211  0.64652  1.0000
  Fe  Fe81      1.0  0.20207  0.14103  0.72782  1.0000
  C   C969      1.0  0.31716  0.47280  0.62772  1.0000
  S   S151      1.0  0.21644  0.13375  0.70124  1.0000
  S   S152      1.0  0.19812  0.16830  0.73332  1.0000
  C   C970      1.0  0.41549  0.24323  0.65806  1.0000
  H   H788      1.0  0.07317  0.12123  0.75905  1.0000
  Fe  Fe82      1.0  0.42113  0.46779  0.67183  1.0000
  S   S153      1.0  0.39839  0.45643  0.69026  1.0000
  S   S154      1.0  0.42817  0.46747  0.64245  1.0000
  H   H789      1.0  0.09188  0.17322  0.75634  1.0000
  S   S155      1.0  0.40826  0.46960  0.72199  1.0000
  H   H790      1.0  0.48145  0.40584  0.65340  1.0000
  Fe  Fe83      1.0  0.41697  0.44578  0.70928  1.0000
  S   S156      1.0  0.42042  0.41769  0.72528  1.0000
  S   S157      1.0  0.33653  0.14216  0.58232  1.0000
  S   S158      1.0  0.44051  0.45533  0.68998  1.0000
  Fe  Fe84      1.0  0.43024  0.48021  0.70113  1.0000
  C   C971      1.0  0.47623  0.45342  0.62852  1.0000
  C   C972      1.0  0.18680  0.11159  0.67221  1.0000
  C   C973      1.0  0.17732  0.12065  0.68590  1.0000
  C   C974      1.0  0.18631  0.12730  0.69502  1.0000
  C   C975      1.0  0.20490  0.12484  0.69056  1.0000
  C   C976      1.0  0.21446  0.11538  0.67716  1.0000
  C   C977      1.0  0.20544  0.10883  0.66791  1.0000
  H   H791      1.0  0.16298  0.12233  0.68957  1.0000
  H   H792      1.0  0.17883  0.13442  0.70542  1.0000
  H   H793      1.0  0.22888  0.11314  0.67388  1.0000
  H   H794      1.0  0.21289  0.10162  0.65754  1.0000
  H   H795      1.0  0.01696  0.22014  0.73938  1.0000
  C   C978      1.0  0.13604  0.00852  0.71578  1.0000
  P   P33       1.0  0.35149  0.46762  0.63428  1.0000
  H   H796      1.0  0.19868  0.17979  0.68967  1.0000
  H   H797      1.0  0.12605  0.05837  0.59885  1.0000
  C   C979      1.0  0.36723  0.41295  0.61850  1.0000
  H   H798      1.0  0.32890  0.25047  0.67849  1.0000
  C   C980      1.0  0.17483  0.01359  0.64983  1.0000
  C   C981      1.0  0.15878  0.02615  0.65148  1.0000
  C   C982      1.0  0.14262  0.02116  0.65308  1.0000
  C   C983      1.0  0.14238  0.00347  0.65369  1.0000
  H   H799      1.0  0.44638  0.30221  0.64750  1.0000
  C   C984      1.0  0.17456  0.99591  0.65034  1.0000
  H   H800      1.0  0.15881  0.03978  0.65124  1.0000
  H   H801      1.0  0.13027  0.03099  0.65403  1.0000
  H   H802      1.0  0.44593  0.27800  0.69547  1.0000
  H   H803      1.0  0.21929  0.17904  0.59109  1.0000
  C   C985      1.0  0.17403  0.13889  0.59377  1.0000
  C   C986      1.0  0.37183  0.39202  0.74090  1.0000
  C   C987      1.0  0.37018  0.40999  0.73236  1.0000
  C   C988      1.0  0.38496  0.41813  0.72770  1.0000
  C   C989      1.0  0.40124  0.40846  0.73204  1.0000
  C   C990      1.0  0.40247  0.39090  0.74163  1.0000
  C   C991      1.0  0.38791  0.38258  0.74582  1.0000
  H   H804      1.0  0.35770  0.41737  0.72867  1.0000
  H   H805      1.0  0.38375  0.43182  0.72071  1.0000
  H   H806      1.0  0.12625  0.99525  0.61939  1.0000
  H   H807      1.0  0.29084  0.47717  0.62241  1.0000
  C   C992      1.0  0.41665  0.42015  0.62781  1.0000
  C   C993      1.0  0.42272  0.43383  0.61438  1.0000
  C   C994      1.0  0.42565  0.44868  0.61892  1.0000
  C   C995      1.0  0.42291  0.44968  0.63685  1.0000
  C   C996      1.0  0.41644  0.43624  0.65014  1.0000
  C   C997      1.0  0.41295  0.42178  0.64563  1.0000
  H   H808      1.0  0.42521  0.43299  0.60056  1.0000
  H   H809      1.0  0.43014  0.45934  0.60858  1.0000
  H   H810      1.0  0.41449  0.43667  0.66398  1.0000
  H   H811      1.0  0.40798  0.41154  0.65615  1.0000
  C   C998      1.0  0.37045  0.26801  0.68700  1.0000
  C   C999      1.0  0.37900  0.28103  0.67509  1.0000
  C   C1000     1.0  0.38320  0.29410  0.68134  1.0000
  C   C1001     1.0  0.37877  0.29448  0.69953  1.0000
  C   C1002     1.0  0.36984  0.28173  0.71151  1.0000
  C   C1003     1.0  0.36579  0.26845  0.70525  1.0000
  H   H812      1.0  0.38233  0.28116  0.66103  1.0000
  H   H813      1.0  0.38960  0.30418  0.67192  1.0000
  H   H814      1.0  0.36634  0.28191  0.72558  1.0000
  H   H815      1.0  0.35908  0.25849  0.71458  1.0000
  C   C1004     1.0  0.37222  0.31584  0.59446  1.0000
  C   C1005     1.0  0.38913  0.30530  0.58982  1.0000
  C   C1006     1.0  0.15531  0.01842  0.59888  1.0000
  H   H816      1.0  0.45691  0.41370  0.59465  1.0000
  C   C1007     1.0  0.26579  0.99680  0.74015  1.0000
  C   C1008     1.0  0.37054  0.33418  0.59285  1.0000
  C   C1009     1.0  0.11209  0.18981  0.76967  1.0000
  H   H817      1.0  0.17618  0.04093  0.61558  1.0000
  C   C1010     1.0  0.35398  0.41578  0.63357  1.0000
  H   H818      1.0  0.35748  0.34242  0.59624  1.0000
  C   C1011     1.0  0.44090  0.22948  0.60103  1.0000
  C   C1012     1.0  0.45704  0.22814  0.58863  1.0000
  H   H819      1.0  0.14899  0.06415  0.61151  1.0000
  C   C1013     1.0  0.46971  0.20131  0.60766  1.0000
  C   C1014     1.0  0.45360  0.20271  0.62029  1.0000
  C   C1015     1.0  0.43908  0.21674  0.61690  1.0000
  C   C1016     1.0  0.00550  0.21946  0.76721  1.0000
  C   C1017     1.0  0.00419  0.04824  0.76870  1.0000
  H   H820      1.0  0.45230  0.19284  0.63254  1.0000
  H   H821      1.0  0.42663  0.21781  0.62654  1.0000
  C   C1018     1.0  0.27800  0.11738  0.59484  1.0000
  C   C1019     1.0  0.09104  0.98780  0.76220  1.0000
  C   C1020     1.0  0.16938  0.05311  0.68773  1.0000
  C   C1021     1.0  0.26280  0.08723  0.60363  1.0000
  C   C1022     1.0  0.25214  0.10358  0.60669  1.0000
  C   C1023     1.0  0.25974  0.11861  0.60234  1.0000
  H   H822      1.0  0.23815  0.10455  0.61281  1.0000
  H   H823      1.0  0.25150  0.13112  0.60516  1.0000
  C   C1024     1.0  0.40426  0.31290  0.58403  1.0000
  H   H824      1.0  0.35453  0.45107  0.70785  1.0000
  C   C1025     1.0  0.34785  0.21954  0.58765  1.0000
  C   C1026     1.0  0.34824  0.20752  0.60393  1.0000
  C   C1027     1.0  0.34599  0.19021  0.60549  1.0000
  C   C1028     1.0  0.34372  0.18482  0.59084  1.0000
  H   H825      1.0  0.34929  0.23301  0.58636  1.0000
  H   H826      1.0  0.34614  0.18087  0.61807  1.0000
  H   H827      1.0  0.21450  0.98476  0.67428  1.0000
  H   H828      1.0  0.10843  0.19716  0.75720  1.0000
  C   C1029     1.0  0.03601  0.26848  0.74092  1.0000
  C   C1030     1.0  0.30977  0.24728  0.70325  1.0000
  H   H829      1.0  0.37485  0.43201  0.68746  1.0000
  H   H830      1.0  0.01865  0.35340  0.73894  1.0000
  H   H831      1.0  0.26502  0.27864  0.74528  1.0000
  H   H832      1.0  0.44157  0.46511  0.73452  1.0000
  C   C1031     1.0  0.45399  0.29736  0.59206  1.0000
  C   C1032     1.0  0.26759  0.12854  0.64118  1.0000
  C   C1033     1.0  0.27403  0.11086  0.64877  1.0000
  C   C1034     1.0  0.27295  0.10572  0.66716  1.0000
  C   C1035     1.0  0.26544  0.11831  0.67791  1.0000
  C   C1036     1.0  0.25910  0.13605  0.67029  1.0000
  H   H833      1.0  0.26791  0.13215  0.62706  1.0000
  H   H834      1.0  0.27942  0.10108  0.64037  1.0000
  H   H835      1.0  0.27752  0.09192  0.67310  1.0000
  H   H836      1.0  0.26389  0.11423  0.69226  1.0000
  C   C1037     1.0  0.15835  0.99078  0.65253  1.0000
  H   H837      1.0  0.20647  0.13437  0.63219  1.0000
  H   H838      1.0  0.19478  0.98667  0.59885  1.0000
  H   H839      1.0  0.07165  0.99603  0.74545  1.0000
  H   H840      1.0  0.34217  0.17143  0.59228  1.0000
  H   H841      1.0  0.09595  0.99298  0.61898  1.0000
  C   C1038     1.0  0.38140  0.18414  0.65093  1.0000
  C   C1039     1.0  0.28098  0.08605  0.59583  1.0000
  S   S159      1.0  0.48766  0.18343  0.61124  1.0000
  H   H842      1.0  0.14062  0.00089  0.69037  1.0000
  C   C1040     1.0  0.45420  0.15567  0.61221  1.0000
  C   C1041     1.0  0.37773  0.39413  0.67721  1.0000
  H   H843      1.0  0.33313  0.47759  0.69620  1.0000
  C   C1042     1.0  0.36519  0.44338  0.68242  1.0000
  C   C1043     1.0  0.37506  0.42692  0.60765  1.0000
  H   H844      1.0  0.37170  0.39987  0.61534  1.0000
  C   C1044     1.0  0.46426  0.38873  0.61204  1.0000
  C   C1045     1.0  0.46740  0.40492  0.60104  1.0000
  C   C1046     1.0  0.10191  0.27094  0.77070  1.0000
  H   H845      1.0  0.17983  0.01186  0.60874  1.0000
  H   H846      1.0  0.98958  0.32358  0.74944  1.0000
  S   S160      1.0  0.28741  0.13608  0.59096  1.0000
  C   C1047     1.0  0.17550  0.16973  0.58105  1.0000
  C   C1048     1.0  0.16280  0.99332  0.73845  1.0000
  H   H847      1.0  0.45144  0.38527  0.61420  1.0000
  H   H848      1.0  0.35856  0.38770  0.59127  1.0000
  C   C1049     1.0  0.28849  0.22091  0.74510  1.0000
  C   C1050     1.0  0.10182  0.99324  0.59083  1.0000
  C   C1051     1.0  0.44487  0.47447  0.74024  1.0000
  C   C1052     1.0  0.08277  0.09470  0.75427  1.0000
  C   C1053     1.0  0.46113  0.27073  0.62185  1.0000
  C   C1054     1.0  0.18712  0.02961  0.77122  1.0000
  C   C1055     1.0  0.45043  0.22339  0.65529  1.0000
  C   C1056     1.0  0.43601  0.21486  0.66254  1.0000
  C   C1057     1.0  0.41854  0.22479  0.66397  1.0000
  P   P34       1.0  0.48808  0.43076  0.58503  1.0000
  H   H849      1.0  0.01815  0.38477  0.73794  1.0000
  C   C1058     1.0  0.29832  0.24990  0.76245  1.0000
  H   H850      1.0  0.38456  0.35585  0.58611  1.0000
  C   C1059     1.0  0.05298  0.18296  0.74201  1.0000
  C   C1060     1.0  0.39812  0.13934  0.61713  1.0000
  H   H851      1.0  0.07052  0.25404  0.76191  1.0000
  H   H852      1.0  0.46383  0.21538  0.65416  1.0000
  H   H853      1.0  0.43842  0.20054  0.66686  1.0000
  H   H854      1.0  0.40731  0.21827  0.66953  1.0000
  H   H855      1.0  0.47584  0.34640  0.58389  1.0000
  C   C1061     1.0  0.36995  0.44369  0.61201  1.0000
  C   C1062     1.0  0.35043  0.42658  0.76880  1.0000
  C   C1063     1.0  0.38320  0.39104  0.69328  1.0000
  C   C1064     1.0  0.22519  0.14755  0.63632  1.0000
  C   C1065     1.0  0.35243  0.46264  0.65761  1.0000
  H   H856      1.0  0.37418  0.43966  0.65550  1.0000
  C   C1066     1.0  0.43695  0.36125  0.71698  1.0000
  C   C1067     1.0  0.20742  0.07356  0.74200  1.0000
  H   H857      1.0  0.23166  0.14107  0.57884  1.0000
  C   C1068     1.0  0.23472  0.16130  0.62961  1.0000
  C   C1069     1.0  0.44817  0.28146  0.59548  1.0000
  H   H858      1.0  0.46391  0.43863  0.61784  1.0000
  C   C1070     1.0  0.29036  0.19535  0.60201  1.0000
  C   C1071     1.0  0.03175  0.28437  0.72883  1.0000
  C   C1072     1.0  0.31590  0.27190  0.75856  1.0000
  H   H859      1.0  0.46551  0.45439  0.64016  1.0000
  S   S161      1.0  0.08140  0.00520  0.77380  1.0000
  C   C1073     1.0  0.47138  0.21410  0.59187  1.0000
  C   C1074     1.0  0.28252  0.16712  0.61781  1.0000
  H   H860      1.0  0.04981  0.26191  0.74083  1.0000
  C   C1075     1.0  0.47335  0.27925  0.68323  1.0000
  H   H861      1.0  0.45270  0.16913  0.61383  1.0000
  H   H862      1.0  0.12672  0.01830  0.74035  1.0000
  Fe  Fe85      1.0  0.38858  0.31959  0.76611  1.0000
  H   H863      1.0  0.46986  0.31942  0.64280  1.0000
  C   C1076     1.0  0.27689  0.01746  0.57947  1.0000
  H   H864      1.0  0.00135  0.46106  0.72532  1.0000
  H   H865      1.0  0.16792  0.12886  0.60382  1.0000
  C   C1077     1.0  0.17661  0.99574  0.74505  1.0000
  C   C1078     1.0  0.23045  0.25059  0.74863  1.0000
  H   H866      1.0  0.32029  0.28868  0.73254  1.0000
  H   H867      1.0  0.44598  0.17091  0.57738  1.0000
  C   C1079     1.0  0.01925  0.35736  0.75080  1.0000
  H   H868      1.0  0.44089  0.27929  0.58666  1.0000
  H   H869      1.0  0.15622  0.16093  0.60433  1.0000
  C   C1080     1.0  0.22485  0.26728  0.75321  1.0000
  C   C1081     1.0  0.07675  0.25999  0.76889  1.0000
  C   C1082     1.0  0.45699  0.27493  0.68460  1.0000
  C   C1083     1.0  0.27411  0.20427  0.61065  1.0000
  H   H870      1.0  0.22072  0.24263  0.75017  1.0000
  H   H871      1.0  0.15064  0.21580  0.76377  1.0000
  H   H872      1.0  0.01087  0.30483  0.71917  1.0000
  C   C1084     1.0  0.21211  0.18141  0.68294  1.0000
  H   H873      1.0  0.08853  0.99217  0.59064  1.0000
  H   H874      1.0  0.41758  0.30940  0.66823  1.0000
  C   C1085     1.0  0.35372  0.45406  0.69393  1.0000
  C   C1086     1.0  0.48754  0.27538  0.66916  1.0000
  C   C1087     1.0  0.24736  0.18399  0.66663  1.0000
  H   H875      1.0  0.24589  0.19809  0.68699  1.0000
  C   C1088     1.0  0.30255  0.19027  0.74293  1.0000
  H   H876      1.0  0.38132  0.17925  0.62569  1.0000
  H   H877      1.0  0.18695  0.98622  0.64874  1.0000
  H   H878      1.0  0.08585  0.01916  0.71359  1.0000
  H   H879      1.0  0.27027  0.00796  0.58970  1.0000
  H   H880      1.0  0.10876  0.00699  0.68956  1.0000
  C   C1089     1.0  0.34875  0.43259  0.63794  1.0000
  C   C1090     1.0  0.47654  0.38183  0.67234  1.0000
  H   H881      1.0  0.26517  0.25122  0.70671  1.0000
  C   C1091     1.0  0.12998  0.18154  0.77000  1.0000
  C   C1092     1.0  0.42983  0.25180  0.65070  1.0000
  S   S162      1.0  0.42248  0.33941  0.57693  1.0000
  C   C1093     1.0  0.41193  0.34342  0.62907  1.0000
  C   C1094     1.0  0.41785  0.32733  0.62326  1.0000
  C   C1095     1.0  0.40605  0.31607  0.62609  1.0000
  C   C1096     1.0  0.38817  0.32108  0.63432  1.0000
  C   C1097     1.0  0.38207  0.33726  0.64017  1.0000
  C   C1098     1.0  0.39414  0.34832  0.63756  1.0000
  P   P35       1.0  0.35865  0.34492  0.64907  1.0000
  C   C1099     1.0  0.34828  0.36041  0.63173  1.0000
  C   C1100     1.0  0.34765  0.32626  0.65708  1.0000
  C   C1101     1.0  0.34283  0.31924  0.64493  1.0000
  C   C1102     1.0  0.33481  0.30448  0.65082  1.0000
  C   C1103     1.0  0.33144  0.29665  0.66893  1.0000
  C   C1104     1.0  0.33593  0.30371  0.68117  1.0000
  C   C1105     1.0  0.34406  0.31843  0.67530  1.0000
  C   C1106     1.0  0.32976  0.36333  0.63314  1.0000
  C   C1107     1.0  0.32170  0.37502  0.61961  1.0000
  C   C1108     1.0  0.33206  0.38387  0.60458  1.0000
  C   C1109     1.0  0.35047  0.38106  0.60308  1.0000
  C   C1110     1.0  0.35857  0.36939  0.61658  1.0000
  C   C1111     1.0  0.35597  0.35530  0.66761  1.0000
  C   C1112     1.0  0.34074  0.36837  0.67198  1.0000
  C   C1113     1.0  0.33784  0.37494  0.68747  1.0000
  C   C1114     1.0  0.35002  0.36843  0.69876  1.0000
  C   C1115     1.0  0.36530  0.35563  0.69435  1.0000
  C   C1116     1.0  0.36830  0.34913  0.67883  1.0000
  H   H882      1.0  0.42100  0.35232  0.62655  1.0000
  H   H883      1.0  0.43142  0.32386  0.61603  1.0000
  H   H884      1.0  0.41054  0.30382  0.62113  1.0000
  H   H885      1.0  0.37918  0.31245  0.63564  1.0000
  H   H886      1.0  0.38963  0.36106  0.64146  1.0000
  H   H887      1.0  0.34561  0.32498  0.63081  1.0000
  H   H888      1.0  0.33152  0.29899  0.64121  1.0000
  H   H889      1.0  0.32563  0.28496  0.67344  1.0000
  H   H890      1.0  0.33369  0.29742  0.69517  1.0000
  H   H891      1.0  0.34791  0.32327  0.68502  1.0000
  H   H892      1.0  0.32157  0.35641  0.64460  1.0000
  H   H893      1.0  0.30744  0.37702  0.62067  1.0000
  C   C1117     1.0  0.28165  0.19661  0.76983  1.0000
  C   C1118     1.0  0.04880  0.41960  0.76033  1.0000
  H   H894      1.0  0.37289  0.36721  0.61487  1.0000
  H   H895      1.0  0.33087  0.37319  0.66374  1.0000
  H   H896      1.0  0.32597  0.38482  0.69096  1.0000
  H   H897      1.0  0.34771  0.37329  0.71091  1.0000
  H   H898      1.0  0.37476  0.35058  0.70310  1.0000
  H   H899      1.0  0.37996  0.33884  0.67594  1.0000
  C   C1119     1.0  0.47260  0.39653  0.65880  1.0000
  C   C1120     1.0  0.21365  0.14515  0.62689  1.0000
  C   C1121     1.0  0.38623  0.13100  0.61369  1.0000
  H   H900      1.0  0.26522  0.03886  0.59346  1.0000
  Fe  Fe86      1.0  0.20963  0.15418  0.75746  1.0000
  H   H901      1.0  0.16749  0.07678  0.69708  1.0000
  Fe  Fe87      1.0  0.18799  0.12496  0.76641  1.0000
  C   C1122     1.0  0.04310  0.40608  0.75622  1.0000
  C   C1123     1.0  0.00012  0.28524  0.74111  1.0000
  H   H902      1.0  0.26120  0.18458  0.66087  1.0000
  H   H903      1.0  0.28602  0.15280  0.62000  1.0000
  H   H904      1.0  0.20270  0.15449  0.60327  1.0000
  H   H905      1.0  0.39058  0.29124  0.59056  1.0000
  H   H906      1.0  0.38385  0.47477  0.64094  1.0000
  H   H907      1.0  0.09224  0.41213  0.73849  1.0000
  S   S163      1.0  0.13764  0.05500  0.76608  1.0000
  C   C1124     1.0  0.12326  0.99475  0.60698  1.0000
  C   C1125     1.0  0.34037  0.19103  0.70179  1.0000
  C   C1126     1.0  0.34803  0.20539  0.69162  1.0000
  C   C1127     1.0  0.34332  0.21426  0.67536  1.0000
  C   C1128     1.0  0.33052  0.20926  0.66950  1.0000
  C   C1129     1.0  0.32252  0.19505  0.67974  1.0000
  C   C1130     1.0  0.32782  0.18573  0.69578  1.0000
  P   P36       1.0  0.30721  0.18742  0.67147  1.0000
  C   C1131     1.0  0.29641  0.20586  0.65650  1.0000
  C   C1132     1.0  0.31964  0.17033  0.65904  1.0000
  C   C1133     1.0  0.31151  0.16496  0.64811  1.0000
  C   C1134     1.0  0.32122  0.15219  0.63802  1.0000
  C   C1135     1.0  0.33916  0.14495  0.63849  1.0000
  C   C1136     1.0  0.34745  0.15038  0.64911  1.0000
  C   C1137     1.0  0.33774  0.16298  0.65939  1.0000
  C   C1138     1.0  0.28010  0.21676  0.66270  1.0000
  C   C1139     1.0  0.27237  0.23143  0.65102  1.0000
  C   C1140     1.0  0.28102  0.23551  0.63320  1.0000
  C   C1141     1.0  0.29725  0.22474  0.62695  1.0000
  C   C1142     1.0  0.30478  0.20988  0.63849  1.0000
  C   C1143     1.0  0.29036  0.17956  0.69002  1.0000
  C   C1144     1.0  0.28366  0.18847  0.70432  1.0000
  C   C1145     1.0  0.27037  0.18277  0.71855  1.0000
  C   C1146     1.0  0.26359  0.16820  0.71859  1.0000
  C   C1147     1.0  0.27016  0.15925  0.70447  1.0000
  C   C1148     1.0  0.28352  0.16484  0.69025  1.0000
  H   H908      1.0  0.36433  0.26495  0.77426  1.0000
  H   H909      1.0  0.35774  0.20961  0.69619  1.0000
  H   H910      1.0  0.34966  0.22506  0.66724  1.0000
  H   H911      1.0  0.32712  0.21641  0.65686  1.0000
  H   H912      1.0  0.32238  0.17427  0.70355  1.0000
  H   H913      1.0  0.29772  0.17075  0.64725  1.0000
  H   H914      1.0  0.31495  0.14796  0.62967  1.0000
  H   H915      1.0  0.34666  0.13524  0.63046  1.0000
  H   H916      1.0  0.36146  0.14498  0.64921  1.0000
  H   H917      1.0  0.34456  0.16708  0.66731  1.0000
  H   H918      1.0  0.27336  0.21414  0.67650  1.0000
  C   C1149     1.0  0.09371  0.26375  0.76138  1.0000
  H   H919      1.0  0.27523  0.24705  0.62421  1.0000
  H   H920      1.0  0.30417  0.22790  0.61318  1.0000
  H   H921      1.0  0.31739  0.20176  0.63341  1.0000
  H   H922      1.0  0.28859  0.19993  0.70442  1.0000
  H   H923      1.0  0.26524  0.18958  0.72963  1.0000
  H   H924      1.0  0.25324  0.16381  0.72960  1.0000
  H   H925      1.0  0.26481  0.14795  0.70463  1.0000
  H   H926      1.0  0.28835  0.15762  0.67955  1.0000
  C   C1150     1.0  0.15622  0.08129  0.75938  1.0000
  H   H927      1.0  0.40417  0.13349  0.62864  1.0000
  C   C1151     1.0  0.16234  0.05475  0.71885  1.0000
  C   C1152     1.0  0.22062  0.17383  0.66807  1.0000
  C   C1153     1.0  0.14024  0.03192  0.59601  1.0000
  C   C1154     1.0  0.22085  0.17033  0.60381  1.0000
  H   H928      1.0  0.46195  0.10885  0.60197  1.0000
  C   C1155     1.0  0.47379  0.12750  0.60799  1.0000
  C   C1156     1.0  0.20175  0.08499  0.72699  1.0000
  C   C1157     1.0  0.20046  0.07807  0.71301  1.0000
  C   C1158     1.0  0.20490  0.05974  0.71390  1.0000
  C   C1159     1.0  0.21046  0.04826  0.72890  1.0000
  H   H929      1.0  0.09495  0.02513  0.73878  1.0000
  C   C1160     1.0  0.16787  0.03528  0.69253  1.0000
  H   H930      1.0  0.29491  0.17023  0.76588  1.0000
  C   C1161     1.0  0.45722  0.39920  0.65218  1.0000
  H   H931      1.0  0.40195  0.25088  0.65922  1.0000
  C   C1162     1.0  0.15248  0.98083  0.74858  1.0000
  C   C1163     1.0  0.13653  0.99538  0.59130  1.0000
  H   H932      1.0  0.19836  0.09926  0.72620  1.0000
  H   H933      1.0  0.19597  0.08687  0.70148  1.0000
  H   H934      1.0  0.20393  0.05447  0.70295  1.0000
  H   H935      1.0  0.21461  0.19582  0.70139  1.0000
  H   H936      1.0  0.16944  0.02813  0.68213  1.0000
  C   C1164     1.0  0.44745  0.24196  0.64940  1.0000
  H   H937      1.0  0.19343  0.11960  0.58070  1.0000
  H   H938      1.0  0.47501  0.28559  0.69308  1.0000
  H   H939      1.0  0.99210  0.45739  0.77103  1.0000
  H   H940      1.0  0.34507  0.43427  0.75723  1.0000
  H   H941      1.0  0.43226  0.12825  0.60351  1.0000
  C   C1165     1.0  0.26209  0.19463  0.62294  1.0000
  S   S164      1.0  0.17611  0.09280  0.58129  1.0000
  H   H942      1.0  0.07027  0.09059  0.76084  1.0000
  H   H943      1.0  0.30686  0.16990  0.59841  1.0000
  C   C1166     1.0  0.05535  0.39483  0.74555  1.0000
  H   H944      1.0  0.12498  0.07801  0.73400  1.0000
  C   C1167     1.0  0.45966  0.12176  0.60529  1.0000
  H   H945      1.0  0.41335  0.36870  0.65490  1.0000
  C   C1168     1.0  0.29708  0.25525  0.74444  1.0000
  C   C1169     1.0  0.09984  0.01641  0.71412  1.0000
  H   H946      1.0  0.18503  0.00496  0.73723  1.0000
  C   C1170     1.0  0.26384  0.01445  0.73084  1.0000
  C   C1171     1.0  0.10601  0.99363  0.60675  1.0000
  C   C1172     1.0  0.36476  0.44779  0.66429  1.0000
  C   C1173     1.0  0.29322  0.18434  0.76009  1.0000
  H   H947      1.0  0.36717  0.18954  0.65357  1.0000
  C   C1174     1.0  0.43686  0.18349  0.57866  1.0000
  H   H948      1.0  0.24939  0.20177  0.62921  1.0000
  H   H949      1.0  0.12837  0.10831  0.73261  1.0000
  H   H950      1.0  0.44190  0.26369  0.67330  1.0000
  H   H951      1.0  0.47503  0.36451  0.62882  1.0000
  C   C1175     1.0  0.43458  0.35023  0.70685  1.0000
  H   H952      1.0  0.39904  0.20270  0.60480  1.0000
  H   H953      1.0  0.15659  0.03121  0.73767  1.0000
  C   C1176     1.0  0.15069  0.05140  0.60808  1.0000
  H   H954      1.0  0.31981  0.24469  0.71114  1.0000
  H   H955      1.0  0.45414  0.41049  0.64159  1.0000
  C   C1177     1.0  0.41399  0.43582  0.76699  1.0000
  H   H956      1.0  0.27647  0.98667  0.73492  1.0000
  C   C1178     1.0  0.29448  0.17680  0.60551  1.0000
  C   C1179     1.0  0.30029  0.20850  0.73546  1.0000
  H   H957      1.0  0.17045  0.18372  0.58129  1.0000
  C   C1180     1.0  0.25004  0.02753  0.73754  1.0000
  S   S165      1.0  0.02670  0.21181  0.77275  1.0000
  C   C1181     1.0  0.10497  0.01971  0.72831  1.0000
  H   H958      1.0  0.26583  0.06492  0.77407  1.0000
  C   C1182     1.0  0.28856  0.10112  0.59137  1.0000
  H   H959      1.0  0.48206  0.14902  0.61323  1.0000
  H   H960      1.0  0.09677  0.34609  0.76880  1.0000
  C   C1183     1.0  0.23738  0.27738  0.75173  1.0000
  C   C1184     1.0  0.48535  0.26723  0.65642  1.0000
  P   P37       1.0  0.15927  0.00485  0.71649  1.0000
  C   C1185     1.0  0.13776  0.04813  0.60101  1.0000
  H   H961      1.0  0.41482  0.38367  0.74556  1.0000
  C   C1186     1.0  0.45398  0.33658  0.66073  1.0000
  S   S166      1.0  0.23098  0.16349  0.76481  1.0000
  C   C1187     1.0  0.16746  0.15693  0.59402  1.0000
  H   H962      1.0  0.48848  0.37973  0.67748  1.0000
  H   H963      1.0  0.43416  0.38933  0.65356  1.0000
  H   H964      1.0  0.46436  0.34388  0.65865  1.0000
  H   H965      1.0  0.32587  0.39275  0.59397  1.0000
  H   H966      1.0  0.46800  0.31221  0.60080  1.0000
  H   H967      1.0  0.39683  0.17474  0.58217  1.0000
  C   C1188     1.0  0.00970  0.43580  0.74224  1.0000
  H   H968      1.0  0.23309  0.29022  0.75555  1.0000
  C   C1189     1.0  0.12299  0.01569  0.72922  1.0000
  C   C1190     1.0  0.00454  0.26897  0.75281  1.0000
  H   H969      1.0  0.28305  0.32026  0.75439  1.0000
  C   C1191     1.0  0.16812  0.02179  0.60622  1.0000
  C   C1192     1.0  0.25395  0.99222  0.75618  1.0000
  C   C1193     1.0  0.29169  0.24795  0.71144  1.0000
  H   H970      1.0  0.10055  0.26096  0.74838  1.0000
  C   C1194     1.0  0.13083  0.00573  0.70128  1.0000
  C   C1195     1.0  0.25556  0.27070  0.74596  1.0000
  C   C1196     1.0  0.16391  0.02693  0.71055  1.0000
  C   C1197     1.0  0.30756  0.25830  0.76948  1.0000
  C   C1198     1.0  0.40343  0.45202  0.77062  1.0000
  H   H971      1.0  0.30307  0.27483  0.72018  1.0000
  C   C1199     1.0  0.20809  0.19503  0.77080  1.0000
  C   C1200     1.0  0.43390  0.33238  0.71482  1.0000
  C   C1201     1.0  0.20184  0.98179  0.68211  1.0000
  H   H972      1.0  0.02097  0.43979  0.74421  1.0000
  H   H973      1.0  0.38548  0.42468  0.59607  1.0000
  H   H974      1.0  0.38438  0.38839  0.65102  1.0000
  C   C1202     1.0  0.43750  0.34092  0.67225  1.0000
  H   H975      1.0  0.43700  0.37522  0.71136  1.0000
  C   C1203     1.0  0.38954  0.17825  0.63505  1.0000
  C   C1204     1.0  0.39167  0.18368  0.66298  1.0000
  C   C1205     1.0  0.41010  0.17723  0.65917  1.0000
  C   C1206     1.0  0.41831  0.17129  0.64329  1.0000
  H   H976      1.0  0.25267  0.23068  0.73984  1.0000
  C   C1207     1.0  0.21150  0.15653  0.61062  1.0000
  Fe  Fe88      1.0  0.17202  0.16295  0.75094  1.0000
  C   C1208     1.0  0.26023  0.14136  0.65177  1.0000
  C   C1209     1.0  0.07856  0.41045  0.74342  1.0000
  C   C1210     1.0  0.28456  0.25346  0.68222  1.0000
  C   C1211     1.0  0.39971  0.38005  0.69562  1.0000
  H   H977      1.0  0.38538  0.18855  0.67512  1.0000
  H   H978      1.0  0.41810  0.17697  0.66845  1.0000
  H   H979      1.0  0.43256  0.16648  0.64073  1.0000
  C   C1212     1.0  0.16656  0.06287  0.70088  1.0000
  H   H980      1.0  0.42713  0.26612  0.64617  1.0000
  H   H981      1.0  0.30770  0.21279  0.72220  1.0000
  H   H982      1.0  0.21366  0.03406  0.72946  1.0000
  H   H983      1.0  0.17240  0.05948  0.67379  1.0000
  H   H984      1.0  0.34801  0.40487  0.64199  1.0000
  C   C1213     1.0  0.37828  0.13843  0.59894  1.0000
  H   H985      1.0  0.15351  0.08445  0.74615  1.0000
  H   H986      1.0  0.29969  0.20275  0.59236  1.0000
  C   C1214     1.0  0.34161  0.46898  0.68736  1.0000
  H   H987      1.0  0.27075  0.21867  0.60764  1.0000
  H   H988      1.0  0.43156  0.32361  0.70768  1.0000
  H   H989      1.0  0.36505  0.40286  0.67541  1.0000
  C   C1215     1.0  0.45717  0.32269  0.65176  1.0000
  C   C1216     1.0  0.28750  0.31238  0.76634  1.0000
  H   H990      1.0  0.44128  0.45848  0.76669  1.0000
  H   H991      1.0  0.37597  0.43409  0.75867  1.0000
  H   H992      1.0  0.04092  0.19318  0.74162  1.0000
  H   H993      1.0  0.99429  0.26239  0.76180  1.0000
  C   C1217     1.0  0.42436  0.33107  0.67479  1.0000
  H   H994      1.0  0.15997  0.06232  0.72907  1.0000
  C   C1218     1.0  0.23877  0.19161  0.68147  1.0000
  H   H995      1.0  0.19499  0.00500  0.69337  1.0000
  C   C1219     1.0  0.22115  0.19031  0.68962  1.0000
  C   C1220     1.0  0.16622  0.09123  0.76359  1.0000
  H   H996      1.0  0.11198  0.31441  0.77300  1.0000
  C   C1221     1.0  0.23801  0.02305  0.75361  1.0000
  H   H997      1.0  0.11491  0.27401  0.76452  1.0000
  H   H998      1.0  0.48386  0.21335  0.58226  1.0000
  C   C1222     1.0  0.44570  0.38730  0.65919  1.0000
  C   C1223     1.0  0.00479  0.22230  0.74927  1.0000
  C   C1224     1.0  0.40493  0.37458  0.66589  1.0000
  C   C1225     1.0  0.22482  0.18396  0.77183  1.0000
  H   H999      1.0  0.25262  0.14525  0.67907  1.0000
  C   C1226     1.0  0.21191  0.05509  0.74300  1.0000
  C   C1227     1.0  0.23828  0.17516  0.65972  1.0000
  H   H1000     1.0  0.18516  0.03606  0.75789  1.0000
  H   H1001     1.0  0.37454  0.39714  0.70394  1.0000
  H   H1002     1.0  0.30668  0.25555  0.65977  1.0000
  P   P38       1.0  0.25006  0.16365  0.64183  1.0000
  C   C1228     1.0  0.41082  0.37187  0.68182  1.0000
  H   H1003     1.0  0.04231  0.29016  0.71935  1.0000
  H   H1004     1.0  0.43508  0.31195  0.73866  1.0000
  C   C1229     1.0  0.43602  0.32561  0.73241  1.0000
  C   C1230     1.0  0.46484  0.37007  0.67957  1.0000
  C   C1231     1.0  0.08328  0.98631  0.74880  1.0000
  H   H1005     1.0  0.05141  0.38433  0.74210  1.0000
  H   H1006     1.0  0.21357  0.16635  0.66365  1.0000
  C   C1232     1.0  0.07300  0.39702  0.73921  1.0000
  H   H1007     1.0  0.37671  0.45405  0.60363  1.0000
  P   P39       1.0  0.46598  0.25318  0.64062  1.0000
  S   S167      1.0  0.40080  0.39007  0.58459  1.0000
  S   S168      1.0  0.14642  0.18368  0.75021  1.0000
  C   C1233     1.0  0.16604  0.03838  0.61027  1.0000
  C   C1234     1.0  0.40808  0.17171  0.63107  1.0000
  H   H1008     1.0  0.17128  0.10172  0.75353  1.0000
  C   C1235     1.0  0.43890  0.33652  0.74219  1.0000
  H   H1009     1.0  0.06442  0.19649  0.75512  1.0000
  C   C1236     1.0  0.44466  0.47075  0.75850  1.0000
  H   H1010     1.0  0.32008  0.45881  0.62744  1.0000
  H   H1011     1.0  0.22680  0.13857  0.64884  1.0000
  H   H1012     1.0  0.44706  0.25604  0.61286  1.0000
  H   H1013     1.0  0.07079  0.43216  0.75723  1.0000
  C   C1237     1.0  0.11276  0.00943  0.70062  1.0000
  H   H1014     1.0  0.08238  0.38829  0.73099  1.0000
  S   S169      1.0  0.17479  0.13706  0.74301  1.0000
  C   C1238     1.0  0.35678  0.44665  0.62725  1.0000
  C   C1239     1.0  0.16077  0.03693  0.72369  1.0000
  C   C1240     1.0  0.30249  0.25330  0.67417  1.0000
  C   C1241     1.0  0.36784  0.42649  0.76961  1.0000
  H   H1015     1.0  0.38330  0.11866  0.62230  1.0000
  H   H1016     1.0  0.03962  0.42849  0.76848  1.0000
  P   P40       1.0  0.43293  0.35896  0.68377  1.0000
  C   C1242     1.0  0.08167  0.17152  0.75050  1.0000
  C   C1243     1.0  0.23248  0.17270  0.61321  1.0000
  C   C1244     1.0  0.00618  0.41878  0.75031  1.0000
  H   H1017     1.0  0.23981  0.18327  0.60754  1.0000
  C   C1245     1.0  0.26629  0.17592  0.62682  1.0000
  C   C1246     1.0  0.42770  0.31705  0.66602  1.0000
  C   C1247     1.0  0.24010  0.00527  0.76291  1.0000
  H   H1018     1.0  0.38919  0.36883  0.75273  1.0000
  S   S170      1.0  0.37615  0.30004  0.76006  1.0000
  C   C1248     1.0  0.40257  0.15487  0.60547  1.0000
  C   C1249     1.0  0.46893  0.26287  0.65768  1.0000
  C   C1250     1.0  0.38849  0.38574  0.66359  1.0000
  H   H1019     1.0  0.40373  0.37815  0.70812  1.0000
  H   H1020     1.0  0.34431  0.18392  0.71424  1.0000
  C   C1251     1.0  0.44903  0.37303  0.67337  1.0000
  H   H1021     1.0  0.46802  0.35888  0.69019  1.0000
  C   C1252     1.0  0.43946  0.35430  0.73444  1.0000
  H   H1022     1.0  0.27482  0.25592  0.67404  1.0000
  C   C1253     1.0  0.44401  0.31296  0.65439  1.0000
  H   H1023     1.0  0.30265  0.10002  0.58572  1.0000
  H   H1024     1.0  0.25977  0.23978  0.65584  1.0000
  P   P41       1.0  0.10369  0.13893  0.74546  1.0000
  C   C1254     1.0  0.08377  0.15607  0.74407  1.0000
  C   C1255     1.0  0.12010  0.14668  0.72660  1.0000
  C   C1256     1.0  0.13104  0.15720  0.72828  1.0000
  C   C1257     1.0  0.14351  0.16356  0.71356  1.0000
  C   C1258     1.0  0.14491  0.15971  0.69699  1.0000
  C   C1259     1.0  0.13368  0.14965  0.69509  1.0000
  C   C1260     1.0  0.12127  0.14318  0.70983  1.0000
  C   C1261     1.0  0.07073  0.15464  0.73574  1.0000
  C   C1262     1.0  0.05529  0.16796  0.73492  1.0000
  P   P42       1.0  0.02027  0.40329  0.76464  1.0000
  C   C1263     1.0  0.10080  0.11728  0.74508  1.0000
  C   C1264     1.0  0.11542  0.10487  0.73824  1.0000
  C   C1265     1.0  0.11360  0.08763  0.73910  1.0000
  C   C1266     1.0  0.09735  0.08249  0.74724  1.0000
  H   H1025     1.0  0.02571  0.24844  0.76218  1.0000
  C   C1267     1.0  0.08447  0.11206  0.75318  1.0000
  S   S171      1.0  0.12196  0.99751  0.65605  1.0000
  H   H1026     1.0  0.44167  0.36276  0.74205  1.0000
  H   H1027     1.0  0.41159  0.33407  0.68375  1.0000
  C   C1268     1.0  0.44269  0.13286  0.60634  1.0000
  H   H1028     1.0  0.99391  0.27088  0.71637  1.0000
  H   H1029     1.0  0.12997  0.16052  0.74096  1.0000
  H   H1030     1.0  0.15211  0.17143  0.71512  1.0000
  H   H1031     1.0  0.15478  0.16439  0.68566  1.0000
  H   H1032     1.0  0.13482  0.14660  0.68224  1.0000
  H   H1033     1.0  0.11265  0.13544  0.70814  1.0000
  H   H1034     1.0  0.07248  0.14330  0.72983  1.0000
  H   H1035     1.0  0.04509  0.16670  0.72878  1.0000
  C   C1269     1.0  0.99856  0.44797  0.73153  1.0000
  C   C1270     1.0  0.31503  0.25033  0.68470  1.0000
  C   C1271     1.0  0.01388  0.29269  0.72885  1.0000
  H   H1036     1.0  0.44038  0.33121  0.75588  1.0000
  C   C1272     1.0  0.45166  0.26827  0.61034  1.0000
  C   C1273     1.0  0.41057  0.20127  0.59404  1.0000
  C   C1274     1.0  0.47539  0.44449  0.61583  1.0000
  C   C1275     1.0  0.24611  0.05353  0.76914  1.0000
  H   H1037     1.0  0.48147  0.24144  0.60654  1.0000
  C   C1276     1.0  0.42209  0.18469  0.59297  1.0000
  H   H1038     1.0  0.99853  0.05744  0.75793  1.0000
  H   H1039     1.0  0.21083  0.27219  0.75830  1.0000
  H   H1040     1.0  0.31146  0.32283  0.76048  1.0000
  C   C1277     1.0  0.43971  0.14985  0.61015  1.0000
  H   H1041     1.0  0.28926  0.07338  0.59348  1.0000
  H   H1042     1.0  0.41364  0.43161  0.75521  1.0000
  C   C1278     1.0  0.01941  0.38049  0.76573  1.0000
  P   P43       1.0  0.28486  0.24447  0.73546  1.0000
  P   P44       1.0  0.41832  0.16516  0.60990  1.0000
  C   C1279     1.0  0.06646  0.42174  0.75397  1.0000
  C   C1280     1.0  0.24860  0.24383  0.74291  1.0000
  C   C1281     1.0  0.27915  0.25081  0.70079  1.0000
  S   S172      1.0  0.21555  0.12717  0.75076  1.0000
  H   H1043     1.0  0.24872  0.04117  0.73014  1.0000
  C   C1282     1.0  0.27916  0.21479  0.76234  1.0000
  C   C1283     1.0  0.26133  0.25376  0.74172  1.0000
  H   H1044     1.0  0.26983  0.22404  0.77002  1.0000
  H   H1045     1.0  0.31153  0.18070  0.73548  1.0000
  H   H1046     1.0  0.19873  0.19115  0.76550  1.0000
  H   H1047     1.0  0.27298  0.01801  0.71837  1.0000
  H   H1048     1.0  0.20815  0.07924  0.75274  1.0000
  C   C1284     1.0  0.06624  0.18481  0.74965  1.0000
  C   C1285     1.0  0.02048  0.34467  0.76655  1.0000
  H   H1049     1.0  0.13833  0.12487  0.75598  1.0000
  C   C1286     1.0  0.39416  0.16248  0.59095  1.0000
  C   C1287     1.0  0.38582  0.34178  0.58719  1.0000
  P   P45       1.0  0.22000  0.04010  0.76185  1.0000
  H   H1050     1.0  0.25560  0.04702  0.75912  1.0000
  C   C1288     1.0  0.38209  0.15425  0.58768  1.0000
  C   C1289     1.0  0.18856  0.13363  0.58056  1.0000
  H   H1051     1.0  0.32313  0.27833  0.76404  1.0000
  C   C1290     1.0  0.01885  0.37517  0.75034  1.0000
  H   H1052     1.0  0.33877  0.43454  0.64990  1.0000
  H   H1053     1.0  0.40535  0.22923  0.58233  1.0000
  C   C1291     1.0  0.45824  0.45716  0.57720  1.0000
  H   H1054     1.0  0.39490  0.45999  0.76155  1.0000
  P   P46       1.0  0.15851  0.99761  0.59195  1.0000
  H   H1055     1.0  0.11826  0.22704  0.76494  1.0000
  H   H1056     1.0  0.03130  0.04801  0.75409  1.0000
  C   C1292     1.0  0.41404  0.21640  0.58125  1.0000
  C   C1293     1.0  0.31433  0.27768  0.74077  1.0000
  C   C1294     1.0  0.34086  0.47323  0.66930  1.0000
  C   C1295     1.0  0.30469  0.26963  0.73379  1.0000
  H   H1057     1.0  0.36925  0.13183  0.59618  1.0000
  C   C1296     1.0  0.12851  0.12866  0.76739  1.0000
  Fe  Fe89      1.0  0.35008  0.31756  0.76989  1.0000
  C   C1297     1.0  0.45476  0.26676  0.67191  1.0000
  C   C1298     1.0  0.02241  0.26083  0.75290  1.0000
  H   H1058     1.0  0.45853  0.46237  0.58837  1.0000
  H   H1059     1.0  0.23527  0.34100  0.77072  1.0000
  H   H1060     1.0  0.09624  0.06891  0.74842  1.0000
  C   C1299     1.0  0.19054  0.99346  0.69273  1.0000
  C   C1300     1.0  0.17363  0.99035  0.70208  1.0000
  H   H1061     1.0  0.29188  0.23953  0.77127  1.0000
  H   H1062     1.0  0.02062  0.33090  0.76703  1.0000
  H   H1063     1.0  0.48700  0.11909  0.60692  1.0000
  C   C1301     1.0  0.27400  0.03495  0.58156  1.0000
  C   C1302     1.0  0.11070  0.13620  0.76608  1.0000
  C   C1303     1.0  0.30357  0.31383  0.76976  1.0000
  C   C1304     1.0  0.47754  0.37707  0.62043  1.0000
  S   S173      1.0  0.25719  0.29878  0.77394  1.0000
  H   H1064     1.0  0.48747  0.37855  0.57934  1.0000
  C   C1305     1.0  0.40274  0.33105  0.58300  1.0000
  S   S174      1.0  0.18336  0.15064  0.77552  1.0000
  H   H1065     1.0  0.45107  0.30772  0.58066  1.0000
  C   C1306     1.0  0.48388  0.40964  0.59856  1.0000
  H   H1066     1.0  0.41723  0.30460  0.58049  1.0000
  H   H1067     1.0  0.13971  0.10146  0.57886  1.0000
  H   H1068     1.0  0.48189  0.45305  0.75639  1.0000
  C   C1307     1.0  0.46359  0.29988  0.60337  1.0000
  C   C1308     1.0  0.22813  0.05207  0.77352  1.0000
  C   C1309     1.0  0.99120  0.41427  0.74765  1.0000
  C   C1310     1.0  0.46742  0.28653  0.61805  1.0000
  H   H1069     1.0  0.47519  0.28868  0.62634  1.0000
  C   C1311     1.0  0.48585  0.23740  0.63332  1.0000
  H   H1070     1.0  0.25531  0.15569  0.57952  1.0000
  C   C1312     1.0  0.17960  0.98626  0.76188  1.0000
  H   H1071     1.0  0.41569  0.35611  0.77337  1.0000
  C   C1313     1.0  0.48747  0.44634  0.76807  1.0000
  C   C1314     1.0  0.48428  0.33623  0.57690  1.0000
  C   C1315     1.0  0.02277  0.04278  0.76636  1.0000
  H   H1072     1.0  0.18999  0.98844  0.76714  1.0000
  C   C1316     1.0  0.14976  0.06737  0.77218  1.0000
  H   H1073     1.0  0.23107  0.00136  0.77528  1.0000
  H   H1074     1.0  0.43280  0.41230  0.77584  1.0000
  C   C1317     1.0  0.32976  0.48054  0.63093  1.0000
  C   C1318     1.0  0.14165  0.21739  0.77638  1.0000
  H   H1075     1.0  0.19038  0.21954  0.77612  1.0000
  H   H1076     1.0  0.48564  0.47065  0.77624  1.0000
  H   H1077     1.0  0.45838  0.23805  0.57646  1.0000
  C   C1319     1.0  0.12915  0.46428  0.92833  1.0000
  Fe  Fe90      1.0  0.42786  0.37557  0.86256  1.0000
  C   C1320     1.0  0.01660  0.38792  0.91764  1.0000
  Fe  Fe91      1.0  0.39800  0.35684  0.88295  1.0000
  S   S175      1.0  0.41634  0.33017  0.88770  1.0000
  S   S176      1.0  0.36816  0.36220  0.89219  1.0000
  Fe  Fe92      1.0  0.43383  0.34492  0.89397  1.0000
  Fe  Fe93      1.0  0.42989  0.33789  0.85916  1.0000
  S   S177      1.0  0.44191  0.31891  0.84043  1.0000
  S   S178      1.0  0.41426  0.37122  0.89147  1.0000
  S   S179      1.0  0.41005  0.36313  0.85391  1.0000
  C   C1321     1.0  0.35292  0.23867  0.95587  1.0000
  C   C1322     1.0  0.47112  0.26401  0.96279  1.0000
  C   C1323     1.0  0.16545  0.27121  0.78554  1.0000
  C   C1324     1.0  0.17567  0.01313  0.80038  1.0000
  S   S180      1.0  0.32895  0.30526  0.79051  1.0000
  H   H1078     1.0  0.21146  0.40882  0.81936  1.0000
  Fe  Fe94      1.0  0.09907  0.01035  0.78924  1.0000
  C   C1325     1.0  0.02005  0.03785  0.85115  1.0000
  S   S181      1.0  0.16062  0.39700  0.94415  1.0000
  C   C1326     1.0  0.11530  0.46678  0.94305  1.0000
  C   C1327     1.0  0.29703  0.36032  0.80478  1.0000
  S   S182      1.0  0.16186  0.44243  0.95001  1.0000
  H   H1079     1.0  0.24966  0.18043  0.77980  1.0000
  S   S183      1.0  0.12221  0.39345  0.92763  1.0000
  H   H1080     1.0  0.47861  0.41891  0.85033  1.0000
  C   C1328     1.0  0.45119  0.42610  0.94747  1.0000
  H   H1081     1.0  0.47464  0.40754  0.82449  1.0000
  H   H1082     1.0  0.05652  0.46240  0.92149  1.0000
  H   H1083     1.0  0.11835  0.07571  0.80923  1.0000
  H   H1084     1.0  0.11114  0.45522  0.95211  1.0000
  C   C1329     1.0  0.43023  0.36344  0.78892  1.0000
  H   H1085     1.0  0.20208  0.06078  0.78940  1.0000
  C   C1330     1.0  0.35242  0.23705  0.85694  1.0000
  C   C1331     1.0  0.99467  0.16437  0.83956  1.0000
  H   H1086     1.0  0.31008  0.27750  0.85163  1.0000
  C   C1332     1.0  0.34841  0.38567  0.94847  1.0000
  C   C1333     1.0  0.98938  0.22707  0.86544  1.0000
  C   C1334     1.0  0.42536  0.43051  0.79373  1.0000
  S   S184      1.0  0.09431  0.03839  0.79283  1.0000
  H   H1087     1.0  0.10889  0.00862  0.85756  1.0000
  S   S185      1.0  0.07927  0.03735  0.84397  1.0000
  Fe  Fe95      1.0  0.22502  0.24771  0.80371  1.0000
  S   S186      1.0  0.21488  0.27731  0.80049  1.0000
  S   S187      1.0  0.20834  0.23612  0.79199  1.0000
  Fe  Fe96      1.0  0.25170  0.24822  0.82543  1.0000
  S   S188      1.0  0.24268  0.27744  0.82431  1.0000
  S   S189      1.0  0.27546  0.23665  0.83849  1.0000
  Fe  Fe97      1.0  0.21509  0.27265  0.82951  1.0000
  S   S190      1.0  0.19398  0.28392  0.85111  1.0000
  Fe  Fe98      1.0  0.24366  0.27901  0.79555  1.0000
  H   H1088     1.0  0.24747  0.35199  0.79044  1.0000
  S   S191      1.0  0.22382  0.24300  0.83321  1.0000
  S   S192      1.0  0.25395  0.24989  0.79616  1.0000
  Fe  Fe99      1.0  0.07841  0.33313  0.89463  1.0000
  S   S193      1.0  0.08189  0.35222  0.86822  1.0000
  S   S194      1.0  0.08085  0.33765  0.92096  1.0000
  Fe  Fe100     1.0  0.06858  0.30609  0.87931  1.0000
  S   S195      1.0  0.07165  0.32298  0.85184  1.0000
  S   S196      1.0  0.06139  0.27903  0.88586  1.0000
  Fe  Fe101     1.0  0.09614  0.32776  0.85718  1.0000
  S   S197      1.0  0.11948  0.32727  0.83394  1.0000
  Fe  Fe102     1.0  0.05694  0.34570  0.86529  1.0000
  S   S198      1.0  0.03435  0.36699  0.85561  1.0000
  S   S199      1.0  0.09445  0.30898  0.88379  1.0000
  S   S200      1.0  0.05220  0.32853  0.89261  1.0000
  Fe  Fe103     1.0  0.02107  0.19511  0.84011  1.0000
  S   S201      1.0  0.03835  0.18246  0.81769  1.0000
  C   C1335     1.0  0.07874  0.10164  0.80083  1.0000
  Fe  Fe104     1.0  0.03548  0.22913  0.82616  1.0000
  H   H1089     1.0  0.29424  0.33427  0.84159  1.0000
  S   S202      1.0  0.03520  0.25736  0.82690  1.0000
  Fe  Fe105     1.0  0.03049  0.20922  0.80048  1.0000
  Fe  Fe106     1.0  0.05996  0.19360  0.82148  1.0000
  S   S203      1.0  0.08781  0.17743  0.82181  1.0000
  S   S204      1.0  0.01149  0.22128  0.82254  1.0000
  S   S205      1.0  0.04346  0.20409  0.84564  1.0000
  Fe  Fe107     1.0  0.31025  0.29562  0.91000  1.0000
  S   S206      1.0  0.30306  0.27063  0.92849  1.0000
  S   S207      1.0  0.33825  0.29555  0.89392  1.0000
  Fe  Fe108     1.0  0.27282  0.31730  0.91755  1.0000
  S   S208      1.0  0.26229  0.29430  0.93642  1.0000
  S   S209      1.0  0.25580  0.34470  0.91116  1.0000
  Fe  Fe109     1.0  0.28721  0.28882  0.94696  1.0000
  Fe  Fe110     1.0  0.27883  0.27811  0.91633  1.0000
  S   S210      1.0  0.26541  0.25792  0.91263  1.0000
  S   S211      1.0  0.29649  0.31312  0.92975  1.0000
  S   S212      1.0  0.28727  0.30163  0.89630  1.0000
  C   C1336     1.0  0.04265  0.26286  0.84345  1.0000
  C   C1337     1.0  0.04380  0.28055  0.84165  1.0000
  C   C1338     1.0  0.04966  0.28557  0.85450  1.0000
  C   C1339     1.0  0.05433  0.27295  0.86933  1.0000
  C   C1340     1.0  0.05296  0.25526  0.87126  1.0000
  C   C1341     1.0  0.04726  0.25017  0.85827  1.0000
  H   H1090     1.0  0.04001  0.29045  0.83033  1.0000
  H   H1091     1.0  0.05009  0.29928  0.85315  1.0000
  H   H1092     1.0  0.05642  0.24546  0.88278  1.0000
  H   H1093     1.0  0.04630  0.23652  0.85981  1.0000
  C   C1342     1.0  0.17292  0.29443  0.84619  1.0000
  C   C1343     1.0  0.15836  0.29772  0.86018  1.0000
  C   C1344     1.0  0.14170  0.30730  0.85657  1.0000
  C   C1345     1.0  0.13964  0.31386  0.83895  1.0000
  C   C1346     1.0  0.15413  0.31042  0.82499  1.0000
  C   C1347     1.0  0.17065  0.30041  0.82858  1.0000
  H   H1094     1.0  0.15999  0.29311  0.87383  1.0000
  H   H1095     1.0  0.13073  0.31025  0.86741  1.0000
  H   H1096     1.0  0.15259  0.31586  0.81140  1.0000
  H   H1097     1.0  0.18171  0.29779  0.81772  1.0000
  C   C1348     1.0  0.27221  0.24392  0.85850  1.0000
  C   C1349     1.0  0.25691  0.24188  0.87170  1.0000
  C   C1350     1.0  0.25500  0.24629  0.88821  1.0000
  C   C1351     1.0  0.26796  0.25352  0.89137  1.0000
  C   C1352     1.0  0.28300  0.25622  0.87794  1.0000
  C   C1353     1.0  0.28527  0.25106  0.86166  1.0000
  H   H1098     1.0  0.24682  0.23630  0.86941  1.0000
  H   H1099     1.0  0.24346  0.24393  0.89858  1.0000
  H   H1100     1.0  0.29310  0.26169  0.88033  1.0000
  H   H1101     1.0  0.29706  0.25268  0.85143  1.0000
  C   C1354     1.0  0.12791  0.27933  0.79272  1.0000
  C   C1355     1.0  0.03835  0.12791  0.80662  1.0000
  H   H1102     1.0  0.08030  0.00000  0.86136  1.0000
  H   H1103     1.0  0.42612  0.33748  0.95878  1.0000
  H   H1104     1.0  0.14828  0.16595  0.78673  1.0000
  H   H1105     1.0  0.00433  0.24761  0.85359  1.0000
  S   S213      1.0  0.09960  0.99779  0.81794  1.0000
  H   H1106     1.0  0.21255  0.07864  0.80411  1.0000
  H   H1107     1.0  0.07310  0.11024  0.78987  1.0000
  H   H1108     1.0  0.33850  0.45542  0.78687  1.0000
  H   H1109     1.0  0.32458  0.23693  0.80901  1.0000
  C   C1356     1.0  0.16343  0.07345  0.79347  1.0000
  C   C1357     1.0  0.15339  0.06345  0.78926  1.0000
  C   C1358     1.0  0.99635  0.36453  0.83093  1.0000
  Fe  Fe111     1.0  0.12903  0.99723  0.80980  1.0000
  C   C1359     1.0  0.10433  0.08202  0.81165  1.0000
  H   H1110     1.0  0.16618  0.07039  0.80670  1.0000
  H   H1111     1.0  0.14857  0.05267  0.79919  1.0000
  C   C1360     1.0  0.02931  0.16138  0.78467  1.0000
  H   H1112     1.0  0.05473  0.16537  0.78576  1.0000
  C   C1361     1.0  0.46773  0.25940  0.94822  1.0000
  C   C1362     1.0  0.31364  0.29035  0.84628  1.0000
  C   C1363     1.0  0.46888  0.35893  0.94718  1.0000
  C   C1364     1.0  0.10371  0.17932  0.80167  1.0000
  C   C1365     1.0  0.12156  0.17110  0.80196  1.0000
  C   C1366     1.0  0.33138  0.29164  0.83826  1.0000
  H   H1113     1.0  0.27447  0.19205  0.78318  1.0000
  C   C1367     1.0  0.30035  0.30569  0.84762  1.0000
  H   H1114     1.0  0.12532  0.16377  0.81439  1.0000
  C   C1368     1.0  0.26354  0.35129  0.81978  1.0000
  C   C1369     1.0  0.09203  0.98969  0.86328  1.0000
  C   C1370     1.0  0.00630  0.37048  0.83970  1.0000
  C   C1371     1.0  0.02128  0.35908  0.84564  1.0000
  C   C1372     1.0  0.02585  0.34153  0.84329  1.0000
  C   C1373     1.0  0.01592  0.33555  0.83462  1.0000
  H   H1115     1.0  0.00225  0.38383  0.84210  1.0000
  H   H1116     1.0  0.03687  0.33241  0.84837  1.0000
  H   H1117     1.0  0.01964  0.32192  0.83295  1.0000
  H   H1118     1.0  0.34330  0.40311  0.96699  1.0000
  C   C1374     1.0  0.03277  0.02886  0.83879  1.0000
  C   C1375     1.0  0.05096  0.02891  0.83628  1.0000
  C   C1376     1.0  0.05656  0.03742  0.84659  1.0000
  C   C1377     1.0  0.04392  0.04595  0.85931  1.0000
  C   C1378     1.0  0.02568  0.04635  0.86145  1.0000
  H   H1119     1.0  0.08517  0.19487  0.78511  1.0000
  H   H1120     1.0  0.17992  0.26788  0.78321  1.0000
  H   H1121     1.0  0.04824  0.05237  0.86744  1.0000
  C   C1379     1.0  0.00955  0.44733  0.84590  1.0000
  C   C1380     1.0  0.48565  0.42924  0.84924  1.0000
  C   C1381     1.0  0.47925  0.44048  0.86147  1.0000
  C   C1382     1.0  0.47655  0.40458  0.89446  1.0000
  H   H1122     1.0  0.09187  0.25015  0.82134  1.0000
  C   C1383     1.0  0.20360  0.47742  0.96184  1.0000
  C   C1384     1.0  0.99164  0.40733  0.89658  1.0000
  H   H1123     1.0  0.29610  0.23267  0.92519  1.0000
  H   H1124     1.0  0.08986  0.23583  0.85296  1.0000
  C   C1385     1.0  0.11157  0.37714  0.92600  1.0000
  C   C1386     1.0  0.10393  0.36595  0.94111  1.0000
  C   C1387     1.0  0.09441  0.35404  0.93934  1.0000
  C   C1388     1.0  0.09306  0.35273  0.92245  1.0000
  C   C1389     1.0  0.10107  0.36365  0.90730  1.0000
  C   C1390     1.0  0.11007  0.37598  0.90910  1.0000
  H   H1125     1.0  0.10510  0.36664  0.95416  1.0000
  H   H1126     1.0  0.08821  0.34567  0.95111  1.0000
  H   H1127     1.0  0.10008  0.36279  0.89423  1.0000
  H   H1128     1.0  0.11593  0.38463  0.89734  1.0000
  S   S214      1.0  0.43570  0.46867  0.87019  1.0000
  H   H1129     1.0  0.06306  0.38593  0.92385  1.0000
  H   H1130     1.0  0.43891  0.46065  0.91438  1.0000
  H   H1131     1.0  0.36402  0.24460  0.95514  1.0000
  H   H1132     1.0  0.02838  0.40274  0.82447  1.0000
  H   H1133     1.0  0.46505  0.22936  0.97434  1.0000
  C   C1391     1.0  0.06046  0.38543  0.89788  1.0000
  C   C1392     1.0  0.20739  0.35353  0.95620  1.0000
  C   C1393     1.0  0.20843  0.36580  0.93998  1.0000
  C   C1394     1.0  0.22377  0.36358  0.92642  1.0000
  C   C1395     1.0  0.23783  0.34890  0.92893  1.0000
  C   C1396     1.0  0.23715  0.33729  0.94551  1.0000
  C   C1397     1.0  0.22197  0.33963  0.95907  1.0000
  H   H1134     1.0  0.19739  0.37681  0.93778  1.0000
  H   H1135     1.0  0.22462  0.37304  0.91389  1.0000
  H   H1136     1.0  0.24826  0.32647  0.94793  1.0000
  H   H1137     1.0  0.38489  0.25647  0.81949  1.0000
  C   C1398     1.0  0.19525  0.37579  0.85114  1.0000
  H   H1138     1.0  0.00024  0.17425  0.82893  1.0000
  C   C1399     1.0  0.35748  0.26804  0.80154  1.0000
  H   H1139     1.0  0.24119  0.20888  0.79068  1.0000
  H   H1140     1.0  0.38883  0.41541  0.78411  1.0000
  C   C1400     1.0  0.34519  0.25510  0.85726  1.0000
  C   C1401     1.0  0.40383  0.45778  0.78579  1.0000
  C   C1402     1.0  0.28315  0.29041  0.79368  1.0000
  C   C1403     1.0  0.29892  0.29215  0.79730  1.0000
  C   C1404     1.0  0.36407  0.47737  0.84301  1.0000
  H   H1141     1.0  0.01131  0.46234  0.96276  1.0000
  H   H1142     1.0  0.27574  0.28093  0.80271  1.0000
  H   H1143     1.0  0.30330  0.28425  0.80931  1.0000
  H   H1144     1.0  0.16332  0.24621  0.78150  1.0000
  C   C1405     1.0  0.98973  0.30631  0.86308  1.0000
  C   C1406     1.0  0.22205  0.07134  0.79462  1.0000
  C   C1407     1.0  0.17118  0.33787  0.84764  1.0000
  C   C1408     1.0  0.05237  0.99086  0.88919  1.0000
  C   C1409     1.0  0.43311  0.31765  0.82261  1.0000
  C   C1410     1.0  0.41562  0.32581  0.82038  1.0000
  C   C1411     1.0  0.40931  0.32327  0.80623  1.0000
  C   C1412     1.0  0.42059  0.31274  0.79435  1.0000
  C   C1413     1.0  0.43799  0.30484  0.79666  1.0000
  C   C1414     1.0  0.44416  0.30722  0.81067  1.0000
  H   H1145     1.0  0.40699  0.33377  0.82968  1.0000
  H   H1146     1.0  0.39580  0.32921  0.80455  1.0000
  H   H1147     1.0  0.44676  0.29664  0.78762  1.0000
  H   H1148     1.0  0.45763  0.30081  0.81233  1.0000
  C   C1415     1.0  0.35921  0.34495  0.89028  1.0000
  C   C1416     1.0  0.34112  0.34477  0.89730  1.0000
  C   C1417     1.0  0.33436  0.32996  0.89774  1.0000
  C   C1418     1.0  0.34569  0.31528  0.89129  1.0000
  C   C1419     1.0  0.36345  0.31607  0.88317  1.0000
  C   C1420     1.0  0.37023  0.33085  0.88267  1.0000
  H   H1149     1.0  0.33247  0.35580  0.90291  1.0000
  H   H1150     1.0  0.32047  0.32987  0.90328  1.0000
  H   H1151     1.0  0.37212  0.30510  0.87761  1.0000
  H   H1152     1.0  0.38405  0.33114  0.87669  1.0000
  C   C1421     1.0  0.43410  0.44986  0.86330  1.0000
  C   C1422     1.0  0.43367  0.41937  0.85180  1.0000
  C   C1423     1.0  0.43021  0.41923  0.87005  1.0000
  C   C1424     1.0  0.43051  0.43447  0.87581  1.0000
  H   H1153     1.0  0.42746  0.40737  0.87968  1.0000
  H   H1154     1.0  0.42817  0.43429  0.88989  1.0000
  Fe  Fe112     1.0  0.12414  0.03455  0.78671  1.0000
  C   C1425     1.0  0.30457  0.32243  0.84048  1.0000
  C   C1426     1.0  0.20557  0.28360  0.89656  1.0000
  C   C1427     1.0  0.21670  0.28205  0.90819  1.0000
  C   C1428     1.0  0.21430  0.29562  0.91733  1.0000
  C   C1429     1.0  0.20082  0.31079  0.91478  1.0000
  C   C1430     1.0  0.18986  0.31265  0.90276  1.0000
  C   C1431     1.0  0.19198  0.29868  0.89410  1.0000
  P   P47       1.0  0.17192  0.33189  0.90031  1.0000
  C   C1432     1.0  0.15403  0.32764  0.91913  1.0000
  C   C1433     1.0  0.17883  0.35184  0.90001  1.0000
  C   C1434     1.0  0.16595  0.36684  0.90416  1.0000
  C   C1435     1.0  0.17110  0.38269  0.90303  1.0000
  C   C1436     1.0  0.18910  0.38372  0.89761  1.0000
  C   C1437     1.0  0.20195  0.36895  0.89307  1.0000
  C   C1438     1.0  0.19686  0.35306  0.89427  1.0000
  C   C1439     1.0  0.15322  0.33245  0.93519  1.0000
  C   C1440     1.0  0.13947  0.32892  0.94986  1.0000
  H   H1155     1.0  0.01605  0.05296  0.87128  1.0000
  C   C1441     1.0  0.12742  0.31544  0.93275  1.0000
  C   C1442     1.0  0.14122  0.31882  0.91810  1.0000
  C   C1443     1.0  0.16461  0.33673  0.87951  1.0000
  C   C1444     1.0  0.14704  0.34581  0.87851  1.0000
  C   C1445     1.0  0.17672  0.33300  0.86390  1.0000
  H   H1156     1.0  0.20740  0.27308  0.88944  1.0000
  H   H1157     1.0  0.22718  0.27035  0.91015  1.0000
  H   H1158     1.0  0.22293  0.29436  0.92638  1.0000
  H   H1159     1.0  0.19895  0.32104  0.92222  1.0000
  H   H1160     1.0  0.18319  0.29931  0.88546  1.0000
  H   H1161     1.0  0.15191  0.36633  0.90831  1.0000
  H   H1162     1.0  0.16105  0.39411  0.90652  1.0000
  H   H1163     1.0  0.19308  0.39594  0.89702  1.0000
  H   H1164     1.0  0.21590  0.36975  0.88870  1.0000
  H   H1165     1.0  0.20699  0.34185  0.89051  1.0000
  H   H1166     1.0  0.16314  0.33897  0.93643  1.0000
  S   S215      1.0  0.12875  0.00747  0.78070  1.0000
  H   H1167     1.0  0.23629  0.38360  0.81321  1.0000
  H   H1168     1.0  0.11716  0.30923  0.93169  1.0000
  H   H1169     1.0  0.14176  0.31468  0.90595  1.0000
  H   H1170     1.0  0.13757  0.34926  0.89026  1.0000
  H   H1171     1.0  0.19037  0.32617  0.86424  1.0000
  C   C1446     1.0  0.21100  0.39564  0.82748  1.0000
  C   C1447     1.0  0.19607  0.39287  0.84099  1.0000
  C   C1448     1.0  0.48456  0.39560  0.82777  1.0000
  C   C1449     1.0  0.00112  0.45988  0.94108  1.0000
  H   H1172     1.0  0.21553  0.02217  0.79935  1.0000
  H   H1173     1.0  0.01194  0.12500  0.80642  1.0000
  H   H1174     1.0  0.42700  0.44587  0.94531  1.0000
  C   C1450     1.0  0.00467  0.45225  0.92620  1.0000
  H   H1175     1.0  0.33062  0.27384  0.87417  1.0000
  H   H1176     1.0  0.41427  0.26310  0.81684  1.0000
  C   C1451     1.0  0.33880  0.35010  0.96264  1.0000
  C   C1452     1.0  0.41186  0.34214  0.95963  1.0000
  C   C1453     1.0  0.33344  0.24700  0.88900  1.0000
  C   C1454     1.0  0.38888  0.29166  0.84336  1.0000
  H   H1177     1.0  0.30995  0.36378  0.79885  1.0000
  C   C1455     1.0  0.40160  0.29978  0.96662  1.0000
  H   H1178     1.0  0.06235  0.13639  0.80592  1.0000
  C   C1456     1.0  0.01054  0.28117  0.88526  1.0000
  C   C1457     1.0  0.00950  0.29927  0.88374  1.0000
  C   C1458     1.0  0.13461  0.17217  0.78620  1.0000
  H   H1179     1.0  0.00754  0.10003  0.83281  1.0000
  C   C1459     1.0  0.09338  0.30629  0.79726  1.0000
  H   H1180     1.0  0.33606  0.18664  0.97223  1.0000
  H   H1181     1.0  0.24439  0.08082  0.79659  1.0000
  S   S216      1.0  0.44634  0.47795  0.78951  1.0000
  C   C1460     1.0  0.40249  0.26996  0.82476  1.0000
  C   C1461     1.0  0.00277  0.43461  0.86008  1.0000
  C   C1462     1.0  0.02128  0.44125  0.92134  1.0000
  H   H1182     1.0  0.25239  0.30657  0.83552  1.0000
  C   C1463     1.0  0.32164  0.27634  0.97074  1.0000
  C   C1464     1.0  0.01415  0.45651  0.95115  1.0000
  H   H1183     1.0  0.06875  0.27398  0.80772  1.0000
  H   H1184     1.0  0.32684  0.41604  0.78172  1.0000
  H   H1185     1.0  0.46619  0.37829  0.83249  1.0000
  H   H1186     1.0  0.02246  0.33989  0.79397  1.0000
  H   H1187     1.0  0.01891  0.27145  0.89362  1.0000
  H   H1188     1.0  0.01714  0.30350  0.89083  1.0000
  C   C1465     1.0  0.01058  0.29500  0.80268  1.0000
  Fe  Fe113     1.0  0.16471  0.37714  0.96907  1.0000
  H   H1189     1.0  0.07197  0.30264  0.82037  1.0000
  H   H1190     1.0  0.45498  0.25637  0.94899  1.0000
  C   C1466     1.0  0.23836  0.34300  0.79628  1.0000
  H   H1191     1.0  0.34367  0.42942  0.91246  1.0000
  C   C1467     1.0  0.99798  0.46062  0.83653  1.0000
  C   C1468     1.0  0.33510  0.25222  0.82107  1.0000
  C   C1469     1.0  0.02470  0.40293  0.79845  1.0000
  C   C1470     1.0  0.01724  0.15004  0.79066  1.0000
  P   P48       1.0  0.10391  0.28304  0.80015  1.0000
  C   C1471     1.0  0.33590  0.25999  0.87346  1.0000
  H   H1192     1.0  0.34392  0.24447  0.77914  1.0000
  H   H1193     1.0  0.16534  0.00670  0.80944  1.0000
  C   C1472     1.0  0.07537  0.08597  0.83159  1.0000
  H   H1194     1.0  0.43383  0.42215  0.80275  1.0000
  C   C1473     1.0  0.32199  0.32383  0.83156  1.0000
  P   P49       1.0  0.04398  0.10664  0.82129  1.0000
  C   C1474     1.0  0.03366  0.09065  0.81733  1.0000
  C   C1475     1.0  0.03583  0.10994  0.84392  1.0000
  C   C1476     1.0  0.03032  0.09609  0.85763  1.0000
  C   C1477     1.0  0.02387  0.09867  0.87511  1.0000
  C   C1478     1.0  0.02307  0.11503  0.87908  1.0000
  C   C1479     1.0  0.02882  0.12876  0.86558  1.0000
  C   C1480     1.0  0.03511  0.12629  0.84806  1.0000
  Fe  Fe114     1.0  0.09708  0.02571  0.82089  1.0000
  S   S217      1.0  0.12662  0.02427  0.81519  1.0000
  C   C1481     1.0  0.03566  0.06559  0.80413  1.0000
  C   C1482     1.0  0.04368  0.07802  0.80705  1.0000
  H   H1195     1.0  0.02850  0.02216  0.83092  1.0000
  C   C1483     1.0  0.09336  0.27402  0.78782  1.0000
  H   H1196     1.0  0.00267  0.26148  0.87696  1.0000
  C   C1484     1.0  0.04872  0.39786  0.95502  1.0000
  H   H1197     1.0  0.06717  0.08216  0.84458  1.0000
  C   C1485     1.0  0.02152  0.00601  0.88989  1.0000
  H   H1198     1.0  0.03089  0.08334  0.85482  1.0000
  H   H1199     1.0  0.41634  0.45099  0.80866  1.0000
  H   H1200     1.0  0.01780  0.11715  0.89256  1.0000
  H   H1201     1.0  0.02801  0.14154  0.86860  1.0000
  H   H1202     1.0  0.03920  0.13727  0.83785  1.0000
  H   H1203     1.0  0.05777  0.07741  0.80157  1.0000
  C   C1486     1.0  0.38694  0.35883  0.94586  1.0000
  C   C1487     1.0  0.33533  0.30849  0.83028  1.0000
  C   C1488     1.0  0.99439  0.27410  0.80021  1.0000
  C   C1489     1.0  0.09818  0.14023  0.78134  1.0000
  C   C1490     1.0  0.29277  0.34629  0.80029  1.0000
  H   H1204     1.0  0.34024  0.43071  0.94411  1.0000
  C   C1491     1.0  0.31465  0.34449  0.95248  1.0000
  C   C1492     1.0  0.31607  0.18890  0.93582  1.0000
  H   H1205     1.0  0.47638  0.40773  0.94571  1.0000
  C   C1493     1.0  0.22468  0.36427  0.83473  1.0000
  C   C1494     1.0  0.01945  0.02294  0.79521  1.0000
  S   S218      1.0  0.43394  0.40074  0.84368  1.0000
  H   H1206     1.0  0.14765  0.12084  0.78435  1.0000
  C   C1495     1.0  0.37208  0.28821  0.84472  1.0000
  C   C1496     1.0  0.02148  0.34976  0.78177  1.0000
  C   C1497     1.0  0.33037  0.32137  0.97269  1.0000
  C   C1498     1.0  0.10348  0.13747  0.79748  1.0000
  C   C1499     1.0  0.15617  0.28740  0.79023  1.0000
  H   H1207     1.0  0.04359  0.05554  0.79668  1.0000
  H   H1208     1.0  0.02377  0.44691  0.84221  1.0000
  H   H1209     1.0  0.99006  0.22038  0.79380  1.0000
  C   C1500     1.0  0.06785  0.09808  0.81784  1.0000
  H   H1210     1.0  0.28826  0.38015  0.82096  1.0000
  H   H1211     1.0  0.00325  0.40578  0.93554  1.0000
  H   H1212     1.0  0.00754  0.99764  0.87468  1.0000
  C   C1501     1.0  0.03040  0.03021  0.77966  1.0000
  H   H1213     1.0  0.11144  0.46397  0.89813  1.0000
  H   H1214     1.0  0.02612  0.38024  0.92584  1.0000
  C   C1502     1.0  0.46855  0.41956  0.93888  1.0000
  C   C1503     1.0  0.28463  0.22728  0.96435  1.0000
  H   H1215     1.0  0.46750  0.43872  0.87176  1.0000
  C   C1504     1.0  0.05192  0.38582  0.97073  1.0000
  H   H1216     1.0  0.47631  0.33299  0.96327  1.0000
  C   C1505     1.0  0.01945  0.40751  0.81516  1.0000
  H   H1217     1.0  0.16688  0.47759  0.93720  1.0000
  H   H1218     1.0  0.10529  0.09645  0.78462  1.0000
  H   H1219     1.0  0.05451  0.26125  0.79120  1.0000
  H   H1220     1.0  0.13054  0.30354  0.79872  1.0000
  H   H1221     1.0  0.46942  0.44923  0.89921  1.0000
  H   H1222     1.0  0.08590  0.41562  0.94475  1.0000
  C   C1506     1.0  0.30198  0.21902  0.92390  1.0000
  C   C1507     1.0  0.15356  0.34653  0.84684  1.0000
  C   C1508     1.0  0.07579  0.34217  0.79198  1.0000
  H   H1223     1.0  0.99815  0.42065  0.83331  1.0000
  H   H1224     1.0  0.02136  0.37109  0.79356  1.0000
  H   H1225     1.0  0.41456  0.35568  0.93220  1.0000
  C   C1509     1.0  0.34136  0.33260  0.97248  1.0000
  C   C1510     1.0  0.00087  0.02845  0.79765  1.0000
  C   C1511     1.0  0.37493  0.35494  0.96213  1.0000
  H   H1226     1.0  0.38934  0.30804  0.96297  1.0000
  C   C1512     1.0  0.10379  0.27274  0.85325  1.0000
  C   C1513     1.0  0.22516  0.38135  0.82418  1.0000
  C   C1514     1.0  0.34473  0.40224  0.95330  1.0000
  C   C1515     1.0  0.99308  0.04154  0.78461  1.0000
  C   C1516     1.0  0.34489  0.41725  0.92251  1.0000
  C   C1517     1.0  0.00492  0.39314  0.89101  1.0000
  C   C1518     1.0  0.47405  0.39316  0.88499  1.0000
  C   C1519     1.0  0.39650  0.25868  0.95910  1.0000
  C   C1520     1.0  0.13741  0.26299  0.78823  1.0000
  H   H1227     1.0  0.28679  0.30459  0.85419  1.0000
  C   C1521     1.0  0.05481  0.41385  0.87775  1.0000
  C   C1522     1.0  0.06094  0.40865  0.94531  1.0000
  C   C1523     1.0  0.06883  0.32987  0.80643  1.0000
  C   C1524     1.0  0.03460  0.43804  0.93122  1.0000
  H   H1228     1.0  0.38400  0.26835  0.95971  1.0000
  H   H1229     1.0  0.00320  0.47059  0.82569  1.0000
  C   C1525     1.0  0.23203  0.20511  0.78503  1.0000
  C   C1526     1.0  0.34015  0.41636  0.78264  1.0000
  H   H1230     1.0  0.99389  0.07762  0.82806  1.0000
  C   C1527     1.0  0.01721  0.38339  0.90159  1.0000
  C   C1528     1.0  0.19066  0.01357  0.80625  1.0000
  C   C1529     1.0  0.34348  0.23131  0.97245  1.0000
  C   C1530     1.0  0.33401  0.24537  0.80694  1.0000
  H   H1231     1.0  0.38243  0.36707  0.93411  1.0000
  H   H1232     1.0  0.02016  0.30349  0.79684  1.0000
  C   C1531     1.0  0.42480  0.42495  0.77862  1.0000
  H   H1233     1.0  0.11572  0.31801  0.95987  1.0000
  H   H1234     1.0  0.09386  0.14110  0.80911  1.0000
  C   C1532     1.0  0.40404  0.28258  0.83336  1.0000
  H   H1235     1.0  0.36595  0.27751  0.79900  1.0000
  C   C1533     1.0  0.41740  0.23632  0.97484  1.0000
  H   H1236     1.0  0.03882  0.01187  0.90351  1.0000
  H   H1237     1.0  0.10676  0.27913  0.86234  1.0000
  H   H1238     1.0  0.35471  0.24497  0.92748  1.0000
  C   C1534     1.0  0.12657  0.32044  0.94863  1.0000
  C   C1535     1.0  0.41515  0.44695  0.79716  1.0000
  C   C1536     1.0  0.36054  0.46563  0.78854  1.0000
  C   C1537     1.0  0.99113  0.24477  0.85928  1.0000
  H   H1239     1.0  0.36048  0.29515  0.85281  1.0000
  H   H1240     1.0  0.32644  0.24895  0.83389  1.0000
  H   H1241     1.0  0.05288  0.43686  0.88810  1.0000
  H   H1242     1.0  0.19187  0.00746  0.81988  1.0000
  C   C1538     1.0  0.01764  0.06562  0.81151  1.0000
  S   S219      1.0  0.36266  0.33558  0.77823  1.0000
  C   C1539     1.0  0.07597  0.27103  0.79486  1.0000
  C   C1540     1.0  0.10059  0.27302  0.82356  1.0000
  H   H1243     1.0  0.22111  0.38275  0.96547  1.0000
  C   C1541     1.0  0.00664  0.28518  0.79244  1.0000
  P   P50       1.0  0.24204  0.34547  0.82956  1.0000
  C   C1542     1.0  0.01554  0.09057  0.82466  1.0000
  C   C1543     1.0  0.27725  0.30063  0.77831  1.0000
  C   C1544     1.0  0.37910  0.40535  0.86099  1.0000
  C   C1545     1.0  0.38477  0.42144  0.85425  1.0000
  C   C1546     1.0  0.38663  0.42890  0.83609  1.0000
  C   C1547     1.0  0.38307  0.42019  0.82455  1.0000
  C   C1548     1.0  0.37736  0.40397  0.83119  1.0000
  C   C1549     1.0  0.37544  0.39665  0.84954  1.0000
  P   P51       1.0  0.37501  0.39137  0.81617  1.0000
  C   C1550     1.0  0.36477  0.40586  0.79827  1.0000
  C   C1551     1.0  0.39678  0.38083  0.80536  1.0000
  C   C1552     1.0  0.39818  0.37212  0.79159  1.0000
  C   C1553     1.0  0.32415  0.22326  0.95781  1.0000
  C   C1554     1.0  0.03469  0.98274  0.87300  1.0000
  C   C1555     1.0  0.42902  0.37265  0.80214  1.0000
  C   C1556     1.0  0.41239  0.38149  0.81020  1.0000
  C   C1557     1.0  0.34725  0.40605  0.79736  1.0000
  H   H1244     1.0  0.32227  0.36967  0.94564  1.0000
  C   C1558     1.0  0.13747  0.29136  0.79411  1.0000
  H   H1245     1.0  0.33859  0.21898  0.90062  1.0000
  H   H1246     1.0  0.20858  0.34837  0.85583  1.0000
  C   C1559     1.0  0.36170  0.37504  0.82878  1.0000
  C   C1560     1.0  0.34541  0.38025  0.84026  1.0000
  C   C1561     1.0  0.33550  0.36761  0.85074  1.0000
  C   C1562     1.0  0.34171  0.34968  0.84981  1.0000
  C   C1563     1.0  0.35786  0.34437  0.83843  1.0000
  C   C1564     1.0  0.36784  0.35696  0.82803  1.0000
  H   H1247     1.0  0.37812  0.39923  0.87500  1.0000
  H   H1248     1.0  0.38826  0.42787  0.86299  1.0000
  H   H1249     1.0  0.39145  0.44113  0.83095  1.0000
  H   H1250     1.0  0.38542  0.42583  0.81046  1.0000
  H   H1251     1.0  0.37183  0.38381  0.85507  1.0000
  H   H1252     1.0  0.32162  0.27643  0.95709  1.0000
  H   H1253     1.0  0.09121  0.39454  0.97234  1.0000
  H   H1254     1.0  0.13561  0.45090  0.92643  1.0000
  H   H1255     1.0  0.44093  0.37269  0.80641  1.0000
  H   H1256     1.0  0.41185  0.38859  0.82033  1.0000
  H   H1257     1.0  0.33918  0.39789  0.80761  1.0000
  C   C1565     1.0  0.20313  0.46067  0.97296  1.0000
  C   C1566     1.0  0.08347  0.46513  0.90963  1.0000
  C   C1567     1.0  0.38573  0.26648  0.82605  1.0000
  H   H1258     1.0  0.46071  0.39317  0.88383  1.0000
  H   H1259     1.0  0.34059  0.39405  0.84138  1.0000
  H   H1260     1.0  0.32318  0.37161  0.85990  1.0000
  H   H1261     1.0  0.33419  0.33983  0.85815  1.0000
  H   H1262     1.0  0.36283  0.33044  0.83792  1.0000
  H   H1263     1.0  0.38044  0.35244  0.81971  1.0000
  H   H1264     1.0  0.18349  0.37357  0.86133  1.0000
  H   H1265     1.0  0.44593  0.41933  0.96079  1.0000
  C   C1568     1.0  0.26817  0.36494  0.82477  1.0000
  C   C1569     1.0  0.23392  0.33709  0.81482  1.0000
  H   H1266     1.0  0.46487  0.41318  0.90055  1.0000
  H   H1267     1.0  0.32513  0.33677  0.82535  1.0000
  H   H1268     1.0  0.06067  0.02238  0.82638  1.0000
  C   C1570     1.0  0.42882  0.23385  0.95862  1.0000
  P   P52       1.0  0.38934  0.47848  0.79063  1.0000
  H   H1269     1.0  0.44820  0.36726  0.91215  1.0000
  C   C1571     1.0  0.24518  0.32856  0.84920  1.0000
  S   S220      1.0  0.05371  0.21930  0.80240  1.0000
  C   C1572     1.0  0.27620  0.34160  0.80790  1.0000
  H   H1270     1.0  0.32608  0.25101  0.90132  1.0000
  H   H1271     1.0  0.16356  0.29660  0.79136  1.0000
  C   C1573     1.0  0.24315  0.33328  0.86559  1.0000
  C   C1574     1.0  0.24517  0.32006  0.88086  1.0000
  C   C1575     1.0  0.24940  0.30213  0.87980  1.0000
  C   C1576     1.0  0.25178  0.29736  0.86347  1.0000
  C   C1577     1.0  0.25003  0.31053  0.84815  1.0000
  C   C1578     1.0  0.23118  0.33712  0.78504  1.0000
  S   S221      1.0  0.44695  0.32991  0.91725  1.0000
  H   H1272     1.0  0.27337  0.33037  0.80451  1.0000
  C   C1579     1.0  0.44725  0.44934  0.92138  1.0000
  C   C1580     1.0  0.20190  0.40691  0.96911  1.0000
  H   H1273     1.0  0.24005  0.34711  0.86662  1.0000
  H   H1274     1.0  0.24354  0.32369  0.89353  1.0000
  H   H1275     1.0  0.25101  0.29192  0.89163  1.0000
  H   H1276     1.0  0.25508  0.28345  0.86263  1.0000
  C   C1581     1.0  0.20951  0.36155  0.84805  1.0000
  S   S222      1.0  0.99724  0.03821  0.85345  1.0000
  C   C1582     1.0  0.30835  0.20641  0.93807  1.0000
  H   H1277     1.0  0.45993  0.38276  0.92876  1.0000
  H   H1278     1.0  0.01026  0.01627  0.89401  1.0000
  H   H1279     1.0  0.05812  0.99182  0.80841  1.0000
  C   C1583     1.0  0.01294  0.40845  0.78660  1.0000
  H   H1280     1.0  0.35024  0.27225  0.96643  1.0000
  H   H1281     1.0  0.18038  0.33443  0.83573  1.0000
  H   H1282     1.0  0.14910  0.34972  0.83436  1.0000
  H   H1283     1.0  0.08069  0.47917  0.90970  1.0000
  C   C1584     1.0  0.47018  0.34051  0.95218  1.0000
  C   C1585     1.0  0.02000  0.99548  0.87895  1.0000
  P   P53       1.0  0.05641  0.42423  0.92515  1.0000
  H   H1284     1.0  0.41859  0.31101  0.94268  1.0000
  C   C1586     1.0  0.05701  0.41268  0.90806  1.0000
  C   C1587     1.0  0.05479  0.42249  0.89103  1.0000
  H   H1285     1.0  0.38635  0.37178  0.78733  1.0000
  C   C1588     1.0  0.05749  0.39532  0.88122  1.0000
  H   H1286     1.0  0.44305  0.35620  0.78302  1.0000
  C   C1589     1.0  0.37503  0.41602  0.78415  1.0000
  C   C1590     1.0  0.21523  0.21608  0.78416  1.0000
  P   P54       1.0  0.35134  0.36514  0.96484  1.0000
  H   H1287     1.0  0.41700  0.28545  0.83212  1.0000
  H   H1288     1.0  0.32119  0.17888  0.94642  1.0000
  C   C1591     1.0  0.07341  0.43732  0.91609  1.0000
  C   C1592     1.0  0.09075  0.42899  0.90894  1.0000
  C   C1593     1.0  0.10444  0.43852  0.90264  1.0000
  C   C1594     1.0  0.10081  0.45660  0.90298  1.0000
  H   H1289     1.0  0.09743  0.22944  0.79397  1.0000
  C   C1595     1.0  0.06979  0.45554  0.91627  1.0000
  C   C1596     1.0  0.46362  0.33175  0.94273  1.0000
  C   C1597     1.0  0.00103  0.34696  0.82857  1.0000
  Fe  Fe115     1.0  0.15122  0.41737  0.96127  1.0000
  H   H1290     1.0  0.09914  0.06846  0.83911  1.0000
  Fe  Fe116     1.0  0.13238  0.39308  0.95198  1.0000
  H   H1291     1.0  0.32972  0.23126  0.92908  1.0000
  C   C1598     1.0  0.31714  0.32717  0.96259  1.0000
  H   H1292     1.0  0.02720  0.37226  0.89728  1.0000
  C   C1599     1.0  0.34989  0.22406  0.87251  1.0000
  H   H1293     1.0  0.09382  0.41494  0.90871  1.0000
  H   H1294     1.0  0.11791  0.43173  0.89776  1.0000
  H   H1295     1.0  0.00577  0.30113  0.82846  1.0000
  C   C1600     1.0  0.99445  0.16424  0.85727  1.0000
  C   C1601     1.0  0.00765  0.07802  0.82183  1.0000
  C   C1602     1.0  0.37719  0.32023  0.92720  1.0000
  C   C1603     1.0  0.35917  0.31944  0.93149  1.0000
  C   C1604     1.0  0.35410  0.30339  0.93340  1.0000
  C   C1605     1.0  0.36708  0.28812  0.93069  1.0000
  C   C1606     1.0  0.38526  0.28889  0.92587  1.0000
  C   C1607     1.0  0.39020  0.30499  0.92449  1.0000
  P   P55       1.0  0.40207  0.26924  0.92203  1.0000
  C   C1608     1.0  0.40795  0.25638  0.94275  1.0000
  C   C1609     1.0  0.39380  0.25611  0.91167  1.0000
  C   C1610     1.0  0.39870  0.23746  0.91527  1.0000
  C   C1611     1.0  0.39292  0.22758  0.90641  1.0000
  C   C1612     1.0  0.38226  0.23626  0.89390  1.0000
  C   C1613     1.0  0.37716  0.25479  0.89043  1.0000
  C   C1614     1.0  0.38286  0.26464  0.89930  1.0000
  C   C1615     1.0  0.42416  0.24390  0.94262  1.0000
  H   H1296     1.0  0.01157  0.05558  0.80988  1.0000
  C   C1616     1.0  0.06033  0.39402  0.91124  1.0000
  C   C1617     1.0  0.44054  0.44098  0.93873  1.0000
  C   C1618     1.0  0.12132  0.13042  0.79855  1.0000
  C   C1619     1.0  0.42171  0.27608  0.90717  1.0000
  C   C1620     1.0  0.42451  0.27726  0.88873  1.0000
  C   C1621     1.0  0.43923  0.28351  0.87729  1.0000
  C   C1622     1.0  0.45105  0.28900  0.88407  1.0000
  C   C1623     1.0  0.44842  0.28780  0.90240  1.0000
  C   C1624     1.0  0.43392  0.28119  0.91393  1.0000
  C   C1625     1.0  0.98961  0.22259  0.77988  1.0000
  H   H1297     1.0  0.34915  0.33143  0.93276  1.0000
  H   H1298     1.0  0.34007  0.30292  0.93644  1.0000
  H   H1299     1.0  0.36285  0.27589  0.93196  1.0000
  C   C1626     1.0  0.15607  0.25901  0.78454  1.0000
  H   H1300     1.0  0.40711  0.23047  0.92472  1.0000
  H   H1301     1.0  0.39687  0.21320  0.90910  1.0000
  H   H1302     1.0  0.37804  0.22865  0.88682  1.0000
  H   H1303     1.0  0.36883  0.26163  0.88081  1.0000
  H   H1304     1.0  0.37886  0.27896  0.89637  1.0000
  H   H1305     1.0  0.43318  0.24192  0.93012  1.0000
  H   H1306     1.0  0.19562  0.40715  0.95839  1.0000
  H   H1307     1.0  0.21731  0.32172  0.83621  1.0000
  C   C1627     1.0  0.09433  0.24831  0.84795  1.0000
  C   C1628     1.0  0.33347  0.23105  0.94126  1.0000
  H   H1308     1.0  0.41526  0.27375  0.88300  1.0000
  H   H1309     1.0  0.44118  0.28467  0.86304  1.0000
  H   H1310     1.0  0.36627  0.45330  0.79659  1.0000
  H   H1311     1.0  0.45728  0.29258  0.90760  1.0000
  H   H1312     1.0  0.43187  0.28073  0.92803  1.0000
  C   C1629     1.0  0.15166  0.25345  0.83232  1.0000
  C   C1630     1.0  0.16692  0.24902  0.83955  1.0000
  C   C1631     1.0  0.17545  0.23122  0.84384  1.0000
  C   C1632     1.0  0.16887  0.21784  0.84069  1.0000
  C   C1633     1.0  0.15405  0.22225  0.83260  1.0000
  C   C1634     1.0  0.14520  0.24011  0.82894  1.0000
  P   P56       1.0  0.14495  0.20510  0.82902  1.0000
  C   C1635     1.0  0.16202  0.18534  0.82583  1.0000
  C   C1636     1.0  0.12695  0.20017  0.84770  1.0000
  C   C1637     1.0  0.11452  0.19111  0.84622  1.0000
  C   C1638     1.0  0.09986  0.18843  0.86008  1.0000
  C   C1639     1.0  0.09753  0.19462  0.87564  1.0000
  C   C1640     1.0  0.10992  0.20345  0.87736  1.0000
  C   C1641     1.0  0.12459  0.20621  0.86348  1.0000
  C   C1642     1.0  0.15755  0.16852  0.83039  1.0000
  C   C1643     1.0  0.17046  0.15349  0.82662  1.0000
  C   C1644     1.0  0.18798  0.15507  0.81838  1.0000
  C   C1645     1.0  0.19260  0.17169  0.81387  1.0000
  C   C1646     1.0  0.17968  0.18679  0.81738  1.0000
  C   C1647     1.0  0.13654  0.21313  0.80862  1.0000
  C   C1648     1.0  0.14822  0.21213  0.79208  1.0000
  C   C1649     1.0  0.35643  0.26111  0.78742  1.0000
  C   C1650     1.0  0.35023  0.38512  0.93052  1.0000
  C   C1651     1.0  0.11167  0.22501  0.79338  1.0000
  C   C1652     1.0  0.11823  0.21990  0.80908  1.0000
  H   H1313     1.0  0.14486  0.26724  0.82938  1.0000
  H   H1314     1.0  0.17205  0.25935  0.84202  1.0000
  H   H1315     1.0  0.18717  0.22781  0.84963  1.0000
  H   H1316     1.0  0.17539  0.20411  0.84460  1.0000
  H   H1317     1.0  0.13322  0.24371  0.82362  1.0000
  H   H1318     1.0  0.11585  0.18654  0.83413  1.0000
  H   H1319     1.0  0.09019  0.18172  0.85858  1.0000
  H   H1320     1.0  0.08605  0.19266  0.88630  1.0000
  H   H1321     1.0  0.10806  0.20832  0.88941  1.0000
  H   H1322     1.0  0.13387  0.21327  0.86506  1.0000
  H   H1323     1.0  0.14407  0.16690  0.83653  1.0000
  H   H1324     1.0  0.16683  0.14062  0.82982  1.0000
  H   H1325     1.0  0.19793  0.14348  0.81519  1.0000
  H   H1326     1.0  0.20615  0.17293  0.80730  1.0000
  H   H1327     1.0  0.18346  0.19962  0.81310  1.0000
  H   H1328     1.0  0.16236  0.20686  0.79122  1.0000
  H   H1329     1.0  0.08371  0.45040  0.97477  1.0000
  C   C1653     1.0  0.34482  0.24967  0.79015  1.0000
  H   H1330     1.0  0.30785  0.25457  0.78354  1.0000
  H   H1331     1.0  0.10885  0.22080  0.82155  1.0000
  C   C1654     1.0  0.45437  0.35976  0.92323  1.0000
  H   H1332     1.0  0.01198  0.42440  0.86708  1.0000
  C   C1655     1.0  0.34297  0.41796  0.94034  1.0000
  C   C1656     1.0  0.28480  0.36953  0.81717  1.0000
  C   C1657     1.0  0.41801  0.30134  0.95516  1.0000
  C   C1658     1.0  0.37787  0.47697  0.85113  1.0000
  C   C1659     1.0  0.02173  0.13332  0.80153  1.0000
  C   C1660     1.0  0.23681  0.18909  0.77883  1.0000
  S   S223      1.0  0.18231  0.09989  0.78618  1.0000
  H   H1333     1.0  0.13040  0.25302  0.78822  1.0000
  H   H1334     1.0  0.99453  0.45495  0.91839  1.0000
  C   C1661     1.0  0.09528  0.25662  0.83002  1.0000
  C   C1662     1.0  0.43382  0.29099  0.96007  1.0000
  H   H1335     1.0  0.30440  0.34899  0.94460  1.0000
  H   H1336     1.0  0.10901  0.29369  0.83066  1.0000
  C   C1663     1.0  0.03764  0.00358  0.89514  1.0000
  C   C1664     1.0  0.16984  0.08741  0.78063  1.0000
  C   C1665     1.0  0.37031  0.27599  0.83557  1.0000
  C   C1666     1.0  0.31016  0.19655  0.90600  1.0000
  H   H1337     1.0  0.25899  0.37198  0.83461  1.0000
  H   H1338     1.0  0.05283  0.42148  0.86472  1.0000
  C   C1667     1.0  0.34044  0.22904  0.88855  1.0000
  C   C1668     1.0  0.09355  0.07809  0.82852  1.0000
  H   H1339     1.0  0.00567  0.38940  0.87859  1.0000
  H   H1340     1.0  0.35013  0.40012  0.90379  1.0000
  P   P57       1.0  0.30608  0.21267  0.95905  1.0000
  H   H1341     1.0  0.06288  0.37102  0.90048  1.0000
  C   C1669     1.0  0.21428  0.32025  0.81069  1.0000
  C   C1670     1.0  0.23995  0.07264  0.79029  1.0000
  C   C1671     1.0  0.40531  0.35244  0.94467  1.0000
  C   C1672     1.0  0.46101  0.36851  0.93264  1.0000
  H   H1342     1.0  0.12552  0.12854  0.81097  1.0000
  S   S224      1.0  0.47700  0.37041  0.95868  1.0000
  H   H1343     1.0  0.12775  0.35689  0.86169  1.0000
  H   H1344     1.0  0.31054  0.19273  0.89371  1.0000
  C   C1673     1.0  0.45565  0.34134  0.92828  1.0000
  H   H1345     1.0  0.04087  0.44336  0.95408  1.0000
  H   H1346     1.0  0.99816  0.32590  0.87158  1.0000
  H   H1347     1.0  0.02348  0.43532  0.90996  1.0000
  C   C1674     1.0  0.00240  0.41757  0.82019  1.0000
  H   H1348     1.0  0.40403  0.30602  0.92097  1.0000
  H   H1349     1.0  0.20514  0.31129  0.81635  1.0000
  H   H1350     1.0  0.02538  0.01285  0.80530  1.0000
  H   H1351     1.0  0.18501  0.40388  0.84343  1.0000
  C   C1675     1.0  0.09692  0.09376  0.79778  1.0000
  C   C1676     1.0  0.09857  0.25638  0.85957  1.0000
  S   S225      1.0  0.44895  0.35059  0.86571  1.0000
  H   H1352     1.0  0.20929  0.44907  0.96722  1.0000
  S   S226      1.0  0.12259  0.41507  0.96754  1.0000
  C   C1677     1.0  0.07757  0.31199  0.80908  1.0000
  H   H1353     1.0  0.14638  0.47680  0.90555  1.0000
  C   C1678     1.0  0.43717  0.44997  0.84514  1.0000
  C   C1679     1.0  0.07924  0.39559  0.96760  1.0000
  H   H1354     1.0  0.43949  0.46180  0.83536  1.0000
  C   C1680     1.0  0.43717  0.43476  0.83943  1.0000
  H   H1355     1.0  0.05545  0.99162  0.84003  1.0000
  H   H1356     1.0  0.35993  0.23303  0.84463  1.0000
  C   C1681     1.0  0.34714  0.26328  0.81859  1.0000
  C   C1682     1.0  0.14149  0.35047  0.86227  1.0000
  C   C1683     1.0  0.13381  0.12608  0.78351  1.0000
  H   H1357     1.0  0.29727  0.22369  0.89738  1.0000
  H   H1358     1.0  0.38105  0.33280  0.92538  1.0000
  C   C1684     1.0  0.32512  0.35608  0.95284  1.0000
  C   C1685     1.0  0.00136  0.27557  0.87556  1.0000
  H   H1359     1.0  0.09722  0.25027  0.87360  1.0000
  H   H1360     1.0  0.06475  0.98925  0.89338  1.0000
  H   H1361     1.0  0.44000  0.43495  0.82532  1.0000
  C   C1686     1.0  0.34851  0.40082  0.91761  1.0000
  C   C1687     1.0  0.09138  0.33655  0.78000  1.0000
  P   P58       1.0  0.34857  0.27173  0.83710  1.0000
  H   H1362     1.0  0.39022  0.30155  0.84982  1.0000
  C   C1688     1.0  0.20397  0.02195  0.79460  1.0000
  C   C1689     1.0  0.30267  0.21402  0.90805  1.0000
  C   C1690     1.0  0.16054  0.47644  0.95114  1.0000
  C   C1691     1.0  0.34776  0.23877  0.94030  1.0000
  H   H1363     1.0  0.35526  0.21014  0.87212  1.0000
  H   H1364     1.0  0.46467  0.31751  0.94671  1.0000
  C   C1692     1.0  0.15603  0.46037  0.96102  1.0000
  H   H1365     1.0  0.32273  0.17044  0.91824  1.0000
  C   C1693     1.0  0.05010  0.13970  0.80107  1.0000
  H   H1366     1.0  0.05738  0.38858  0.87098  1.0000
  C   C1694     1.0  0.10484  0.28104  0.83532  1.0000
  H   H1367     1.0  0.08436  0.14562  0.78076  1.0000
  C   C1695     1.0  0.25200  0.06371  0.77757  1.0000
  H   H1368     1.0  0.35319  0.37248  0.92644  1.0000
  H   H1369     1.0  0.34859  0.30979  0.82277  1.0000
  H   H1370     1.0  0.04479  0.02582  0.77775  1.0000
  C   C1696     1.0  0.31699  0.18402  0.91983  1.0000
  C   C1697     1.0  0.09894  0.18863  0.78547  1.0000
  H   H1371     1.0  0.01933  0.08803  0.88556  1.0000
  C   C1698     1.0  0.22143  0.32606  0.82195  1.0000
  H   H1372     1.0  0.01320  0.28602  0.77857  1.0000
  S   S227      1.0  0.00339  0.17982  0.86269  1.0000
  H   H1373     1.0  0.05675  0.33419  0.81573  1.0000
  H   H1374     1.0  0.46196  0.29461  0.87501  1.0000
  C   C1699     1.0  0.10007  0.31863  0.78252  1.0000
  C   C1700     1.0  0.07618  0.40752  0.95181  1.0000
  C   C1701     1.0  0.03085  0.44571  0.94621  1.0000
  H   H1375     1.0  0.22136  0.33047  0.97174  1.0000
  H   H1376     1.0  0.30875  0.31826  0.96276  1.0000
  H   H1377     1.0  0.27260  0.35242  0.96791  1.0000
  C   C1702     1.0  0.04576  0.15618  0.78980  1.0000
  C   C1703     1.0  0.30923  0.30374  0.78533  1.0000
  C   C1704     1.0  0.34484  0.46676  0.78301  1.0000
  C   C1705     1.0  0.33783  0.27376  0.97605  1.0000
  H   H1378     1.0  0.44130  0.22418  0.95846  1.0000
  C   C1706     1.0  0.21614  0.06116  0.78624  1.0000
  H   H1379     1.0  0.03683  0.39861  0.95031  1.0000
  S   S228      1.0  0.18823  0.35486  0.97324  1.0000
  C   C1707     1.0  0.00371  0.40227  0.92309  1.0000
  H   H1380     1.0  0.13872  0.33296  0.96211  1.0000
  C   C1708     1.0  0.06779  0.26390  0.78548  1.0000
  C   C1709     1.0  0.00241  0.29362  0.82071  1.0000
  C   C1710     1.0  0.17388  0.02117  0.78291  1.0000
  H   H1381     1.0  0.44637  0.29307  0.95123  1.0000
  C   C1711     1.0  0.21923  0.32566  0.79224  1.0000
  C   C1712     1.0  0.40003  0.33762  0.97563  1.0000
  C   C1713     1.0  0.41483  0.36335  0.78351  1.0000
  H   H1382     1.0  0.06910  0.35605  0.79015  1.0000
  C   C1714     1.0  0.47969  0.37906  0.83230  1.0000
  H   H1383     1.0  0.13656  0.98548  0.85978  1.0000
  H   H1384     1.0  0.37534  0.47632  0.86535  1.0000
  H   H1385     1.0  0.48210  0.46358  0.86909  1.0000
  C   C1715     1.0  0.48062  0.25910  0.93243  1.0000
  C   C1716     1.0  0.21632  0.39324  0.97305  1.0000
  C   C1717     1.0  0.02085  0.36757  0.78144  1.0000
  H   H1386     1.0  0.99195  0.10344  0.79479  1.0000
  H   H1387     1.0  0.03788  0.39489  0.79488  1.0000
  H   H1388     1.0  0.24225  0.23675  0.95703  1.0000
  C   C1718     1.0  0.46462  0.44286  0.91279  1.0000
  H   H1389     1.0  0.47787  0.25573  0.92117  1.0000
  C   C1719     1.0  0.40124  0.24865  0.97505  1.0000
  C   C1720     1.0  0.48759  0.26838  0.96128  1.0000
  C   C1721     1.0  0.32908  0.22375  0.97344  1.0000
  C   C1722     1.0  0.99572  0.41837  0.79188  1.0000
  C   C1723     1.0  0.39839  0.47841  0.82253  1.0000
  H   H1390     1.0  0.27145  0.21743  0.94912  1.0000
  S   S229      1.0  0.41406  0.30837  0.77652  1.0000
  C   C1724     1.0  0.10830  0.99464  0.86093  1.0000
  H   H1391     1.0  0.00115  0.21644  0.86484  1.0000
  H   H1392     1.0  0.99133  0.26636  0.79242  1.0000
  C   C1725     1.0  0.47540  0.42790  0.92148  1.0000
  C   C1726     1.0  0.43332  0.27852  0.97630  1.0000
  H   H1393     1.0  0.99365  0.47346  0.79337  1.0000
  H   H1394     1.0  0.30248  0.33888  0.79104  1.0000
  C   C1727     1.0  0.12338  0.22373  0.77704  1.0000
  C   C1728     1.0  0.12385  0.98163  0.86222  1.0000
  C   C1729     1.0  0.99893  0.31184  0.87282  1.0000
  C   C1730     1.0  0.25326  0.23708  0.96260  1.0000
  H   H1395     1.0  0.18420  0.43075  0.97585  1.0000
  H   H1396     1.0  0.21412  0.32068  0.78350  1.0000
  C   C1731     1.0  0.99121  0.41193  0.91265  1.0000
  C   C1732     1.0  0.27003  0.22635  0.95788  1.0000
  C   C1733     1.0  0.13523  0.47887  0.91658  1.0000
  H   H1397     1.0  0.35075  0.47706  0.85094  1.0000
  H   H1398     1.0  0.40563  0.47735  0.84723  1.0000
  H   H1399     1.0  0.16206  0.02113  0.77850  1.0000
  C   C1734     1.0  0.48865  0.38147  0.87732  1.0000
  C   C1735     1.0  0.99097  0.28810  0.86421  1.0000
  H   H1400     1.0  0.99271  0.02219  0.80959  1.0000
  C   C1736     1.0  0.39498  0.47755  0.84089  1.0000
  C   C1737     1.0  0.20237  0.02992  0.77694  1.0000
  C   C1738     1.0  0.20337  0.21107  0.77688  1.0000
  H   H1401     1.0  0.48651  0.37234  0.87042  1.0000
  S   S230      1.0  0.46856  0.47816  0.82527  1.0000
  H   H1402     1.0  0.20952  0.47848  0.94779  1.0000
  H   H1403     1.0  0.41178  0.47888  0.81482  1.0000
  H   H1404     1.0  0.00419  0.15452  0.78732  1.0000
  C   C1739     1.0  0.99059  0.42303  0.80858  1.0000
  C   C1740     1.0  0.38469  0.47852  0.81424  1.0000
  C   C1741     1.0  0.99025  0.28242  0.82864  1.0000
  C   C1742     1.0  0.36742  0.47818  0.82465  1.0000
  S   S231      1.0  0.13719  0.37139  0.97594  1.0000
  H   H1405     1.0  0.35646  0.47854  0.81875  1.0000
  C   C1743     1.0  0.48752  0.45445  0.86005  1.0000
  H   H1406     1.0  0.48825  0.35069  0.84000  1.0000
  C   C1744     1.0  0.36882  0.48030  0.78363  1.0000
  C   C1745     1.0  0.25073  0.24831  0.97435  1.0000
  C   C1746     1.0  0.28199  0.23876  0.97599  1.0000
  H   H1407     1.0  0.02643  0.48051  0.97639  1.0000
  H   H1408     1.0  0.02565  0.17448  0.77658  1.0000
  C   C1747     1.0  0.04130  0.65275  0.99010  1.0000
  S   S232      1.0  0.11239  0.52278  0.06084  1.0000
  Fe  Fe117     1.0  0.13280  0.49870  0.05421  1.0000
  H   H1409     1.0  0.43936  0.84976  0.05491  1.0000
  S   S233      1.0  0.15048  0.51429  0.03222  1.0000
  Fe  Fe118     1.0  0.14875  0.62884  0.10799  1.0000
  S   S234      1.0  0.16886  0.62576  0.08267  1.0000
  S   S235      1.0  0.12086  0.64491  0.11096  1.0000
  Fe  Fe119     1.0  0.17405  0.60671  0.13191  1.0000
  S   S236      1.0  0.19674  0.60175  0.10886  1.0000
  S   S237      1.0  0.17186  0.59684  0.16152  1.0000
  Fe  Fe120     1.0  0.18776  0.63063  0.09684  1.0000
  S   S238      1.0  0.20632  0.64910  0.08115  1.0000
  Fe  Fe121     1.0  0.17616  0.59725  0.09651  1.0000
  S   S239      1.0  0.18314  0.57280  0.08457  1.0000
  S   S240      1.0  0.16694  0.63594  0.12102  1.0000
  S   S241      1.0  0.15417  0.59995  0.12056  1.0000
  Fe  Fe122     1.0  0.21173  0.76924  0.08554  1.0000
  S   S242      1.0  0.21356  0.75599  0.11384  1.0000
  S   S243      1.0  0.18684  0.78938  0.07949  1.0000
  Fe  Fe123     1.0  0.24834  0.74937  0.07109  1.0000
  S   S244      1.0  0.25304  0.73377  0.09797  1.0000
  S   S245      1.0  0.26942  0.74595  0.04643  1.0000
  Fe  Fe124     1.0  0.22459  0.73091  0.10322  1.0000
  S   S246      1.0  0.21385  0.70669  0.11956  1.0000
  Fe  Fe125     1.0  0.24181  0.75999  0.10642  1.0000
  S   S247      1.0  0.25426  0.76603  0.12630  1.0000
  S   S248      1.0  0.22108  0.74379  0.07541  1.0000
  S   S249      1.0  0.23888  0.77589  0.07915  1.0000
  Fe  Fe126     1.0  0.07976  0.76705  0.03904  1.0000
  S   S250      1.0  0.09139  0.77836  0.05543  1.0000
  S   S251      1.0  0.06208  0.74859  0.05683  1.0000
  Fe  Fe127     1.0  0.09762  0.78879  0.00435  1.0000
  S   S252      1.0  0.11008  0.80200  0.01842  1.0000
  H   H1410     1.0  0.19824  0.50278  0.06165  1.0000
  Fe  Fe128     1.0  0.11664  0.77464  0.03501  1.0000
  S   S253      1.0  0.14404  0.76049  0.03967  1.0000
  Fe  Fe129     1.0  0.08339  0.80454  0.03742  1.0000
  S   S254      1.0  0.06926  0.82805  0.05037  1.0000
  S   S255      1.0  0.10573  0.76113  0.01989  1.0000
  S   S256      1.0  0.07029  0.79347  0.02213  1.0000
  Fe  Fe130     1.0  0.40571  0.86413  0.00593  1.0000
  S   S257      1.0  0.42044  0.84192  0.02424  1.0000
  S   S258      1.0  0.37964  0.88261  0.01308  1.0000
  Fe  Fe131     1.0  0.36229  0.82041  0.12006  1.0000
  S   S259      1.0  0.34174  0.84215  0.10851  1.0000
  S   S260      1.0  0.39018  0.81105  0.10528  1.0000
  C   C1748     1.0  0.13023  0.63964  0.01179  1.0000
  C   C1749     1.0  0.40256  0.95286  0.01609  1.0000
  S   S261      1.0  0.38868  0.92903  0.00675  1.0000
  Fe  Fe132     1.0  0.32307  0.82326  0.12131  1.0000
  S   S262      1.0  0.30626  0.82059  0.10331  1.0000
  Fe  Fe133     1.0  0.33508  0.85027  0.13494  1.0000
  H   H1411     1.0  0.06590  0.57986  0.07353  1.0000
  S   S263      1.0  0.34424  0.80088  0.13124  1.0000
  S   S264      1.0  0.35732  0.83007  0.14556  1.0000
  H   H1412     1.0  0.46756  0.73262  0.99651  1.0000
  C   C1750     1.0  0.08049  0.80157  0.09021  1.0000
  C   C1751     1.0  0.43611  0.94799  0.13418  1.0000
  H   H1413     1.0  0.26689  0.84072  0.06425  1.0000
  C   C1752     1.0  0.02733  0.75757  0.10760  1.0000
  S   S265      1.0  0.45028  0.96842  0.00396  1.0000
  H   H1414     1.0  0.13999  0.64692  0.00283  1.0000
  H   H1415     1.0  0.99369  0.80542  0.09906  1.0000
  Fe  Fe134     1.0  0.01308  0.65326  0.08939  1.0000
  S   S266      1.0  0.00304  0.66276  0.06381  1.0000
  H   H1416     1.0  0.01137  0.83003  0.09658  1.0000
  Fe  Fe135     1.0  0.04918  0.63363  0.07195  1.0000
  S   S267      1.0  0.04241  0.64115  0.04501  1.0000
  S   S268      1.0  0.07461  0.61476  0.07681  1.0000
  Fe  Fe136     1.0  0.03081  0.66817  0.05174  1.0000
  S   S269      1.0  0.03823  0.69151  0.03019  1.0000
  Fe  Fe137     1.0  0.01565  0.63507  0.05900  1.0000
  S   S270      1.0  0.00292  0.61419  0.05576  1.0000
  S   S271      1.0  0.03974  0.66090  0.07782  1.0000
  S   S272      1.0  0.02357  0.62535  0.08546  1.0000
  C   C1753     1.0  0.10609  0.63680  0.03762  1.0000
  H   H1417     1.0  0.15413  0.81808  0.99654  1.0000
  C   C1754     1.0  0.13383  0.48722  0.13103  1.0000
  C   C1755     1.0  0.09847  0.60855  0.14733  1.0000
  C   C1756     1.0  0.00015  0.58779  0.01983  1.0000
  C   C1757     1.0  0.02105  0.79885  0.08498  1.0000
  H   H1418     1.0  0.37100  0.81568  0.98014  1.0000
  C   C1758     1.0  0.10871  0.70340  0.01555  1.0000
  C   C1759     1.0  0.33730  0.89158  0.14528  1.0000
  C   C1760     1.0  0.35230  0.88431  0.15314  1.0000
  C   C1761     1.0  0.35914  0.89517  0.16029  1.0000
  C   C1762     1.0  0.35095  0.91324  0.15945  1.0000
  H   H1419     1.0  0.35858  0.87045  0.15364  1.0000
  C   C1763     1.0  0.12324  0.57625  0.97849  1.0000
  C   C1764     1.0  0.41085  0.83393  0.04655  1.0000
  C   C1765     1.0  0.39307  0.84032  0.05440  1.0000
  C   C1766     1.0  0.38633  0.83339  0.07247  1.0000
  C   C1767     1.0  0.39742  0.82020  0.08260  1.0000
  C   C1768     1.0  0.41507  0.81390  0.07460  1.0000
  C   C1769     1.0  0.42171  0.82067  0.05669  1.0000
  H   H1420     1.0  0.38458  0.85048  0.04655  1.0000
  H   H1421     1.0  0.37264  0.83819  0.07853  1.0000
  H   H1422     1.0  0.42368  0.80371  0.08231  1.0000
  H   H1423     1.0  0.43541  0.81565  0.05069  1.0000
  C   C1770     1.0  0.04691  0.83727  0.04832  1.0000
  C   C1771     1.0  0.04096  0.83708  0.03325  1.0000
  C   C1772     1.0  0.02305  0.84438  0.03200  1.0000
  C   C1773     1.0  0.06387  0.50738  0.16091  1.0000
  P   P59       1.0  0.19203  0.80256  0.98479  1.0000
  C   C1774     1.0  0.03492  0.84518  0.06191  1.0000
  H   H1424     1.0  0.05018  0.83136  0.02254  1.0000
  H   H1425     1.0  0.01849  0.84398  0.02043  1.0000
  H   H1426     1.0  0.03950  0.84574  0.07342  1.0000
  C   C1775     1.0  0.05611  0.73275  0.04883  1.0000
  C   C1776     1.0  0.05951  0.73271  0.03064  1.0000
  C   C1777     1.0  0.05395  0.72006  0.02490  1.0000
  C   C1778     1.0  0.04514  0.70739  0.03733  1.0000
  C   C1779     1.0  0.04172  0.70759  0.05541  1.0000
  C   C1780     1.0  0.04714  0.72023  0.06116  1.0000
  H   H1427     1.0  0.06622  0.74251  0.02104  1.0000
  H   H1428     1.0  0.05649  0.72005  0.01084  1.0000
  H   H1429     1.0  0.03468  0.69810  0.06492  1.0000
  H   H1430     1.0  0.04434  0.72033  0.07521  1.0000
  C   C1781     1.0  0.26900  0.78097  0.11949  1.0000
  C   C1782     1.0  0.27740  0.78327  0.13204  1.0000
  C   C1783     1.0  0.28898  0.79526  0.12722  1.0000
  C   C1784     1.0  0.29213  0.80513  0.10980  1.0000
  C   C1785     1.0  0.28371  0.80285  0.09722  1.0000
  C   C1786     1.0  0.27218  0.79081  0.10203  1.0000
  H   H1431     1.0  0.27493  0.77577  0.14558  1.0000
  H   H1432     1.0  0.29537  0.79695  0.13700  1.0000
  H   H1433     1.0  0.28614  0.81037  0.08370  1.0000
  H   H1434     1.0  0.26567  0.78924  0.09231  1.0000
  C   C1787     1.0  0.17479  0.78218  0.06781  1.0000
  C   C1788     1.0  0.18347  0.76959  0.05730  1.0000
  C   C1789     1.0  0.17380  0.76307  0.04886  1.0000
  C   C1790     1.0  0.15544  0.76959  0.05024  1.0000
  C   C1791     1.0  0.14670  0.78273  0.06017  1.0000
  C   C1792     1.0  0.15638  0.78894  0.06906  1.0000
  H   H1435     1.0  0.19772  0.76509  0.05536  1.0000
  H   H1436     1.0  0.18064  0.75305  0.04105  1.0000
  H   H1437     1.0  0.13250  0.78784  0.06124  1.0000
  H   H1438     1.0  0.14959  0.79882  0.07704  1.0000
  C   C1793     1.0  0.26613  0.76451  0.02907  1.0000
  C   C1794     1.0  0.24970  0.77652  0.02992  1.0000
  C   C1795     1.0  0.24736  0.79165  0.01631  1.0000
  C   C1796     1.0  0.26149  0.79503  0.00198  1.0000
  C   C1797     1.0  0.27786  0.78291  0.00100  1.0000
  C   C1798     1.0  0.28014  0.76761  0.01449  1.0000
  H   H1439     1.0  0.23873  0.77410  0.04099  1.0000
  H   H1440     1.0  0.23462  0.80088  0.01702  1.0000
  H   H1441     1.0  0.35081  0.82730  0.00533  1.0000
  H   H1442     1.0  0.29289  0.75838  0.01385  1.0000
  C   C1799     1.0  0.20718  0.66599  0.09143  1.0000
  C   C1800     1.0  0.21572  0.67994  0.08155  1.0000
  C   C1801     1.0  0.21729  0.69294  0.08987  1.0000
  C   C1802     1.0  0.21073  0.69175  0.10820  1.0000
  C   C1803     1.0  0.20212  0.67789  0.11799  1.0000
  C   C1804     1.0  0.20008  0.66527  0.10957  1.0000
  H   H1443     1.0  0.22122  0.68064  0.06748  1.0000
  H   H1444     1.0  0.22405  0.70354  0.08220  1.0000
  H   H1445     1.0  0.19718  0.67679  0.13218  1.0000
  H   H1446     1.0  0.19342  0.65471  0.11725  1.0000
  C   C1805     1.0  0.10803  0.63646  0.10152  1.0000
  C   C1806     1.0  0.08947  0.64225  0.10479  1.0000
  C   C1807     1.0  0.07909  0.63558  0.09725  1.0000
  C   C1808     1.0  0.08730  0.62313  0.08646  1.0000
  C   C1809     1.0  0.10585  0.61722  0.08335  1.0000
  C   C1810     1.0  0.11623  0.62383  0.09093  1.0000
  H   H1447     1.0  0.08313  0.65190  0.11313  1.0000
  H   H1448     1.0  0.06475  0.63992  0.09995  1.0000
  H   H1449     1.0  0.11220  0.60762  0.07494  1.0000
  H   H1450     1.0  0.13056  0.61924  0.08845  1.0000
  C   C1811     1.0  0.14677  0.56720  0.05075  1.0000
  C   C1812     1.0  0.14599  0.58392  0.05408  1.0000
  C   C1813     1.0  0.15690  0.58581  0.06464  1.0000
  C   C1814     1.0  0.16900  0.57102  0.07152  1.0000
  C   C1815     1.0  0.16999  0.55438  0.06793  1.0000
  C   C1816     1.0  0.15872  0.55239  0.05783  1.0000
  H   H1451     1.0  0.15602  0.59870  0.06732  1.0000
  H   H1452     1.0  0.17941  0.54299  0.07314  1.0000
  H   H1453     1.0  0.15946  0.53947  0.05527  1.0000
  H   H1454     1.0  0.10472  0.85085  0.02522  1.0000
  C   C1817     1.0  0.12559  0.49326  0.10224  1.0000
  C   C1818     1.0  0.12236  0.49665  0.11941  1.0000
  H   H1455     1.0  0.05493  0.54350  0.98256  1.0000
  C   C1819     1.0  0.10421  0.84792  0.99912  1.0000
  H   H1456     1.0  0.13266  0.77050  0.11419  1.0000
  H   H1457     1.0  0.11661  0.50053  0.09350  1.0000
  H   H1458     1.0  0.11101  0.50669  0.12362  1.0000
  C   C1820     1.0  0.07581  0.85993  0.98972  1.0000
  H   H1459     1.0  0.27407  0.84658  0.98403  1.0000
  C   C1821     1.0  0.00184  0.59193  0.03536  1.0000
  C   C1822     1.0  0.00384  0.60895  0.03526  1.0000
  C   C1823     1.0  0.00502  0.62161  0.01930  1.0000
  C   C1824     1.0  0.41872  0.94983  0.13217  1.0000
  H   H1460     1.0  0.47905  0.86045  0.11934  1.0000
  H   H1461     1.0  0.15385  0.50990  0.10523  1.0000
  H   H1462     1.0  0.39912  0.96322  0.11622  1.0000
  H   H1463     1.0  0.42401  0.97237  0.15828  1.0000
  H   H1464     1.0  0.00660  0.63477  0.01911  1.0000
  C   C1825     1.0  0.08027  0.60973  0.14890  1.0000
  H   H1465     1.0  0.13672  0.59542  0.04874  1.0000
  C   C1826     1.0  0.14906  0.48981  0.97717  1.0000
  C   C1827     1.0  0.10532  0.58049  0.98689  1.0000
  C   C1828     1.0  0.20813  0.59080  0.15941  1.0000
  H   H1466     1.0  0.46481  0.72708  0.02924  1.0000
  H   H1467     1.0  0.00816  0.84832  0.14363  1.0000
  H   H1468     1.0  0.04202  0.62711  0.98575  1.0000
  H   H1469     1.0  0.23633  0.58622  0.15844  1.0000
  H   H1470     1.0  0.20971  0.59201  0.14524  1.0000
  H   H1471     1.0  0.06536  0.49474  0.17030  1.0000
  C   C1829     1.0  0.99990  0.53315  0.06105  1.0000
  C   C1830     1.0  0.12897  0.55101  0.15191  1.0000
  H   H1472     1.0  0.09699  0.64163  0.04891  1.0000
  C   C1831     1.0  0.10898  0.59286  0.15499  1.0000
  C   C1832     1.0  0.24172  0.76992  0.98276  1.0000
  H   H1473     1.0  0.38936  0.95639  0.02405  1.0000
  C   C1833     1.0  0.40123  0.69771  0.16244  1.0000
  C   C1834     1.0  0.01554  0.76247  0.05368  1.0000
  H   H1474     1.0  0.11527  0.55503  0.07641  1.0000
  C   C1835     1.0  0.08786  0.72069  0.11021  1.0000
  C   C1836     1.0  0.08470  0.72719  0.09296  1.0000
  C   C1837     1.0  0.09902  0.72888  0.07848  1.0000
  C   C1838     1.0  0.11651  0.72388  0.08116  1.0000
  C   C1839     1.0  0.11985  0.71683  0.09840  1.0000
  C   C1840     1.0  0.10537  0.71573  0.11297  1.0000
  P   P60       1.0  0.14249  0.71029  0.10188  1.0000
  C   C1841     1.0  0.14424  0.69221  0.12105  1.0000
  C   C1842     1.0  0.15685  0.70307  0.08226  1.0000
  C   C1843     1.0  0.16088  0.68511  0.08100  1.0000
  C   C1844     1.0  0.17190  0.67980  0.06562  1.0000
  C   C1845     1.0  0.17907  0.69229  0.05152  1.0000
  C   C1846     1.0  0.17482  0.71021  0.05253  1.0000
  C   C1847     1.0  0.16371  0.71561  0.06780  1.0000
  C   C1848     1.0  0.15608  0.69074  0.13207  1.0000
  C   C1849     1.0  0.15726  0.67677  0.14690  1.0000
  C   C1850     1.0  0.14657  0.66421  0.15093  1.0000
  C   C1851     1.0  0.13478  0.66555  0.14005  1.0000
  C   C1852     1.0  0.13377  0.67933  0.12506  1.0000
  C   C1853     1.0  0.14939  0.72907  0.10485  1.0000
  H   H1475     1.0  0.07675  0.71954  0.12145  1.0000
  H   H1476     1.0  0.07117  0.73105  0.09074  1.0000
  H   H1477     1.0  0.09659  0.73410  0.06509  1.0000
  H   H1478     1.0  0.12732  0.72557  0.06970  1.0000
  H   H1479     1.0  0.10760  0.71096  0.12644  1.0000
  H   H1480     1.0  0.15574  0.67514  0.09185  1.0000
  H   H1481     1.0  0.17525  0.66589  0.06485  1.0000
  H   H1482     1.0  0.18804  0.68806  0.03988  1.0000
  H   H1483     1.0  0.18011  0.72000  0.04152  1.0000
  H   H1484     1.0  0.16041  0.72962  0.06823  1.0000
  H   H1485     1.0  0.16462  0.70017  0.12921  1.0000
  C   C1854     1.0  0.44235  0.96770  0.10527  1.0000
  H   H1486     1.0  0.07316  0.86656  0.03118  1.0000
  H   H1487     1.0  0.12684  0.65554  0.14282  1.0000
  H   H1488     1.0  0.12498  0.67974  0.11649  1.0000
  H   H1489     1.0  0.12268  0.74489  0.11069  1.0000
  H   H1490     1.0  0.41320  0.97174  0.02356  1.0000
  H   H1491     1.0  0.34299  0.97345  0.09027  1.0000
  H   H1492     1.0  0.21806  0.50734  0.07879  1.0000
  H   H1493     1.0  0.02403  0.81843  0.15697  1.0000
  C   C1855     1.0  0.07246  0.63703  0.00323  1.0000
  Fe  Fe138     1.0  0.41809  0.93047  0.17504  1.0000
  C   C1856     1.0  0.19291  0.50533  0.07498  1.0000
  H   H1494     1.0  0.04651  0.79281  0.06695  1.0000
  C   C1857     1.0  0.01174  0.73967  0.13345  1.0000
  H   H1495     1.0  0.05885  0.76061  0.11217  1.0000
  H   H1496     1.0  0.47536  0.87996  0.14051  1.0000
  C   C1858     1.0  0.24001  0.75874  0.99961  1.0000
  H   H1497     1.0  0.10544  0.78331  0.09297  1.0000
  C   C1859     1.0  0.07854  0.51545  0.15335  1.0000
  C   C1860     1.0  0.04889  0.63477  0.99017  1.0000
  H   H1498     1.0  0.05471  0.87226  0.00911  1.0000
  C   C1861     1.0  0.42963  0.86833  0.07249  1.0000
  H   H1499     1.0  0.05851  0.59599  0.15902  1.0000
  H   H1500     1.0  0.09135  0.75726  0.10700  1.0000
  H   H1501     1.0  0.22234  0.75185  0.02479  1.0000
  C   C1862     1.0  0.19917  0.64226  0.16631  1.0000
  H   H1502     1.0  0.42598  0.92513  0.98799  1.0000
  H   H1503     1.0  0.39663  0.78710  0.98049  1.0000
  H   H1504     1.0  0.18686  0.64499  0.17594  1.0000
  H   H1505     1.0  0.11797  0.84084  0.99655  1.0000
  H   H1506     1.0  0.16491  0.76946  0.11055  1.0000
  C   C1863     1.0  0.27665  0.65868  0.15238  1.0000
  C   C1864     1.0  0.00458  0.75496  0.06908  1.0000
  C   C1865     1.0  0.46843  0.91935  0.05938  1.0000
  C   C1866     1.0  0.99525  0.80909  0.07102  1.0000
  C   C1867     1.0  0.18867  0.81211  0.01716  1.0000
  C   C1868     1.0  0.17904  0.81819  0.03263  1.0000
  C   C1869     1.0  0.16052  0.82404  0.03513  1.0000
  C   C1870     1.0  0.15163  0.82404  0.02205  1.0000
  C   C1871     1.0  0.16123  0.81800  0.00654  1.0000
  C   C1872     1.0  0.40581  0.72570  0.16540  1.0000
  C   C1873     1.0  0.27441  0.66184  0.08170  1.0000
  C   C1874     1.0  0.02211  0.80986  0.11758  1.0000
  C   C1875     1.0  0.43733  0.76792  0.02318  1.0000
  H   H1507     1.0  0.47978  0.93726  0.01506  1.0000
  C   C1876     1.0  0.23229  0.82362  0.11353  1.0000
  H   H1508     1.0  0.22348  0.86479  0.01912  1.0000
  C   C1877     1.0  0.23209  0.84504  0.06049  1.0000
  C   C1878     1.0  0.25620  0.68050  0.10214  1.0000
  H   H1509     1.0  0.48108  0.92233  0.07938  1.0000
  H   H1510     1.0  0.24192  0.83006  0.11542  1.0000
  H   H1511     1.0  0.22900  0.50175  0.14557  1.0000
  H   H1512     1.0  0.46807  0.82155  0.00676  1.0000
  C   C1879     1.0  0.24858  0.86372  0.09773  1.0000
  Fe  Fe139     1.0  0.37381  0.87935  0.98793  1.0000
  H   H1513     1.0  0.25027  0.50745  0.11431  1.0000
  H   H1514     1.0  0.18589  0.81790  0.04293  1.0000
  H   H1515     1.0  0.15306  0.82829  0.04734  1.0000
  C   C1880     1.0  0.44176  0.86092  0.05879  1.0000
  C   C1881     1.0  0.45663  0.91042  0.10813  1.0000
  H   H1516     1.0  0.46162  0.95518  0.12203  1.0000
  S   S273      1.0  0.45880  0.97239  0.04781  1.0000
  C   C1882     1.0  0.06200  0.80355  0.09279  1.0000
  H   H1517     1.0  0.24528  0.81746  0.06777  1.0000
  C   C1883     1.0  0.24245  0.82423  0.04057  1.0000
  H   H1518     1.0  0.37658  0.75777  0.15995  1.0000
  H   H1519     1.0  0.03530  0.62474  0.12101  1.0000
  Fe  Fe140     1.0  0.09920  0.51858  0.04081  1.0000
  H   H1520     1.0  0.14758  0.64059  0.04540  1.0000
  S   S274      1.0  0.11825  0.49311  0.03596  1.0000
  H   H1521     1.0  0.17999  0.63780  0.04192  1.0000
  C   C1884     1.0  0.38240  0.81748  0.02399  1.0000
  C   C1885     1.0  0.37276  0.80409  0.03221  1.0000
  C   C1886     1.0  0.37906  0.78721  0.02811  1.0000
  C   C1887     1.0  0.39524  0.78359  0.01609  1.0000
  C   C1888     1.0  0.40519  0.79690  0.00802  1.0000
  C   C1889     1.0  0.39853  0.81392  0.01191  1.0000
  C   C1890     1.0  0.21981  0.49184  0.12728  1.0000
  C   C1891     1.0  0.20905  0.77355  0.00701  1.0000
  C   C1892     1.0  0.06232  0.82789  0.98105  1.0000
  H   H1522     1.0  0.16670  0.87885  0.10436  1.0000
  C   C1893     1.0  0.22428  0.82983  0.09862  1.0000
  H   H1523     1.0  0.32957  0.93407  0.15099  1.0000
  H   H1524     1.0  0.99845  0.75259  0.15550  1.0000
  S   S275      1.0  0.39866  0.85879  0.98252  1.0000
  H   H1525     1.0  0.25077  0.69362  0.10517  1.0000
  H   H1526     1.0  0.02769  0.76564  0.05455  1.0000
  H   H1527     1.0  0.00084  0.81176  0.04256  1.0000
  H   H1528     1.0  0.04829  0.57877  0.01363  1.0000
  C   C1894     1.0  0.20011  0.90045  0.08099  1.0000
  C   C1895     1.0  0.26582  0.84842  0.07402  1.0000
  H   H1529     1.0  0.07227  0.62183  0.14261  1.0000
  H   H1530     1.0  0.17736  0.68847  0.00561  1.0000
  H   H1531     1.0  0.12988  0.56243  0.97880  1.0000
  H   H1532     1.0  0.37755  0.83060  0.02715  1.0000
  H   H1533     1.0  0.36047  0.80679  0.04181  1.0000
  H   H1534     1.0  0.37147  0.77689  0.03442  1.0000
  H   H1535     1.0  0.40013  0.77036  0.01326  1.0000
  C   C1896     1.0  0.45681  0.86806  0.04993  1.0000
  H   H1536     1.0  0.01392  0.53042  0.06148  1.0000
  H   H1537     1.0  0.31435  0.61401  0.13487  1.0000
  H   H1538     1.0  0.02018  0.53913  0.01544  1.0000
  H   H1539     1.0  0.33474  0.78351  0.98094  1.0000
  H   H1540     1.0  0.29426  0.84658  0.06876  1.0000
  C   C1897     1.0  0.02482  0.80179  0.05312  1.0000
  S   S276      1.0  0.14529  0.50901  0.98595  1.0000
  C   C1898     1.0  0.35885  0.81073  0.98626  1.0000
  P   P61       1.0  0.22905  0.84949  0.08237  1.0000
  H   H1541     1.0  0.14430  0.76946  0.99485  1.0000
  C   C1899     1.0  0.08545  0.58328  0.02969  1.0000
  C   C1900     1.0  0.46279  0.90332  0.12401  1.0000
  H   H1542     1.0  0.08408  0.63095  0.00903  1.0000
  H   H1543     1.0  0.40593  0.82437  0.00598  1.0000
  H   H1544     1.0  0.08661  0.81293  0.08369  1.0000
  P   P62       1.0  0.42668  0.79174  0.99348  1.0000
  C   C1901     1.0  0.19702  0.51175  0.10186  1.0000
  C   C1902     1.0  0.17896  0.51183  0.10941  1.0000
  P   P63       1.0  0.21169  0.51376  0.11492  1.0000
  C   C1903     1.0  0.20000  0.52776  0.13086  1.0000
  H   H1545     1.0  0.20299  0.80755  0.01551  1.0000
  H   H1546     1.0  0.05693  0.48990  0.00903  1.0000
  C   C1904     1.0  0.20402  0.50811  0.08468  1.0000
  H   H1547     1.0  0.23499  0.80335  0.13722  1.0000
  H   H1548     1.0  0.99165  0.76428  0.02314  1.0000
  H   H1549     1.0  0.25864  0.87221  0.99840  1.0000
  S   S277      1.0  0.02379  0.50960  0.99863  1.0000
  C   C1905     1.0  0.28140  0.85182  0.07640  1.0000
  C   C1906     1.0  0.03205  0.52954  0.01799  1.0000
  H   H1550     1.0  0.24872  0.81101  0.03830  1.0000
  H   H1551     1.0  0.44549  0.74971  0.04628  1.0000
  C   C1907     1.0  0.22965  0.52376  0.10025  1.0000
  C   C1908     1.0  0.24710  0.51817  0.10332  1.0000
  C   C1909     1.0  0.26068  0.52658  0.09222  1.0000
  C   C1910     1.0  0.25692  0.54063  0.07805  1.0000
  C   C1911     1.0  0.23957  0.54626  0.07492  1.0000
  C   C1912     1.0  0.22601  0.53785  0.08593  1.0000
  C   C1913     1.0  0.08307  0.57934  0.16570  1.0000
  C   C1914     1.0  0.48050  0.93330  0.02903  1.0000
  H   H1552     1.0  0.17334  0.51388  0.12287  1.0000
  C   C1915     1.0  0.34720  0.81739  0.00066  1.0000
  H   H1553     1.0  0.00227  0.85390  0.11337  1.0000
  C   C1916     1.0  0.18307  0.89798  0.09026  1.0000
  C   C1917     1.0  0.01761  0.91371  0.97908  1.0000
  Fe  Fe141     1.0  0.99990  0.53125  0.99229  1.0000
  H   H1554     1.0  0.00848  0.75235  0.08174  1.0000
  C   C1918     1.0  0.08312  0.77021  0.10324  1.0000
  C   C1919     1.0  0.05390  0.78889  0.10055  1.0000
  C   C1920     1.0  0.44808  0.95668  0.12058  1.0000
  H   H1555     1.0  0.18962  0.50652  0.15061  1.0000
  H   H1556     1.0  0.08834  0.72568  0.98099  1.0000
  H   H1557     1.0  0.27412  0.52227  0.09469  1.0000
  H   H1558     1.0  0.26740  0.54721  0.06952  1.0000
  H   H1559     1.0  0.23650  0.55726  0.06406  1.0000
  H   H1560     1.0  0.21257  0.54258  0.08347  1.0000
  C   C1921     1.0  0.39168  0.88160  0.12240  1.0000
  C   C1922     1.0  0.39232  0.86350  0.12440  1.0000
  C   C1923     1.0  0.38644  0.85762  0.11223  1.0000
  C   C1924     1.0  0.37979  0.86980  0.09811  1.0000
  C   C1925     1.0  0.37878  0.88804  0.09619  1.0000
  C   C1926     1.0  0.38512  0.89379  0.10823  1.0000
  P   P64       1.0  0.37183  0.90353  0.07699  1.0000
  C   C1927     1.0  0.39140  0.90243  0.05933  1.0000
  C   C1928     1.0  0.35408  0.89750  0.07104  1.0000
  C   C1929     1.0  0.35222  0.90173  0.05322  1.0000
  C   C1930     1.0  0.33804  0.89760  0.04873  1.0000
  C   C1931     1.0  0.32551  0.88948  0.06202  1.0000
  C   C1932     1.0  0.32715  0.88550  0.07981  1.0000
  C   C1933     1.0  0.34131  0.88960  0.08432  1.0000
  C   C1934     1.0  0.39624  0.88855  0.05001  1.0000
  C   C1935     1.0  0.41152  0.88745  0.03646  1.0000
  C   C1936     1.0  0.42214  0.90008  0.03219  1.0000
  C   C1937     1.0  0.41766  0.91364  0.04174  1.0000
  C   C1938     1.0  0.40244  0.91472  0.05538  1.0000
  C   C1939     1.0  0.36266  0.92570  0.08118  1.0000
  C   C1940     1.0  0.36359  0.94057  0.06710  1.0000
  C   C1941     1.0  0.35662  0.95774  0.07041  1.0000
  C   C1942     1.0  0.34832  0.96016  0.08769  1.0000
  C   C1943     1.0  0.34669  0.94539  0.10163  1.0000
  C   C1944     1.0  0.35357  0.92821  0.09834  1.0000
  H   H1561     1.0  0.39606  0.88625  0.13193  1.0000
  H   H1562     1.0  0.39731  0.85402  0.13538  1.0000
  H   H1563     1.0  0.38704  0.84360  0.11373  1.0000
  H   H1564     1.0  0.37552  0.86496  0.08867  1.0000
  H   H1565     1.0  0.38490  0.90768  0.10679  1.0000
  H   H1566     1.0  0.36162  0.90837  0.04278  1.0000
  H   H1567     1.0  0.33676  0.90083  0.03492  1.0000
  H   H1568     1.0  0.31454  0.88628  0.05853  1.0000
  H   H1569     1.0  0.31742  0.87934  0.09022  1.0000
  H   H1570     1.0  0.34219  0.88675  0.09820  1.0000
  H   H1571     1.0  0.38821  0.87861  0.05315  1.0000
  H   H1572     1.0  0.41512  0.87682  0.02924  1.0000
  H   H1573     1.0  0.43371  0.89946  0.02137  1.0000
  H   H1574     1.0  0.42572  0.92361  0.03819  1.0000
  H   H1575     1.0  0.39924  0.92523  0.06268  1.0000
  H   H1576     1.0  0.36968  0.93893  0.05356  1.0000
  C   C1945     1.0  0.04739  0.51550  0.15620  1.0000
  H   H1577     1.0  0.41954  0.71275  0.14345  1.0000
  H   H1578     1.0  0.34003  0.94718  0.11501  1.0000
  H   H1579     1.0  0.35175  0.91693  0.10922  1.0000
  C   C1946     1.0  0.00880  0.84073  0.11934  1.0000
  H   H1580     1.0  0.09142  0.50901  0.15677  1.0000
  C   C1947     1.0  0.00299  0.61753  0.00377  1.0000
  C   C1948     1.0  0.00467  0.71414  0.09352  1.0000
  H   H1581     1.0  0.11171  0.53367  0.97801  1.0000
  H   H1582     1.0  0.26146  0.68212  0.13808  1.0000
  C   C1949     1.0  0.42316  0.93520  0.99582  1.0000
  H   H1583     1.0  0.99288  0.55533  0.07402  1.0000
  H   H1584     1.0  0.08006  0.58071  0.12856  1.0000
  H   H1585     1.0  0.24283  0.64459  0.15768  1.0000
  C   C1950     1.0  0.02201  0.74151  0.11614  1.0000
  C   C1951     1.0  0.23981  0.60750  0.09039  1.0000
  C   C1952     1.0  0.24428  0.58921  0.09703  1.0000
  C   C1953     1.0  0.25166  0.58293  0.11225  1.0000
  C   C1954     1.0  0.25457  0.59493  0.12083  1.0000
  C   C1955     1.0  0.25005  0.61333  0.11425  1.0000
  C   C1956     1.0  0.24255  0.61950  0.09904  1.0000
  P   P65       1.0  0.25199  0.62905  0.12615  1.0000
  C   C1957     1.0  0.23113  0.63465  0.14152  1.0000
  C   C1958     1.0  0.23074  0.64203  0.15591  1.0000
  H   H1586     1.0  0.16611  0.50403  0.07485  1.0000
  H   H1587     1.0  0.11989  0.51876  0.17458  1.0000
  C   C1959     1.0  0.19941  0.63494  0.15203  1.0000
  C   C1960     1.0  0.21531  0.63116  0.13965  1.0000
  C   C1961     1.0  0.25105  0.66558  0.11423  1.0000
  C   C1962     1.0  0.26953  0.61901  0.13858  1.0000
  C   C1963     1.0  0.28721  0.62097  0.13114  1.0000
  C   C1964     1.0  0.24041  0.82796  0.05730  1.0000
  C   C1965     1.0  0.26773  0.67869  0.08583  1.0000
  C   C1966     1.0  0.45058  0.80822  0.00073  1.0000
  H   H1588     1.0  0.04314  0.67668  0.99695  1.0000
  H   H1589     1.0  0.23363  0.61250  0.07888  1.0000
  H   H1590     1.0  0.24164  0.57996  0.09060  1.0000
  H   H1591     1.0  0.25483  0.56877  0.11761  1.0000
  H   H1592     1.0  0.26007  0.58979  0.13272  1.0000
  H   H1593     1.0  0.23845  0.63365  0.09406  1.0000
  H   H1594     1.0  0.01341  0.58906  0.16731  1.0000
  H   H1595     1.0  0.45147  0.97464  0.09487  1.0000
  H   H1596     1.0  0.21510  0.62548  0.12873  1.0000
  H   H1597     1.0  0.24155  0.66750  0.12645  1.0000
  H   H1598     1.0  0.29067  0.62886  0.11794  1.0000
  H   H1599     1.0  0.07561  0.49585  0.02675  1.0000
  H   H1600     1.0  0.28886  0.78547  0.99009  1.0000
  H   H1601     1.0  0.21387  0.78734  0.13324  1.0000
  H   H1602     1.0  0.27492  0.63388  0.09049  1.0000
  C   C1967     1.0  0.27814  0.84810  0.99549  1.0000
  C   C1968     1.0  0.10427  0.68280  0.00008  1.0000
  C   C1969     1.0  0.44668  0.75207  0.03199  1.0000
  C   C1970     1.0  0.01099  0.76574  0.03713  1.0000
  C   C1971     1.0  0.40980  0.71210  0.15590  1.0000
  C   C1972     1.0  0.22605  0.85836  0.04659  1.0000
  C   C1973     1.0  0.08061  0.68117  0.07127  1.0000
  H   H1603     1.0  0.12800  0.57308  0.08912  1.0000
  P   P66       1.0  0.07368  0.60316  0.99856  1.0000
  C   C1974     1.0  0.28062  0.86105  0.08944  1.0000
  C   C1975     1.0  0.18369  0.53018  0.16095  1.0000
  C   C1976     1.0  0.46831  0.92371  0.04107  1.0000
  P   P67       1.0  0.45134  0.90880  0.07522  1.0000
  H   H1604     1.0  0.31693  0.86460  0.98184  1.0000
  H   H1605     1.0  0.05403  0.81656  0.08859  1.0000
  H   H1606     1.0  0.10455  0.61974  0.13989  1.0000
  C   C1977     1.0  0.43881  0.80919  0.98981  1.0000
  H   H1607     1.0  0.08491  0.54975  0.08951  1.0000
  H   H1608     1.0  0.03275  0.53781  0.14027  1.0000
  C   C1978     1.0  0.02609  0.80696  0.13448  1.0000
  C   C1979     1.0  0.25783  0.64858  0.11029  1.0000
  C   C1980     1.0  0.21085  0.78531  0.99039  1.0000
  C   C1981     1.0  0.43080  0.92521  0.07866  1.0000
  C   C1982     1.0  0.42738  0.94063  0.06552  1.0000
  C   C1983     1.0  0.41145  0.95317  0.06823  1.0000
  C   C1984     1.0  0.39890  0.95060  0.08413  1.0000
  C   C1985     1.0  0.40223  0.93545  0.09735  1.0000
  C   C1986     1.0  0.41807  0.92275  0.09463  1.0000
  H   H1609     1.0  0.06621  0.68354  0.07455  1.0000
  C   C1987     1.0  0.10850  0.68061  0.07864  1.0000
  H   H1610     1.0  0.45836  0.92032  0.03614  1.0000
  S   S278      1.0  0.31435  0.83344  0.14676  1.0000
  C   C1988     1.0  0.26957  0.64683  0.09390  1.0000
  H   H1611     1.0  0.11039  0.58587  0.11513  1.0000
  C   C1989     1.0  0.27764  0.64711  0.16888  1.0000
  C   C1990     1.0  0.06468  0.62680  0.99656  1.0000
  H   H1612     1.0  0.43688  0.94324  0.05318  1.0000
  H   H1613     1.0  0.40913  0.96524  0.05825  1.0000
  H   H1614     1.0  0.38695  0.96074  0.08648  1.0000
  H   H1615     1.0  0.39276  0.93389  0.10995  1.0000
  H   H1616     1.0  0.42048  0.91122  0.10515  1.0000
  C   C1991     1.0  0.05477  0.59958  0.03345  1.0000
  H   H1617     1.0  0.04355  0.60816  0.02802  1.0000
  H   H1618     1.0  0.14510  0.69141  0.00866  1.0000
  H   H1619     1.0  0.11310  0.70606  0.02627  1.0000
  C   C1992     1.0  0.41285  0.96129  0.11730  1.0000
  C   C1993     1.0  0.17083  0.67800  0.01420  1.0000
  C   C1994     1.0  0.15247  0.67966  0.01604  1.0000
  P   P68       1.0  0.12033  0.66759  0.02961  1.0000
  C   C1995     1.0  0.07116  0.59435  0.02219  1.0000
  C   C1996     1.0  0.10556  0.62031  0.03475  1.0000
  H   H1620     1.0  0.13726  0.82838  0.02409  1.0000
  C   C1997     1.0  0.45861  0.89951  0.09609  1.0000
  C   C1998     1.0  0.21401  0.88572  0.07865  1.0000
  C   C1999     1.0  0.48094  0.92486  0.06537  1.0000
  P   P69       1.0  0.11563  0.55734  0.17227  1.0000
  H   H1621     1.0  0.27125  0.69040  0.07633  1.0000
  H   H1622     1.0  0.03806  0.54450  0.03398  1.0000
  C   C2000     1.0  0.04930  0.66288  0.99651  1.0000
  C   C2001     1.0  0.01174  0.77013  0.13358  1.0000
  C   C2002     1.0  0.14235  0.75872  0.11118  1.0000
  C   C2003     1.0  0.06350  0.50527  0.02431  1.0000
  H   H1623     1.0  0.09834  0.57908  0.02158  1.0000
  C   C2004     1.0  0.14391  0.66619  0.02726  1.0000
  C   C2005     1.0  0.09106  0.78490  0.09543  1.0000
  C   C2006     1.0  0.01093  0.85171  0.04589  1.0000
  C   C2007     1.0  0.21643  0.79941  0.12379  1.0000
  H   H1624     1.0  0.12342  0.81331  0.98247  1.0000
  C   C2008     1.0  0.16787  0.50930  0.09956  1.0000
  H   H1625     1.0  0.28320  0.66048  0.06895  1.0000
  C   C2009     1.0  0.09466  0.71457  0.99002  1.0000
  H   H1626     1.0  0.45058  0.92447  0.10518  1.0000
  C   C2010     1.0  0.21228  0.82065  0.09647  1.0000
  H   H1627     1.0  0.09824  0.56986  0.99359  1.0000
  C   C2011     1.0  0.11857  0.64654  0.02621  1.0000
  S   S279      1.0  0.32765  0.87945  0.13584  1.0000
  C   C2012     1.0  0.15419  0.77589  0.98495  1.0000
  C   C2013     1.0  0.19085  0.52024  0.14764  1.0000
  C   C2014     1.0  0.04233  0.53264  0.02841  1.0000
  C   C2015     1.0  0.06718  0.58340  0.05925  1.0000
  H   H1628     1.0  0.03607  0.50913  0.16191  1.0000
  C   C2016     1.0  0.21097  0.86838  0.08559  1.0000
  C   C2017     1.0  0.04973  0.58240  0.99931  1.0000
  C   C2018     1.0  0.19380  0.86602  0.09487  1.0000
  H   H1629     1.0  0.00773  0.85807  0.07143  1.0000
  S   S280      1.0  0.35835  0.92827  0.16748  1.0000
  C   C2019     1.0  0.17232  0.64946  0.03466  1.0000
  C   C2020     1.0  0.20837  0.80552  0.10903  1.0000
  H   H1630     1.0  0.00719  0.78115  0.14037  1.0000
  C   C2021     1.0  0.22319  0.58766  0.16687  1.0000
  C   C2022     1.0  0.38565  0.78221  0.14955  1.0000
  C   C2023     1.0  0.39431  0.79419  0.15227  1.0000
  C   C2024     1.0  0.38318  0.76690  0.16250  1.0000
  H   H1631     1.0  0.06276  0.79988  0.98577  1.0000
  H   H1632     1.0  0.09458  0.56962  0.05387  1.0000
  C   C2025     1.0  0.15397  0.65109  0.03658  1.0000
  C   C2026     1.0  0.17992  0.88078  0.09718  1.0000
  C   C2027     1.0  0.10088  0.71769  0.00364  1.0000
  H   H1633     1.0  0.16664  0.67561  0.15512  1.0000
  C   C2028     1.0  0.02256  0.77187  0.11641  1.0000
  H   H1634     1.0  0.02590  0.73050  0.10931  1.0000
  H   H1635     1.0  0.38094  0.78477  0.13731  1.0000
  H   H1636     1.0  0.39615  0.80605  0.14216  1.0000
  S   S281      1.0  0.25851  0.81491  0.98602  1.0000
  H   H1637     1.0  0.20603  0.82503  0.08500  1.0000
  C   C2029     1.0  0.17977  0.81153  0.00421  1.0000
  H   H1638     1.0  0.29851  0.82455  0.99552  1.0000
  H   H1639     1.0  0.45261  0.79710  0.01167  1.0000
  C   C2030     1.0  0.32697  0.79888  0.00143  1.0000
  C   C2031     1.0  0.33109  0.81157  0.00836  1.0000
  H   H1640     1.0  0.14771  0.65320  0.16223  1.0000
  P   P70       1.0  0.31507  0.82085  0.02618  1.0000
  C   C2032     1.0  0.29741  0.83729  0.01706  1.0000
  C   C2033     1.0  0.30635  0.80232  0.04105  1.0000
  C   C2034     1.0  0.28863  0.80121  0.04261  1.0000
  C   C2035     1.0  0.28232  0.78617  0.05298  1.0000
  C   C2036     1.0  0.29352  0.77220  0.06204  1.0000
  C   C2037     1.0  0.31123  0.77313  0.06049  1.0000
  C   C2038     1.0  0.31773  0.78799  0.04977  1.0000
  C   C2039     1.0  0.28836  0.85169  0.02532  1.0000
  C   C2040     1.0  0.27444  0.86425  0.01861  1.0000
  C   C2041     1.0  0.26939  0.86249  0.00365  1.0000
  H   H1641     1.0  0.07062  0.66277  0.00867  1.0000
  C   C2042     1.0  0.29209  0.83555  0.00212  1.0000
  C   C2043     1.0  0.32536  0.83155  0.03729  1.0000
  C   C2044     1.0  0.33136  0.84715  0.02795  1.0000
  C   C2045     1.0  0.34017  0.85531  0.03571  1.0000
  C   C2046     1.0  0.34265  0.84820  0.05312  1.0000
  C   C2047     1.0  0.33595  0.83316  0.06287  1.0000
  C   C2048     1.0  0.32710  0.82498  0.05512  1.0000
  H   H1642     1.0  0.47174  0.88763  0.04801  1.0000
  C   C2049     1.0  0.47277  0.87439  0.11621  1.0000
  H   H1643     1.0  0.00499  0.89661  0.00207  1.0000
  H   H1644     1.0  0.31457  0.79425  0.00697  1.0000
  H   H1645     1.0  0.00308  0.62758  0.99163  1.0000
  H   H1646     1.0  0.27981  0.81166  0.03542  1.0000
  H   H1647     1.0  0.26885  0.78513  0.05365  1.0000
  H   H1648     1.0  0.28848  0.76055  0.07004  1.0000
  H   H1649     1.0  0.31993  0.76222  0.06744  1.0000
  H   H1650     1.0  0.33163  0.78831  0.04822  1.0000
  H   H1651     1.0  0.29207  0.85330  0.03689  1.0000
  H   H1652     1.0  0.26762  0.87538  0.02498  1.0000
  H   H1653     1.0  0.16476  0.78184  0.00449  1.0000
  C   C2050     1.0  0.05512  0.81324  0.98218  1.0000
  C   C2051     1.0  0.99520  0.76179  0.03599  1.0000
  H   H1654     1.0  0.32937  0.85289  0.01450  1.0000
  H   H1655     1.0  0.34511  0.86712  0.02809  1.0000
  H   H1656     1.0  0.34954  0.85446  0.05914  1.0000
  H   H1657     1.0  0.33753  0.82787  0.07653  1.0000
  H   H1658     1.0  0.32161  0.81372  0.06327  1.0000
  C   C2052     1.0  0.16575  0.78310  0.99035  1.0000
  C   C2053     1.0  0.11737  0.61347  0.02055  1.0000
  C   C2054     1.0  0.12239  0.54221  0.14260  1.0000
  C   C2055     1.0  0.13149  0.53961  0.12558  1.0000
  C   C2056     1.0  0.14697  0.54624  0.11755  1.0000
  C   C2057     1.0  0.15378  0.55475  0.12682  1.0000
  C   C2058     1.0  0.14483  0.55718  0.14393  1.0000
  S   S282      1.0  0.34683  0.87545  0.98687  1.0000
  H   H1659     1.0  0.12626  0.53296  0.11837  1.0000
  H   H1660     1.0  0.15362  0.54501  0.10405  1.0000
  H   H1661     1.0  0.16574  0.55992  0.12050  1.0000
  H   H1662     1.0  0.14994  0.56451  0.15057  1.0000
  C   C2059     1.0  0.03704  0.51403  0.01116  1.0000
  C   C2060     1.0  0.00641  0.80781  0.05444  1.0000
  C   C2061     1.0  0.00654  0.75399  0.14213  1.0000
  H   H1663     1.0  0.03332  0.79410  0.14024  1.0000
  C   C2062     1.0  0.08340  0.57781  0.04816  1.0000
  C   C2063     1.0  0.22712  0.78298  0.97805  1.0000
  H   H1664     1.0  0.13898  0.61767  0.99820  1.0000
  C   C2064     1.0  0.24824  0.67531  0.16547  1.0000
  C   C2065     1.0  0.10133  0.57820  0.16456  1.0000
  H   H1665     1.0  0.11571  0.68242  0.08768  1.0000
  C   C2066     1.0  0.08989  0.67564  0.05543  1.0000
  C   C2067     1.0  0.09627  0.69714  0.98830  1.0000
  H   H1666     1.0  0.17766  0.71727  0.09918  1.0000
  H   H1667     1.0  0.28724  0.65674  0.14086  1.0000
  H   H1668     1.0  0.19498  0.66162  0.02207  1.0000
  H   H1669     1.0  0.04038  0.59882  0.06046  1.0000
  S   S283      1.0  0.12988  0.49254  0.15206  1.0000
  C   C2068     1.0  0.08989  0.68377  0.08280  1.0000
  C   C2069     1.0  0.03958  0.57593  0.99139  1.0000
  C   C2070     1.0  0.05285  0.50188  0.01434  1.0000
  H   H1670     1.0  0.11008  0.53763  0.14837  1.0000
  C   C2071     1.0  0.30073  0.61253  0.14071  1.0000
  C   C2072     1.0  0.24926  0.85440  0.08466  1.0000
  H   H1671     1.0  0.25218  0.60669  0.16170  1.0000
  C   C2073     1.0  0.26421  0.86703  0.10008  1.0000
  C   C2074     1.0  0.23641  0.83749  0.02680  1.0000
  S   S284      1.0  0.00001  0.65325  0.11819  1.0000
  H   H1672     1.0  0.46620  0.86226  0.03933  1.0000
  H   H1673     1.0  0.19100  0.85286  0.10038  1.0000
  C   C2075     1.0  0.21481  0.64591  0.16820  1.0000
  H   H1674     1.0  0.23813  0.83450  0.01380  1.0000
  H   H1675     1.0  0.21958  0.87163  0.04864  1.0000
  S   S285      1.0  0.11382  0.53610  0.01817  1.0000
  C   C2076     1.0  0.33844  0.79263  0.98672  1.0000
  H   H1676     1.0  0.29284  0.86290  0.09175  1.0000
  H   H1677     1.0  0.20255  0.91378  0.07562  1.0000
  C   C2077     1.0  0.01693  0.85217  0.06081  1.0000
  H   H1678     1.0  0.46882  0.87278  0.09104  1.0000
  H   H1679     1.0  0.18718  0.74277  0.10312  1.0000
  C   C2078     1.0  0.45658  0.83705  0.98440  1.0000
  C   C2079     1.0  0.45756  0.73935  0.02239  1.0000
  H   H1680     1.0  0.17229  0.90939  0.09207  1.0000
  H   H1681     1.0  0.11720  0.60050  0.01867  1.0000
  C   C2080     1.0  0.18076  0.66288  0.02345  1.0000
  C   C2081     1.0  0.19375  0.55573  0.14068  1.0000
  H   H1682     1.0  0.10511  0.66943  0.99864  1.0000
  H   H1683     1.0  0.35765  0.96915  0.05952  1.0000
  H   H1684     1.0  0.02630  0.55315  0.06676  1.0000
  H   H1685     1.0  0.31772  0.91525  0.13867  1.0000
  H   H1686     1.0  0.18223  0.50337  0.99213  1.0000
  C   C2082     1.0  0.07255  0.59516  0.15817  1.0000
  C   C2083     1.0  0.17480  0.50602  0.08239  1.0000
  C   C2084     1.0  0.43659  0.94401  0.99546  1.0000
  H   H1687     1.0  0.99829  0.57475  0.02022  1.0000
  C   C2085     1.0  0.06125  0.59361  0.98873  1.0000
  C   C2086     1.0  0.45972  0.88268  0.05471  1.0000
  C   C2087     1.0  0.08311  0.54061  0.98067  1.0000
  H   H1688     1.0  0.22713  0.88786  0.07136  1.0000
  H   H1689     1.0  0.00325  0.51213  0.04716  1.0000
  C   C2088     1.0  0.11068  0.68584  0.01372  1.0000
  H   H1690     1.0  0.19469  0.56954  0.13804  1.0000
  C   C2089     1.0  0.22832  0.80848  0.12605  1.0000
  C   C2090     1.0  0.01377  0.82700  0.10993  1.0000
  H   H1691     1.0  0.09616  0.61261  0.04368  1.0000
  H   H1692     1.0  0.08240  0.67431  0.04635  1.0000
  C   C2091     1.0  0.00250  0.80438  0.08627  1.0000
  C   C2092     1.0  0.02248  0.59117  0.15451  1.0000
  C   C2093     1.0  0.02321  0.60851  0.14500  1.0000
  C   C2094     1.0  0.03485  0.61129  0.12849  1.0000
  C   C2095     1.0  0.04553  0.59678  0.12134  1.0000
  C   C2096     1.0  0.04481  0.57930  0.13069  1.0000
  C   C2097     1.0  0.03323  0.57659  0.14740  1.0000
  P   P71       1.0  0.05783  0.56084  0.12040  1.0000
  C   C2098     1.0  0.06015  0.54011  0.13657  1.0000
  C   C2099     1.0  0.04686  0.55819  0.10421  1.0000
  C   C2100     1.0  0.05161  0.54215  0.09816  1.0000
  C   C2101     1.0  0.04391  0.54023  0.08498  1.0000
  C   C2102     1.0  0.03148  0.55430  0.07767  1.0000
  C   C2103     1.0  0.02613  0.57003  0.08410  1.0000
  C   C2104     1.0  0.03376  0.57202  0.09731  1.0000
  C   C2105     1.0  0.07671  0.53168  0.14116  1.0000
  C   C2106     1.0  0.46685  0.88145  0.10019  1.0000
  H   H1693     1.0  0.02894  0.65874  0.98549  1.0000
  H   H1694     1.0  0.12318  0.59210  0.15313  1.0000
  C   C2107     1.0  0.04553  0.53177  0.14400  1.0000
  C   C2108     1.0  0.07992  0.56510  0.10995  1.0000
  C   C2109     1.0  0.09017  0.55766  0.09532  1.0000
  C   C2110     1.0  0.10747  0.56054  0.08786  1.0000
  C   C2111     1.0  0.11468  0.57074  0.09497  1.0000
  C   C2112     1.0  0.10474  0.57790  0.10970  1.0000
  C   C2113     1.0  0.08748  0.57505  0.11719  1.0000
  C   C2114     1.0  0.01222  0.83759  0.13639  1.0000
  C   C2115     1.0  0.11788  0.67480  0.06298  1.0000
  H   H1695     1.0  0.05413  0.59921  0.10832  1.0000
  H   H1696     1.0  0.03233  0.56333  0.15494  1.0000
  H   H1697     1.0  0.06164  0.53124  0.10325  1.0000
  H   H1698     1.0  0.04798  0.52800  0.08005  1.0000
  H   H1699     1.0  0.01655  0.58094  0.07830  1.0000
  H   H1700     1.0  0.02975  0.58456  0.10161  1.0000
  H   H1701     1.0  0.08833  0.53742  0.13509  1.0000
  H   H1702     1.0  0.23684  0.68625  0.16406  1.0000
  C   C2116     1.0  0.22363  0.76044  0.01167  1.0000
  H   H1703     1.0  0.25146  0.74897  0.00346  1.0000
  C   C2117     1.0  0.13677  0.74420  0.10911  1.0000
  C   C2118     1.0  0.06461  0.77217  0.10590  1.0000
  C   C2119     1.0  0.40602  0.93968  0.00603  1.0000
  H   H1704     1.0  0.01976  0.77124  0.02521  1.0000
  H   H1705     1.0  0.01465  0.61986  0.15024  1.0000
  S   S286      1.0  0.42023  0.88569  0.98964  1.0000
  Fe  Fe142     1.0  0.39369  0.90418  0.99542  1.0000
  C   C2120     1.0  0.45911  0.74249  0.00395  1.0000
  C   C2121     1.0  0.44732  0.89056  0.06812  1.0000
  H   H1706     1.0  0.42276  0.88864  0.08773  1.0000
  C   C2122     1.0  0.16763  0.72872  0.10263  1.0000
  C   C2123     1.0  0.10864  0.67226  0.05121  1.0000
  C   C2124     1.0  0.22821  0.85455  0.02981  1.0000
  C   C2125     1.0  0.05803  0.52052  0.03164  1.0000
  C   C2126     1.0  0.12967  0.62315  0.00904  1.0000
  H   H1707     1.0  0.42905  0.77771  0.03082  1.0000
  C   C2127     1.0  0.43235  0.88310  0.07712  1.0000
  S   S287      1.0  0.44246  0.93563  0.15413  1.0000
  Fe  Fe143     1.0  0.12896  0.53803  0.03762  1.0000
  H   H1708     1.0  0.02898  0.87022  0.99866  1.0000
  H   H1709     1.0  0.02711  0.69247  0.09747  1.0000
  C   C2128     1.0  0.32928  0.90952  0.14465  1.0000
  C   C2129     1.0  0.45948  0.82209  0.99796  1.0000
  H   H1710     1.0  0.03340  0.80089  0.04023  1.0000
  H   H1711     1.0  0.03533  0.75880  0.09414  1.0000
  C   C2130     1.0  0.19109  0.59250  0.17034  1.0000
  C   C2131     1.0  0.41607  0.96151  0.01591  1.0000
  C   C2132     1.0  0.26565  0.60852  0.15569  1.0000
  H   H1712     1.0  0.40970  0.94248  0.14210  1.0000
  C   C2133     1.0  0.17812  0.79213  0.97763  1.0000
  C   C2134     1.0  0.02101  0.82073  0.14391  1.0000
  C   C2135     1.0  0.33603  0.92021  0.15164  1.0000
  H   H1713     1.0  0.26372  0.87380  0.11048  1.0000
  H   H1714     1.0  0.41794  0.86278  0.07930  1.0000
  H   H1715     1.0  0.23603  0.86804  0.10642  1.0000
  H   H1716     1.0  0.00954  0.71753  0.07929  1.0000
  C   C2136     1.0  0.01459  0.69988  0.10375  1.0000
  C   C2137     1.0  0.00806  0.69473  0.12199  1.0000
  H   H1717     1.0  0.19647  0.77475  0.01651  1.0000
  C   C2138     1.0  0.18526  0.54791  0.15751  1.0000
  H   H1718     1.0  0.17980  0.55571  0.16778  1.0000
  S   S288      1.0  0.13274  0.56526  0.03764  1.0000
  C   C2139     1.0  0.17311  0.74318  0.10486  1.0000
  H   H1719     1.0  0.28911  0.63632  0.16984  1.0000
  H   H1720     1.0  0.08269  0.68803  0.09507  1.0000
  C   C2140     1.0  0.43311  0.95725  0.00542  1.0000
  H   H1721     1.0  0.40693  0.80032  0.17024  1.0000
  P   P72       1.0  0.02983  0.79232  0.10503  1.0000
  C   C2141     1.0  0.16052  0.75817  0.10914  1.0000
  C   C2142     1.0  0.20110  0.54575  0.12737  1.0000
  H   H1722     1.0  0.18731  0.63196  0.15063  1.0000
  Fe  Fe144     1.0  0.33724  0.81249  0.15579  1.0000
  H   H1723     1.0  0.30718  0.59519  0.16504  1.0000
  H   H1724     1.0  0.39069  0.84259  0.16812  1.0000
  C   C2143     1.0  0.29672  0.60195  0.15768  1.0000
  H   H1725     1.0  0.13227  0.67262  0.06013  1.0000
  H   H1726     1.0  0.37070  0.88967  0.16630  1.0000
  C   C2144     1.0  0.44980  0.75834  0.99508  1.0000
  C   C2145     1.0  0.05286  0.59419  0.05190  1.0000
  Fe  Fe145     1.0  0.13397  0.51095  0.01460  1.0000
  S   S289      1.0  0.06920  0.52382  0.04665  1.0000
  C   C2146     1.0  0.06852  0.86569  0.00589  1.0000
  C   C2147     1.0  0.03219  0.79732  0.06832  1.0000
  H   H1727     1.0  0.09936  0.73120  0.00515  1.0000
  H   H1728     1.0  0.01540  0.68322  0.12975  1.0000
  H   H1729     1.0  0.03038  0.56763  0.99957  1.0000
  H   H1730     1.0  0.19931  0.79835  0.10716  1.0000
  C   C2148     1.0  0.43884  0.77119  0.00464  1.0000
  H   H1731     1.0  0.20760  0.55220  0.11449  1.0000
  H   H1732     1.0  0.00110  0.58203  0.04760  1.0000
  H   H1733     1.0  0.10275  0.48461  0.99678  1.0000
  C   C2149     1.0  0.06490  0.65503  0.00303  1.0000
  H   H1734     1.0  0.30944  0.86057  0.17242  1.0000
  H   H1735     1.0  0.46149  0.91182  0.13312  1.0000
  C   C2150     1.0  0.47073  0.88533  0.12812  1.0000
  C   C2151     1.0  0.09373  0.85093  0.98651  1.0000
  H   H1736     1.0  0.45120  0.76047  0.98081  1.0000
  C   C2152     1.0  0.99388  0.52271  0.05307  1.0000
  C   C2153     1.0  0.42458  0.97025  0.10386  1.0000
  H   H1737     1.0  0.40429  0.68723  0.15502  1.0000
  C   C2154     1.0  0.00000  0.60076  0.00414  1.0000
  H   H1738     1.0  0.00774  0.72717  0.14010  1.0000
  H   H1739     1.0  0.44970  0.94067  0.98726  1.0000
  H   H1740     1.0  0.41271  0.73667  0.16024  1.0000
  C   C2155     1.0  0.07903  0.86262  0.01848  1.0000
  C   C2156     1.0  0.09672  0.59827  0.98713  1.0000
  C   C2157     1.0  0.26209  0.67292  0.15076  1.0000
  C   C2158     1.0  0.27919  0.59994  0.16512  1.0000
  C   C2159     1.0  0.09683  0.85367  0.01516  1.0000
  H   H1741     1.0  0.17719  0.52399  0.17401  1.0000
  C   C2160     1.0  0.01644  0.89757  0.99112  1.0000
  H   H1742     1.0  0.46297  0.84807  0.98263  1.0000
  H   H1743     1.0  0.38754  0.97996  0.14187  1.0000
  C   C2161     1.0  0.22731  0.49010  0.14202  1.0000
  H   H1744     1.0  0.07699  0.56796  0.17192  1.0000
  H   H1745     1.0  0.00702  0.92532  0.98065  1.0000
  S   S290      1.0  0.99505  0.59673  0.98522  1.0000
  H   H1746     1.0  0.07548  0.82559  0.98387  1.0000
  H   H1747     1.0  0.09112  0.69475  0.97794  1.0000
  H   H1748     1.0  0.33623  0.70162  0.16984  1.0000
  H   H1749     1.0  0.09976  0.62568  0.97761  1.0000
  C   C2162     1.0  0.03011  0.88261  0.98917  1.0000
  C   C2163     1.0  0.18834  0.49142  0.98683  1.0000
  C   C2164     1.0  0.10613  0.61184  0.97816  1.0000
  C   C2165     1.0  0.06811  0.53548  0.97915  1.0000
  S   S291      1.0  0.39212  0.95008  0.17490  1.0000
  C   C2166     1.0  0.99159  0.70382  0.13001  1.0000
  H   H1750     1.0  0.03282  0.80432  0.97927  1.0000
  C   C2167     1.0  0.03831  0.81574  0.97836  1.0000
  H   H1751     1.0  0.22272  0.81920  0.97847  1.0000
  H   H1752     1.0  0.08155  0.55279  0.98512  1.0000
  C   C2168     1.0  0.35431  0.79865  0.97906  1.0000
  C   C2169     1.0  0.40047  0.79089  0.16800  1.0000
  C   C2170     1.0  0.10002  0.52984  0.97670  1.0000
  C   C2171     1.0  0.09871  0.51048  0.19551  1.0000
  Fe  Fe146     1.0  0.34293  0.58616  0.32821  1.0000
  S   S292      1.0  0.35298  0.58049  0.30061  1.0000
  S   S293      1.0  0.33665  0.56479  0.35239  1.0000
  Fe  Fe147     1.0  0.34583  0.62524  0.31613  1.0000
  S   S294      1.0  0.35566  0.62287  0.28770  1.0000
  S   S295      1.0  0.34792  0.64777  0.32729  1.0000
  Fe  Fe148     1.0  0.33458  0.60665  0.29265  1.0000
  S   S296      1.0  0.31389  0.61265  0.27547  1.0000
  Fe  Fe149     1.0  0.37301  0.59706  0.29820  1.0000
  S   S297      1.0  0.40286  0.59235  0.28797  1.0000
  S   S298      1.0  0.32333  0.61133  0.32043  1.0000
  S   S299      1.0  0.36432  0.60041  0.32630  1.0000
  Fe  Fe150     1.0  0.47119  0.55520  0.35099  1.0000
  S   S300      1.0  0.46802  0.58302  0.35414  1.0000
  S   S301      1.0  0.44792  0.54684  0.34617  1.0000
  Fe  Fe151     1.0  0.21555  0.56711  0.26061  1.0000
  S   S302      1.0  0.23339  0.54195  0.27176  1.0000
  S   S303      1.0  0.19173  0.58492  0.27416  1.0000
  Fe  Fe152     1.0  0.23699  0.56849  0.22299  1.0000
  S   S304      1.0  0.25677  0.54366  0.23093  1.0000
  Fe  Fe153     1.0  0.23274  0.53284  0.24725  1.0000
  S   S305      1.0  0.23155  0.50499  0.24578  1.0000
  Fe  Fe154     1.0  0.25594  0.55490  0.25447  1.0000
  S   S306      1.0  0.28173  0.55185  0.26366  1.0000
  S   S307      1.0  0.21304  0.55698  0.23764  1.0000
  S   S308      1.0  0.23812  0.58067  0.24508  1.0000
  H   H1753     1.0  0.48482  0.95149  0.29115  1.0000
  S   S309      1.0  0.14223  0.56408  0.34970  1.0000
  H   H1754     1.0  0.31132  0.81599  0.21656  1.0000
  Fe  Fe155     1.0  0.43575  0.88091  0.31411  1.0000
  S   S310      1.0  0.40621  0.89020  0.32069  1.0000
  S   S311      1.0  0.45022  0.89038  0.28615  1.0000
  Fe  Fe156     1.0  0.43621  0.85671  0.35051  1.0000
  S   S312      1.0  0.40629  0.86362  0.35933  1.0000
  C   C2172     1.0  0.34193  0.96694  0.26512  1.0000
  Fe  Fe157     1.0  0.40546  0.86137  0.33186  1.0000
  S   S313      1.0  0.38609  0.85265  0.32087  1.0000
  Fe  Fe158     1.0  0.40989  0.89168  0.34717  1.0000
  S   S314      1.0  0.39347  0.91445  0.36034  1.0000
  S   S315      1.0  0.43505  0.85207  0.32401  1.0000
  S   S316      1.0  0.43980  0.88484  0.33978  1.0000
  Fe  Fe159     1.0  0.37274  0.76550  0.30397  1.0000
  S   S317      1.0  0.39554  0.76543  0.28050  1.0000
  S   S318      1.0  0.37460  0.77475  0.32807  1.0000
  Fe  Fe160     1.0  0.35461  0.74414  0.28950  1.0000
  S   S319      1.0  0.37602  0.74279  0.26491  1.0000
  S   S320      1.0  0.33272  0.72968  0.29181  1.0000
  Fe  Fe161     1.0  0.39492  0.73688  0.28321  1.0000
  S   S321      1.0  0.41822  0.71362  0.28203  1.0000
  Fe  Fe162     1.0  0.37471  0.77143  0.26417  1.0000
  S   S322      1.0  0.37959  0.79129  0.23837  1.0000
  S   S323      1.0  0.37367  0.73625  0.30802  1.0000
  S   S324      1.0  0.35153  0.77364  0.28749  1.0000
  H   H1755     1.0  0.44717  0.62956  0.27552  1.0000
  C   C2173     1.0  0.10835  0.52308  0.18443  1.0000
  C   C2174     1.0  0.18733  0.49734  0.22238  1.0000
  H   H1756     1.0  0.42395  0.93939  0.31585  1.0000
  C   C2175     1.0  0.14371  0.52075  0.27330  1.0000
  C   C2176     1.0  0.36562  0.74307  0.20705  1.0000
  H   H1757     1.0  0.10603  0.49546  0.33685  1.0000
  Fe  Fe163     1.0  0.40324  0.90681  0.20925  1.0000
  S   S325      1.0  0.37583  0.92431  0.21156  1.0000
  S   S326      1.0  0.40796  0.88290  0.23138  1.0000
  H   H1758     1.0  0.01397  0.95221  0.37060  1.0000
  H   H1759     1.0  0.35813  0.96123  0.35320  1.0000
  Fe  Fe164     1.0  0.39020  0.94686  0.20400  1.0000
  S   S327      1.0  0.41734  0.92918  0.20368  1.0000
  H   H1760     1.0  0.48224  0.68687  0.31089  1.0000
  C   C2177     1.0  0.13025  0.55929  0.18538  1.0000
  H   H1761     1.0  0.21264  0.57829  0.29941  1.0000
  H   H1762     1.0  0.20459  0.57624  0.33206  1.0000
  C   C2178     1.0  0.45391  0.74592  0.30589  1.0000
  H   H1763     1.0  0.17526  0.49320  0.33503  1.0000
  H   H1764     1.0  0.44965  0.91467  0.31180  1.0000
  C   C2179     1.0  0.36590  0.79323  0.22345  1.0000
  C   C2180     1.0  0.36948  0.80343  0.20616  1.0000
  H   H1765     1.0  0.34572  0.65459  0.20993  1.0000
  C   C2181     1.0  0.34536  0.79507  0.19865  1.0000
  C   C2182     1.0  0.34129  0.78564  0.21623  1.0000
  C   C2183     1.0  0.35167  0.78445  0.22852  1.0000
  C   C2184     1.0  0.39299  0.72511  0.18139  1.0000
  H   H1766     1.0  0.33001  0.77923  0.22038  1.0000
  H   H1767     1.0  0.34863  0.77679  0.24193  1.0000
  C   C2185     1.0  0.43898  0.71994  0.27567  1.0000
  C   C2186     1.0  0.45444  0.70716  0.27842  1.0000
  H   H1768     1.0  0.30603  0.51927  0.30312  1.0000
  C   C2187     1.0  0.27071  0.54962  0.37379  1.0000
  C   C2188     1.0  0.44022  0.73766  0.26828  1.0000
  H   H1769     1.0  0.45357  0.69339  0.28370  1.0000
  H   H1770     1.0  0.47325  0.60617  0.31996  1.0000
  H   H1771     1.0  0.42853  0.74749  0.26560  1.0000
  C   C2189     1.0  0.38423  0.83056  0.32263  1.0000
  C   C2190     1.0  0.37731  0.82682  0.30972  1.0000
  C   C2191     1.0  0.37517  0.80953  0.31081  1.0000
  C   C2192     1.0  0.37889  0.79610  0.32542  1.0000
  C   C2193     1.0  0.38548  0.79988  0.33855  1.0000
  C   C2194     1.0  0.38850  0.81697  0.33698  1.0000
  H   H1772     1.0  0.37375  0.83733  0.29871  1.0000
  H   H1773     1.0  0.37017  0.80670  0.30062  1.0000
  H   H1774     1.0  0.38815  0.78960  0.35003  1.0000
  H   H1775     1.0  0.39346  0.81986  0.34717  1.0000
  C   C2195     1.0  0.43852  0.88845  0.27078  1.0000
  C   C2196     1.0  0.42388  0.88014  0.27672  1.0000
  C   C2197     1.0  0.41457  0.87859  0.26456  1.0000
  C   C2198     1.0  0.41961  0.88558  0.24636  1.0000
  C   C2199     1.0  0.43421  0.89397  0.24035  1.0000
  C   C2200     1.0  0.44374  0.89526  0.25252  1.0000
  H   H1776     1.0  0.41987  0.87450  0.29065  1.0000
  H   H1777     1.0  0.40328  0.87214  0.26932  1.0000
  H   H1778     1.0  0.43837  0.89917  0.22628  1.0000
  H   H1779     1.0  0.45497  0.90177  0.24777  1.0000
  H   H1780     1.0  0.31655  0.57059  0.20912  1.0000
  C   C2201     1.0  0.44061  0.76151  0.30460  1.0000
  H   H1781     1.0  0.46787  0.74642  0.30184  1.0000
  C   C2202     1.0  0.42608  0.79257  0.27096  1.0000
  C   C2203     1.0  0.46884  0.78138  0.28423  1.0000
  C   C2204     1.0  0.17894  0.57805  0.29547  1.0000
  C   C2205     1.0  0.16473  0.59067  0.30234  1.0000
  C   C2206     1.0  0.15386  0.58607  0.31902  1.0000
  C   C2207     1.0  0.15711  0.56882  0.32918  1.0000
  C   C2208     1.0  0.17155  0.55609  0.32256  1.0000
  C   C2209     1.0  0.18253  0.56075  0.30567  1.0000
  H   H1782     1.0  0.16201  0.60409  0.29465  1.0000
  H   H1783     1.0  0.14279  0.59596  0.32407  1.0000
  H   H1784     1.0  0.17417  0.54270  0.33034  1.0000
  H   H1785     1.0  0.19374  0.55108  0.30057  1.0000
  C   C2210     1.0  0.21462  0.50244  0.23639  1.0000
  C   C2211     1.0  0.19801  0.51405  0.23795  1.0000
  C   C2212     1.0  0.18440  0.51140  0.23118  1.0000
  H   H1786     1.0  0.19562  0.52493  0.24463  1.0000
  C   C2213     1.0  0.34090  0.67693  0.18884  1.0000
  C   C2214     1.0  0.30458  0.59552  0.27320  1.0000
  C   C2215     1.0  0.31357  0.57773  0.27590  1.0000
  C   C2216     1.0  0.30644  0.56463  0.27274  1.0000
  C   C2217     1.0  0.29018  0.56907  0.26702  1.0000
  C   C2218     1.0  0.28099  0.58682  0.26462  1.0000
  C   C2219     1.0  0.28813  0.59994  0.26782  1.0000
  H   H1787     1.0  0.32618  0.57409  0.28013  1.0000
  H   H1788     1.0  0.31361  0.55094  0.27467  1.0000
  H   H1789     1.0  0.26837  0.59042  0.26042  1.0000
  H   H1790     1.0  0.28077  0.61354  0.26632  1.0000
  C   C2220     1.0  0.34443  0.66993  0.31547  1.0000
  C   C2221     1.0  0.33000  0.67738  0.30698  1.0000
  C   C2222     1.0  0.32637  0.69579  0.29978  1.0000
  C   C2223     1.0  0.33746  0.70662  0.30061  1.0000
  C   C2224     1.0  0.35211  0.69896  0.30870  1.0000
  C   C2225     1.0  0.35537  0.68080  0.31634  1.0000
  H   H1791     1.0  0.32124  0.66913  0.30664  1.0000
  H   H1792     1.0  0.31490  0.70167  0.29370  1.0000
  H   H1793     1.0  0.36079  0.70702  0.30940  1.0000
  H   H1794     1.0  0.36642  0.67513  0.32299  1.0000
  C   C2226     1.0  0.41506  0.58051  0.30469  1.0000
  C   C2227     1.0  0.40737  0.56937  0.31985  1.0000
  C   C2228     1.0  0.41749  0.55934  0.33260  1.0000
  C   C2229     1.0  0.43522  0.56074  0.33060  1.0000
  C   C2230     1.0  0.44275  0.57233  0.31574  1.0000
  C   C2231     1.0  0.43279  0.58194  0.30267  1.0000
  H   H1795     1.0  0.39381  0.56793  0.32143  1.0000
  H   H1796     1.0  0.41159  0.55027  0.34389  1.0000
  H   H1797     1.0  0.45646  0.57330  0.31398  1.0000
  H   H1798     1.0  0.43885  0.59037  0.29090  1.0000
  C   C2232     1.0  0.31878  0.57426  0.36769  1.0000
  H   H1799     1.0  0.06900  0.53652  0.22246  1.0000
  H   H1800     1.0  0.17351  0.61000  0.36333  1.0000
  H   H1801     1.0  0.46324  0.81815  0.33130  1.0000
  H   H1802     1.0  0.48519  0.76884  0.33643  1.0000
  C   C2233     1.0  0.31368  0.59274  0.36547  1.0000
  H   H1803     1.0  0.03969  0.51627  0.36878  1.0000
  C   C2234     1.0  0.15063  0.55543  0.27347  1.0000
  C   C2235     1.0  0.39818  0.77550  0.18093  1.0000
  H   H1804     1.0  0.32190  0.60108  0.35578  1.0000
  H   H1805     1.0  0.37096  0.94661  0.32736  1.0000
  C   C2236     1.0  0.40413  0.93000  0.36353  1.0000
  C   C2237     1.0  0.42211  0.93011  0.35591  1.0000
  C   C2238     1.0  0.43015  0.94284  0.35846  1.0000
  H   H1806     1.0  0.42976  0.92052  0.34792  1.0000
  C   C2239     1.0  0.37793  0.97734  0.34621  1.0000
  H   H1807     1.0  0.39016  0.75809  0.22277  1.0000
  C   C2240     1.0  0.43141  0.72795  0.31615  1.0000
  C   C2241     1.0  0.09508  0.53744  0.31593  1.0000
  C   C2242     1.0  0.43949  0.95994  0.30489  1.0000
  S   S328      1.0  0.12387  0.52169  0.37594  1.0000
  H   H1808     1.0  0.21636  0.62789  0.25817  1.0000
  C   C2243     1.0  0.14671  0.58750  0.26925  1.0000
  C   C2244     1.0  0.20424  0.58767  0.19614  1.0000
  C   C2245     1.0  0.46867  0.60712  0.27228  1.0000
  C   C2246     1.0  0.33076  0.74224  0.22695  1.0000
  H   H1809     1.0  0.38396  0.64665  0.24632  1.0000
  C   C2247     1.0  0.43037  0.79800  0.28455  1.0000
  C   C2248     1.0  0.47224  0.65316  0.29873  1.0000
  H   H1810     1.0  0.47616  0.82352  0.23523  1.0000
  H   H1811     1.0  0.12784  0.64225  0.34287  1.0000
  H   H1812     1.0  0.16024  0.62890  0.33815  1.0000
  C   C2249     1.0  0.14330  0.57124  0.27987  1.0000
  C   C2250     1.0  0.36977  0.96485  0.34364  1.0000
  C   C2251     1.0  0.41932  0.72353  0.20611  1.0000
  H   H1813     1.0  0.03499  0.95011  0.34214  1.0000
  C   C2252     1.0  0.24088  0.57238  0.29816  1.0000
  C   C2253     1.0  0.21851  0.57395  0.32535  1.0000
  C   C2254     1.0  0.37999  0.69221  0.36002  1.0000
  C   C2255     1.0  0.39454  0.66607  0.33940  1.0000
  C   C2256     1.0  0.24912  0.66370  0.18194  1.0000
  H   H1814     1.0  0.47772  0.84774  0.33511  1.0000
  C   C2257     1.0  0.16533  0.52255  0.29740  1.0000
  H   H1815     1.0  0.45893  0.63336  0.34259  1.0000
  C   C2258     1.0  0.48818  0.72762  0.36871  1.0000
  C   C2259     1.0  0.07982  0.53284  0.21167  1.0000
  C   C2260     1.0  0.47462  0.67754  0.31045  1.0000
  C   C2261     1.0  0.43707  0.94234  0.31037  1.0000
  C   C2262     1.0  0.15766  0.58810  0.25230  1.0000
  C   C2263     1.0  0.42248  0.81516  0.28777  1.0000
  C   C2264     1.0  0.44931  0.72924  0.31172  1.0000
  H   H1816     1.0  0.37530  0.70950  0.20061  1.0000
  C   C2265     1.0  0.48620  0.91825  0.34741  1.0000
  H   H1817     1.0  0.35513  0.89685  0.20430  1.0000
  H   H1818     1.0  0.24435  0.57344  0.28385  1.0000
  C   C2266     1.0  0.38621  0.72140  0.37229  1.0000
  H   H1819     1.0  0.21057  0.51714  0.28974  1.0000
  C   C2267     1.0  0.31343  0.92167  0.21409  1.0000
  C   C2268     1.0  0.12956  0.57548  0.18983  1.0000
  S   S329      1.0  0.40644  0.90623  0.18031  1.0000
  C   C2269     1.0  0.11043  0.53457  0.30266  1.0000
  C   C2270     1.0  0.22300  0.57508  0.30693  1.0000
  C   C2271     1.0  0.13583  0.52874  0.25843  1.0000
  H   H1820     1.0  0.47832  0.64369  0.29015  1.0000
  H   H1821     1.0  0.08265  0.53508  0.31467  1.0000
  C   C2272     1.0  0.32983  0.91559  0.26251  1.0000
  C   C2273     1.0  0.34207  0.90287  0.25376  1.0000
  C   C2274     1.0  0.36018  0.89982  0.25393  1.0000
  C   C2275     1.0  0.36618  0.90981  0.26244  1.0000
  C   C2276     1.0  0.35405  0.92309  0.27073  1.0000
  C   C2277     1.0  0.33576  0.92546  0.27123  1.0000
  P   P73       1.0  0.36146  0.93541  0.28265  1.0000
  C   C2278     1.0  0.38527  0.93358  0.27597  1.0000
  H   H1822     1.0  0.38028  0.90699  0.26254  1.0000
  Fe  Fe165     1.0  0.38021  0.92570  0.18206  1.0000
  H   H1823     1.0  0.37930  0.66365  0.28574  1.0000
  C   C2279     1.0  0.36466  0.86004  0.20357  1.0000
  H   H1824     1.0  0.39817  0.68405  0.28633  1.0000
  H   H1825     1.0  0.13152  0.54305  0.25496  1.0000
  C   C2280     1.0  0.39303  0.93756  0.25784  1.0000
  C   C2281     1.0  0.41133  0.93715  0.25234  1.0000
  C   C2282     1.0  0.42204  0.93251  0.26496  1.0000
  C   C2283     1.0  0.41443  0.92827  0.28306  1.0000
  C   C2284     1.0  0.39606  0.92903  0.28860  1.0000
  C   C2285     1.0  0.35549  0.92535  0.30591  1.0000
  C   C2286     1.0  0.36267  0.90730  0.31184  1.0000
  C   C2287     1.0  0.35868  0.89937  0.32989  1.0000
  C   C2288     1.0  0.34741  0.90934  0.34212  1.0000
  C   C2289     1.0  0.33977  0.92717  0.33625  1.0000
  C   C2290     1.0  0.34364  0.93514  0.31817  1.0000
  H   H1826     1.0  0.31575  0.91778  0.26257  1.0000
  H   H1827     1.0  0.33754  0.89532  0.24692  1.0000
  H   H1828     1.0  0.36967  0.88977  0.24737  1.0000
  H   H1829     1.0  0.00703  0.90374  0.23349  1.0000
  H   H1830     1.0  0.32610  0.93500  0.27831  1.0000
  C   C2291     1.0  0.13875  0.49976  0.25218  1.0000
  C   C2292     1.0  0.42919  0.72995  0.22977  1.0000
  H   H1831     1.0  0.41328  0.97652  0.18936  1.0000
  H   H1832     1.0  0.08386  0.54573  0.34104  1.0000
  C   C2293     1.0  0.48169  0.59420  0.28003  1.0000
  H   H1833     1.0  0.38487  0.94083  0.24799  1.0000
  H   H1834     1.0  0.41715  0.94022  0.23825  1.0000
  H   H1835     1.0  0.43631  0.93167  0.26073  1.0000
  H   H1836     1.0  0.39041  0.92607  0.30270  1.0000
  C   C2294     1.0  0.40015  0.85438  0.18455  1.0000
  H   H1837     1.0  0.37161  0.89939  0.30256  1.0000
  H   H1838     1.0  0.36452  0.88548  0.33438  1.0000
  H   H1839     1.0  0.34461  0.90322  0.35615  1.0000
  H   H1840     1.0  0.33089  0.93484  0.34574  1.0000
  C   C2295     1.0  0.37792  0.86502  0.20891  1.0000
  H   H1841     1.0  0.30668  0.93547  0.21347  1.0000
  C   C2296     1.0  0.14281  0.54420  0.19107  1.0000
  H   H1842     1.0  0.33432  0.63876  0.23955  1.0000
  C   C2297     1.0  0.39252  0.69549  0.34409  1.0000
  C   C2298     1.0  0.40172  0.74735  0.22103  1.0000
  H   H1843     1.0  0.33967  0.95919  0.25687  1.0000
  H   H1844     1.0  0.46139  0.79198  0.25853  1.0000
  C   C2299     1.0  0.47090  0.71230  0.27488  1.0000
  H   H1845     1.0  0.42145  0.74732  0.37293  1.0000
  H   H1846     1.0  0.42657  0.67202  0.29623  1.0000
  C   C2300     1.0  0.36948  0.85179  0.18884  1.0000
  C   C2301     1.0  0.47622  0.74410  0.36654  1.0000
  H   H1847     1.0  0.19418  0.48887  0.27826  1.0000
  C   C2302     1.0  0.42451  0.61542  0.34183  1.0000
  C   C2303     1.0  0.45617  0.83344  0.25644  1.0000
  H   H1848     1.0  0.11988  0.58729  0.18593  1.0000
  C   C2304     1.0  0.16279  0.51090  0.31409  1.0000
  C   C2305     1.0  0.12664  0.53745  0.30431  1.0000
  H   H1849     1.0  0.34648  0.60653  0.24388  1.0000
  C   C2306     1.0  0.38957  0.76327  0.17828  1.0000
  C   C2307     1.0  0.13352  0.51826  0.24783  1.0000
  H   H1850     1.0  0.13711  0.49172  0.24380  1.0000
  C   C2308     1.0  0.18271  0.52461  0.28862  1.0000
  C   C2309     1.0  0.44310  0.61972  0.36543  1.0000
  H   H1851     1.0  0.42786  0.71503  0.31987  1.0000
  H   H1852     1.0  0.14142  0.59955  0.27446  1.0000
  C   C2310     1.0  0.42026  0.60793  0.36002  1.0000
  H   H1853     1.0  0.02181  0.87518  0.36446  1.0000
  C   C2311     1.0  0.48771  0.83269  0.25210  1.0000
  C   C2312     1.0  0.32461  0.83633  0.21686  1.0000
  S   S330      1.0  0.33285  0.79489  0.18327  1.0000
  H   H1854     1.0  0.37693  0.65057  0.35861  1.0000
  H   H1855     1.0  0.37468  0.87097  0.22050  1.0000
  H   H1856     1.0  0.98918  0.93728  0.36610  1.0000
  C   C2313     1.0  0.12718  0.54334  0.31935  1.0000
  H   H1857     1.0  0.43550  0.66445  0.33033  1.0000
  H   H1858     1.0  0.07724  0.50544  0.21789  1.0000
  C   C2314     1.0  0.11179  0.54636  0.33248  1.0000
  C   C2315     1.0  0.34525  0.67917  0.21738  1.0000
  H   H1859     1.0  0.13529  0.57113  0.29316  1.0000
  C   C2316     1.0  0.42309  0.97988  0.25121  1.0000
  H   H1860     1.0  0.40542  0.75621  0.34797  1.0000
  H   H1861     1.0  0.22832  0.56980  0.34919  1.0000
  C   C2317     1.0  0.33159  0.85929  0.25368  1.0000
  H   H1862     1.0  0.45761  0.75644  0.25865  1.0000
  C   C2318     1.0  0.47165  0.60633  0.30681  1.0000
  C   C2319     1.0  0.47177  0.71587  0.35413  1.0000
  H   H1863     1.0  0.36241  0.81178  0.18036  1.0000
  H   H1864     1.0  0.43877  0.96543  0.27056  1.0000
  H   H1865     1.0  0.33853  0.71999  0.18970  1.0000
  H   H1866     1.0  0.13950  0.54569  0.32089  1.0000
  C   C2320     1.0  0.45708  0.61961  0.28182  1.0000
  C   C2321     1.0  0.43161  0.78795  0.33208  1.0000
  C   C2322     1.0  0.45540  0.65265  0.30999  1.0000
  H   H1867     1.0  0.44337  0.70919  0.21548  1.0000
  C   C2323     1.0  0.28905  0.64801  0.24062  1.0000
  C   C2324     1.0  0.28615  0.66656  0.23635  1.0000
  C   C2325     1.0  0.27685  0.67604  0.22292  1.0000
  C   C2326     1.0  0.27052  0.66698  0.21368  1.0000
  C   C2327     1.0  0.27359  0.64829  0.21772  1.0000
  C   C2328     1.0  0.28274  0.63892  0.23142  1.0000
  P   P74       1.0  0.26580  0.63623  0.20576  1.0000
  C   C2329     1.0  0.24408  0.63168  0.21716  1.0000
  H   H1868     1.0  0.43180  0.77931  0.26842  1.0000
  S   S331      1.0  0.16777  0.51413  0.36670  1.0000
  H   H1869     1.0  0.20261  0.58685  0.21024  1.0000
  S   S332      1.0  0.43084  0.97110  0.37185  1.0000
  H   H1870     1.0  0.17153  0.52035  0.23275  1.0000
  H   H1871     1.0  0.42172  0.71562  0.19619  1.0000
  C   C2330     1.0  0.42397  0.64443  0.30221  1.0000
  C   C2331     1.0  0.34413  0.66884  0.20591  1.0000
  H   H1872     1.0  0.38974  0.63105  0.29417  1.0000
  C   C2332     1.0  0.45830  0.61907  0.29931  1.0000
  C   C2333     1.0  0.23756  0.63243  0.23523  1.0000
  C   C2334     1.0  0.28178  0.61540  0.20479  1.0000
  C   C2335     1.0  0.27618  0.59909  0.21081  1.0000
  C   C2336     1.0  0.28871  0.58304  0.21225  1.0000
  C   C2337     1.0  0.30693  0.58308  0.20758  1.0000
  C   C2338     1.0  0.31266  0.59920  0.20133  1.0000
  C   C2339     1.0  0.30016  0.61531  0.19999  1.0000
  H   H1873     1.0  0.29612  0.64066  0.25115  1.0000
  H   H1874     1.0  0.29101  0.67356  0.24354  1.0000
  H   H1875     1.0  0.27448  0.69044  0.21969  1.0000
  H   H1876     1.0  0.26335  0.67468  0.20339  1.0000
  H   H1877     1.0  0.28510  0.62453  0.23495  1.0000
  C   C2340     1.0  0.22129  0.58613  0.18523  1.0000
  C   C2341     1.0  0.09574  0.54341  0.33079  1.0000
  C   C2342     1.0  0.41860  0.66286  0.29621  1.0000
  H   H1878     1.0  0.41383  0.85232  0.17719  1.0000
  H   H1879     1.0  0.12788  0.52445  0.23610  1.0000
  H   H1880     1.0  0.32143  0.87115  0.25136  1.0000
  H   H1881     1.0  0.39581  0.61450  0.25024  1.0000
  C   C2343     1.0  0.33296  0.85112  0.27126  1.0000
  H   H1882     1.0  0.35975  0.84730  0.18464  1.0000
  H   H1883     1.0  0.24523  0.63617  0.24262  1.0000
  H   H1884     1.0  0.26219  0.59856  0.21474  1.0000
  H   H1885     1.0  0.32240  0.75438  0.20200  1.0000
  H   H1886     1.0  0.45251  0.68628  0.33066  1.0000
  H   H1887     1.0  0.30479  0.62770  0.19580  1.0000
  C   C2344     1.0  0.37697  0.95668  0.32903  1.0000
  H   H1888     1.0  0.42285  0.92395  0.29276  1.0000
  C   C2345     1.0  0.39034  0.73554  0.35827  1.0000
  H   H1889     1.0  0.41018  0.59995  0.36491  1.0000
  H   H1890     1.0  0.41930  0.79281  0.35844  1.0000
  H   H1891     1.0  0.23836  0.66591  0.19328  1.0000
  C   C2346     1.0  0.34083  0.89965  0.20904  1.0000
  H   H1892     1.0  0.45973  0.71734  0.31211  1.0000
  H   H1893     1.0  0.42226  0.78007  0.33242  1.0000
  H   H1894     1.0  0.34443  0.70596  0.21968  1.0000
  H   H1895     1.0  0.34009  0.63872  0.36758  1.0000
  H   H1896     1.0  0.40313  0.77340  0.19290  1.0000
  H   H1897     1.0  0.22283  0.48411  0.28765  1.0000
  C   C2347     1.0  0.44481  0.79159  0.31678  1.0000
  H   H1898     1.0  0.40536  0.69063  0.22442  1.0000
  H   H1899     1.0  0.02896  0.89958  0.33905  1.0000
  C   C2348     1.0  0.45170  0.92819  0.30835  1.0000
  C   C2349     1.0  0.41376  0.63304  0.30072  1.0000
  H   H1900     1.0  0.31998  0.69376  0.36965  1.0000
  C   C2350     1.0  0.47219  0.78650  0.26558  1.0000
  C   C2351     1.0  0.47134  0.84088  0.37356  1.0000
  H   H1901     1.0  0.45081  0.62070  0.37448  1.0000
  S   S333      1.0  0.16976  0.49539  0.21347  1.0000
  H   H1902     1.0  0.45137  0.89827  0.36877  1.0000
  C   C2352     1.0  0.42704  0.97550  0.26819  1.0000
  H   H1903     1.0  0.33994  0.66890  0.18012  1.0000
  C   C2353     1.0  0.15490  0.54540  0.20053  1.0000
  H   H1904     1.0  0.16490  0.53383  0.20436  1.0000
  H   H1905     1.0  0.14172  0.58930  0.20200  1.0000
  C   C2354     1.0  0.32900  0.85282  0.20801  1.0000
  C   C2355     1.0  0.41425  0.74377  0.23171  1.0000
  H   H1906     1.0  0.43926  0.84493  0.27832  1.0000
  H   H1907     1.0  0.09752  0.51243  0.36091  1.0000
  H   H1908     1.0  0.40498  0.84009  0.27973  1.0000
  C   C2356     1.0  0.48864  0.87104  0.32173  1.0000
  C   C2357     1.0  0.45283  0.84117  0.27120  1.0000
  C   C2358     1.0  0.16146  0.55621  0.25631  1.0000
  H   H1909     1.0  0.17602  0.59227  0.19717  1.0000
  H   H1910     1.0  0.41814  0.61874  0.30402  1.0000
  C   C2359     1.0  0.37421  0.67600  0.36507  1.0000
  C   C2360     1.0  0.34007  0.70570  0.19425  1.0000
  C   C2361     1.0  0.37216  0.60856  0.24663  1.0000
  H   H1911     1.0  0.06757  0.94471  0.34035  1.0000
  C   C2362     1.0  0.20395  0.48559  0.22086  1.0000
  H   H1912     1.0  0.33741  0.94889  0.31391  1.0000
  H   H1913     1.0  0.10957  0.53009  0.29121  1.0000
  C   C2363     1.0  0.38883  0.69771  0.24872  1.0000
  C   C2364     1.0  0.35097  0.74925  0.19864  1.0000
  C   C2365     1.0  0.42985  0.79517  0.34688  1.0000
  C   C2366     1.0  0.01899  0.90251  0.35071  1.0000
  H   H1914     1.0  0.11239  0.55106  0.34395  1.0000
  H   H1915     1.0  0.01291  0.93069  0.33994  1.0000
  C   C2367     1.0  0.39774  0.63998  0.29480  1.0000
  H   H1916     1.0  0.48009  0.92049  0.29961  1.0000
  C   C2368     1.0  0.39196  0.65835  0.28988  1.0000
  P   P75       1.0  0.14653  0.53424  0.28712  1.0000
  C   C2369     1.0  0.40075  0.97328  0.31958  1.0000
  C   C2370     1.0  0.17735  0.50190  0.32202  1.0000
  C   C2371     1.0  0.36258  0.73622  0.22551  1.0000
  C   C2372     1.0  0.34524  0.73597  0.23543  1.0000
  C   C2373     1.0  0.34799  0.63380  0.24125  1.0000
  C   C2374     1.0  0.47150  0.94892  0.29656  1.0000
  C   C2375     1.0  0.36615  0.58060  0.37012  1.0000
  C   C2376     1.0  0.00993  0.92003  0.35119  1.0000
  H   H1917     1.0  0.33946  0.92790  0.20383  1.0000
  C   C2377     1.0  0.44764  0.62691  0.34722  1.0000
  C   C2378     1.0  0.16503  0.57247  0.24583  1.0000
  H   H1918     1.0  0.41085  0.79986  0.25026  1.0000
  H   H1919     1.0  0.16089  0.60060  0.24441  1.0000
  H   H1920     1.0  0.18519  0.53339  0.27575  1.0000
  H   H1921     1.0  0.23916  0.62473  0.19443  1.0000
  H   H1922     1.0  0.10251  0.49686  0.19366  1.0000
  C   C2379     1.0  0.46270  0.90412  0.36722  1.0000
  P   P76       1.0  0.34210  0.86283  0.21657  1.0000
  C   C2380     1.0  0.31246  0.89046  0.22041  1.0000
  C   C2381     1.0  0.40251  0.66978  0.29033  1.0000
  H   H1923     1.0  0.46742  0.60735  0.25896  1.0000
  C   C2382     1.0  0.30905  0.83751  0.19388  1.0000
  C   C2383     1.0  0.35486  0.61546  0.24364  1.0000
  C   C2384     1.0  0.08446  0.51534  0.20913  1.0000
  C   C2385     1.0  0.35654  0.97007  0.28707  1.0000
  H   H1924     1.0  0.32681  0.59920  0.19801  1.0000
  H   H1925     1.0  0.39980  0.65603  0.33138  1.0000
  C   C2386     1.0  0.43813  0.62522  0.33520  1.0000
  C   C2387     1.0  0.34583  0.83565  0.27478  1.0000
  C   C2388     1.0  0.35930  0.80426  0.19375  1.0000
  H   H1926     1.0  0.35274  0.75489  0.18453  1.0000
  H   H1927     1.0  0.48278  0.70255  0.27738  1.0000
  C   C2389     1.0  0.41178  0.73999  0.37273  1.0000
  H   H1928     1.0  0.44517  0.83114  0.25218  1.0000
  H   H1929     1.0  0.99477  0.90279  0.32890  1.0000
  C   C2390     1.0  0.46240  0.74650  0.35753  1.0000
  C   C2391     1.0  0.04006  0.94821  0.35409  1.0000
  H   H1930     1.0  0.38392  0.67553  0.21956  1.0000
  H   H1931     1.0  0.46599  0.80627  0.30463  1.0000
  H   H1932     1.0  0.15468  0.49569  0.28914  1.0000
  C   C2392     1.0  0.15453  0.56162  0.20446  1.0000
  H   H1933     1.0  0.99184  0.90363  0.20981  1.0000
  H   H1934     1.0  0.28015  0.55814  0.37102  1.0000
  H   H1935     1.0  0.40424  0.74247  0.31794  1.0000
  H   H1936     1.0  0.10865  0.63645  0.37299  1.0000
  C   C2393     1.0  0.22118  0.62778  0.24411  1.0000
  C   C2394     1.0  0.10328  0.54087  0.18638  1.0000
  H   H1937     1.0  0.21461  0.65162  0.17925  1.0000
  H   H1938     1.0  0.36529  0.96445  0.29642  1.0000
  H   H1939     1.0  0.41736  0.61307  0.33311  1.0000
  H   H1940     1.0  0.32405  0.85676  0.28220  1.0000
  H   H1941     1.0  0.48605  0.87626  0.33364  1.0000
  C   C2395     1.0  0.48773  0.84816  0.30713  1.0000
  C   C2396     1.0  0.33114  0.88600  0.21508  1.0000
  C   C2397     1.0  0.44122  0.80609  0.34647  1.0000
  C   C2398     1.0  0.39969  0.68250  0.33379  1.0000
  C   C2399     1.0  0.23198  0.57007  0.33501  1.0000
  H   H1942     1.0  0.27702  0.53493  0.31775  1.0000
  H   H1943     1.0  0.37254  0.62005  0.37363  1.0000
  H   H1944     1.0  0.39822  0.70439  0.25084  1.0000
  H   H1945     1.0  0.46613  0.86858  0.36141  1.0000
  P   P77       1.0  0.38813  0.74236  0.19397  1.0000
  C   C2400     1.0  0.99670  0.92377  0.36600  1.0000
  C   C2401     1.0  0.19722  0.51546  0.29657  1.0000
  H   H1946     1.0  0.14961  0.50875  0.32113  1.0000
  C   C2402     1.0  0.30366  0.90821  0.21991  1.0000
  C   C2403     1.0  0.35237  0.95910  0.27807  1.0000
  H   H1947     1.0  0.36510  0.83059  0.23238  1.0000
  H   H1948     1.0  0.16433  0.56259  0.21126  1.0000
  H   H1949     1.0  0.43939  0.81232  0.35760  1.0000
  C   C2404     1.0  0.43170  0.71982  0.21701  1.0000
  H   H1950     1.0  0.41213  0.77191  0.30830  1.0000
  H   H1951     1.0  0.34680  0.82931  0.28842  1.0000
  C   C2405     1.0  0.34328  0.85217  0.23943  1.0000
  C   C2406     1.0  0.44820  0.66495  0.32122  1.0000
  C   C2407     1.0  0.38263  0.61999  0.24721  1.0000
  C   C2408     1.0  0.34330  0.69767  0.21131  1.0000
  C   C2409     1.0  0.06602  0.48680  0.37616  1.0000
  C   C2410     1.0  0.32326  0.86160  0.19206  1.0000
  C   C2411     1.0  0.35834  0.64546  0.24194  1.0000
  C   C2412     1.0  0.37577  0.63834  0.24495  1.0000
  P   P78       1.0  0.34895  0.66916  0.23973  1.0000
  H   H1952     1.0  0.48651  0.64432  0.36055  1.0000
  C   C2413     1.0  0.32774  0.67339  0.25520  1.0000
  C   C2414     1.0  0.31753  0.69081  0.25445  1.0000
  C   C2415     1.0  0.30117  0.69421  0.26630  1.0000
  C   C2416     1.0  0.29483  0.68026  0.27903  1.0000
  C   C2417     1.0  0.30489  0.66293  0.27997  1.0000
  C   C2418     1.0  0.32130  0.65953  0.26825  1.0000
  C   C2419     1.0  0.33196  0.91738  0.20869  1.0000
  H   H1953     1.0  0.38486  0.59705  0.35527  1.0000
  C   C2420     1.0  0.08926  0.54555  0.20041  1.0000
  C   C2421     1.0  0.36444  0.68039  0.24344  1.0000
  C   C2422     1.0  0.31344  0.85390  0.18497  1.0000
  H   H1954     1.0  0.47016  0.70492  0.34931  1.0000
  C   C2423     1.0  0.45672  0.74270  0.26421  1.0000
  C   C2424     1.0  0.37262  0.69695  0.26085  1.0000
  C   C2425     1.0  0.36055  0.68816  0.25838  1.0000
  H   H1955     1.0  0.48104  0.76950  0.30713  1.0000
  H   H1956     1.0  0.48311  0.88152  0.25513  1.0000
  H   H1957     1.0  0.38038  0.81038  0.20224  1.0000
  C   C2426     1.0  0.08981  0.50292  0.36113  1.0000
  H   H1958     1.0  0.32229  0.70190  0.24501  1.0000
  H   H1959     1.0  0.29355  0.70772  0.26584  1.0000
  H   H1960     1.0  0.28225  0.68291  0.28835  1.0000
  H   H1961     1.0  0.30014  0.65205  0.28994  1.0000
  H   H1962     1.0  0.32884  0.64604  0.26966  1.0000
  C   C2427     1.0  0.40684  0.82137  0.26364  1.0000
  H   H1963     1.0  0.44918  0.73421  0.34495  1.0000
  H   H1964     1.0  0.32918  0.82907  0.22896  1.0000
  C   C2428     1.0  0.21749  0.48808  0.22800  1.0000
  C   C2429     1.0  0.45687  0.96312  0.29816  1.0000
  H   H1965     1.0  0.36946  0.70310  0.27229  1.0000
  H   H1966     1.0  0.34832  0.68739  0.26822  1.0000
  C   C2430     1.0  0.12284  0.63082  0.37098  1.0000
  H   H1967     1.0  0.43887  0.72713  0.23809  1.0000
  H   H1968     1.0  0.37148  0.57061  0.36198  1.0000
  C   C2431     1.0  0.21126  0.62232  0.23505  1.0000
  H   H1969     1.0  0.40887  0.68548  0.32122  1.0000
  H   H1970     1.0  0.41233  0.75176  0.24151  1.0000
  C   C2432     1.0  0.35734  0.82832  0.26072  1.0000
  H   H1971     1.0  0.32663  0.87428  0.18493  1.0000
  C   C2433     1.0  0.25434  0.56841  0.30779  1.0000
  C   C2434     1.0  0.25002  0.56670  0.32635  1.0000
  P   P79       1.0  0.26733  0.56301  0.33857  1.0000
  C   C2435     1.0  0.28847  0.55118  0.32804  1.0000
  C   C2436     1.0  0.26949  0.58502  0.33856  1.0000
  C   C2437     1.0  0.27800  0.59500  0.32285  1.0000
  C   C2438     1.0  0.27933  0.61233  0.32225  1.0000
  C   C2439     1.0  0.27218  0.61982  0.33734  1.0000
  C   C2440     1.0  0.26335  0.61010  0.35290  1.0000
  C   C2441     1.0  0.26190  0.59277  0.35353  1.0000
  C   C2442     1.0  0.30446  0.55455  0.32964  1.0000
  C   C2443     1.0  0.32089  0.54539  0.32157  1.0000
  C   C2444     1.0  0.32148  0.53271  0.31198  1.0000
  C   C2445     1.0  0.30562  0.52899  0.31067  1.0000
  C   C2446     1.0  0.28916  0.53805  0.31883  1.0000
  C   C2447     1.0  0.26214  0.54941  0.36048  1.0000
  C   C2448     1.0  0.25065  0.53755  0.36404  1.0000
  H   H1972     1.0  0.43161  0.97319  0.24079  1.0000
  P   P80       1.0  0.44630  0.78320  0.29725  1.0000
  C   C2449     1.0  0.14179  0.57663  0.19923  1.0000
  C   C2450     1.0  0.48174  0.66564  0.29894  1.0000
  H   H1973     1.0  0.26809  0.56683  0.30069  1.0000
  H   H1974     1.0  0.28368  0.58939  0.31103  1.0000
  H   H1975     1.0  0.28614  0.61981  0.31012  1.0000
  H   H1976     1.0  0.27354  0.63310  0.33703  1.0000
  H   H1977     1.0  0.46745  0.90881  0.33866  1.0000
  H   H1978     1.0  0.25491  0.58557  0.36571  1.0000
  H   H1979     1.0  0.30433  0.56423  0.33714  1.0000
  H   H1980     1.0  0.33315  0.54820  0.32279  1.0000
  H   H1981     1.0  0.33422  0.52580  0.30554  1.0000
  H   H1982     1.0  0.24454  0.53645  0.35376  1.0000
  S   S334      1.0  0.38584  0.96835  0.21931  1.0000
  C   C2451     1.0  0.14638  0.49170  0.26708  1.0000
  C   C2452     1.0  0.41811  0.74339  0.31488  1.0000
  C   C2453     1.0  0.41431  0.80419  0.26060  1.0000
  H   H1983     1.0  0.16742  0.54422  0.25113  1.0000
  C   C2454     1.0  0.45454  0.80959  0.33145  1.0000
  C   C2455     1.0  0.37366  0.59555  0.36636  1.0000
  C   C2456     1.0  0.42266  0.76009  0.30924  1.0000
  H   H1984     1.0  0.30176  0.83132  0.18822  1.0000
  C   C2457     1.0  0.41095  0.82684  0.27720  1.0000
  C   C2458     1.0  0.33364  0.74879  0.20854  1.0000
  C   C2459     1.0  0.48329  0.77400  0.29281  1.0000
  C   C2460     1.0  0.46005  0.73236  0.35158  1.0000
  H   H1985     1.0  0.08571  0.55900  0.20270  1.0000
  S   S335      1.0  0.24029  0.58280  0.19424  1.0000
  H   H1986     1.0  0.19888  0.61812  0.24215  1.0000
  C   C2461     1.0  0.15190  0.62661  0.35136  1.0000
  C   C2462     1.0  0.31448  0.82884  0.20989  1.0000
  S   S336      1.0  0.45231  0.83639  0.36935  1.0000
  C   C2463     1.0  0.45615  0.80266  0.31648  1.0000
  H   H1987     1.0  0.99138  0.89946  0.26480  1.0000
  H   H1988     1.0  0.21031  0.61677  0.21016  1.0000
  C   C2464     1.0  0.48326  0.59390  0.29723  1.0000
  C   C2465     1.0  0.46888  0.93147  0.30141  1.0000
  H   H1989     1.0  0.44402  0.94296  0.35241  1.0000
  C   C2466     1.0  0.47193  0.73015  0.26808  1.0000
  H   H1990     1.0  0.28423  0.57055  0.21741  1.0000
  C   C2467     1.0  0.13365  0.63409  0.35401  1.0000
  H   H1991     1.0  0.30468  0.88017  0.22491  1.0000
  C   C2468     1.0  0.33058  0.66666  0.36665  1.0000
  H   H1992     1.0  0.37352  0.73120  0.23237  1.0000
  H   H1993     1.0  0.39777  0.83043  0.25558  1.0000
  H   H1994     1.0  0.36721  0.81620  0.26343  1.0000
  C   C2469     1.0  0.35610  0.83654  0.24311  1.0000
  C   C2470     1.0  0.48441  0.84061  0.26685  1.0000
  P   P81       1.0  0.44375  0.63532  0.31164  1.0000
  H   H1995     1.0  0.32931  0.66950  0.35288  1.0000
  H   H1996     1.0  0.37728  0.59431  0.24909  1.0000
  C   C2471     1.0  0.18919  0.59082  0.18871  1.0000
  P   P82       1.0  0.42066  0.97847  0.30386  1.0000
  H   H1997     1.0  0.39724  0.95520  0.30527  1.0000
  C   C2472     1.0  0.21768  0.62156  0.21706  1.0000
  C   C2473     1.0  0.35262  0.72469  0.36029  1.0000
  C   C2474     1.0  0.34751  0.74278  0.36121  1.0000
  C   C2475     1.0  0.33554  0.75443  0.35111  1.0000
  C   C2476     1.0  0.32824  0.74806  0.34035  1.0000
  C   C2477     1.0  0.33281  0.73000  0.33978  1.0000
  C   C2478     1.0  0.34501  0.71835  0.34961  1.0000
  C   C2479     1.0  0.38062  0.68150  0.23112  1.0000
  H   H1998     1.0  0.34300  0.73124  0.24978  1.0000
  H   H1999     1.0  0.17394  0.57291  0.23289  1.0000
  C   C2480     1.0  0.45784  0.67724  0.32154  1.0000
  C   C2481     1.0  0.39280  0.69002  0.23382  1.0000
  H   H2000     1.0  0.42130  0.56485  0.37582  1.0000
  H   H2001     1.0  0.38374  0.73948  0.34710  1.0000
  H   H2002     1.0  0.28926  0.91155  0.22388  1.0000
  C   C2482     1.0  0.23403  0.62618  0.20815  1.0000
  H   H2003     1.0  0.39635  0.70827  0.33924  1.0000
  H   H2004     1.0  0.07913  0.94153  0.36747  1.0000
  H   H2005     1.0  0.33233  0.76852  0.35121  1.0000
  H   H2006     1.0  0.31926  0.75714  0.33221  1.0000
  H   H2007     1.0  0.32726  0.72515  0.33127  1.0000
  H   H2008     1.0  0.34873  0.70455  0.34844  1.0000
  H   H2009     1.0  0.42515  0.81970  0.29837  1.0000
  H   H2010     1.0  0.31728  0.74254  0.23470  1.0000
  H   H2011     1.0  0.40566  0.86630  0.20351  1.0000
  C   C2483     1.0  0.40417  0.73732  0.20808  1.0000
  C   C2484     1.0  0.39555  0.86229  0.19936  1.0000
  Fe  Fe166     1.0  0.14520  0.53758  0.36881  1.0000
  H   H2012     1.0  0.29335  0.61482  0.37313  1.0000
  H   H2013     1.0  0.27602  0.59148  0.17811  1.0000
  C   C2485     1.0  0.99333  0.90208  0.23693  1.0000
  C   C2486     1.0  0.14884  0.50214  0.27762  1.0000
  C   C2487     1.0  0.47179  0.91019  0.34998  1.0000
  C   C2488     1.0  0.09459  0.49338  0.34752  1.0000
  C   C2489     1.0  0.40285  0.74495  0.35863  1.0000
  H   H2014     1.0  0.45335  0.75927  0.35528  1.0000
  H   H2015     1.0  0.46360  0.85198  0.28706  1.0000
  H   H2016     1.0  0.35319  0.74808  0.36924  1.0000
  C   C2490     1.0  0.18136  0.55819  0.37237  1.0000
  H   H2017     1.0  0.45905  0.97660  0.29367  1.0000
  C   C2491     1.0  0.39210  0.96123  0.31680  1.0000
  C   C2492     1.0  0.46681  0.84495  0.27629  1.0000
  H   H2018     1.0  0.01955  0.54518  0.37172  1.0000
  C   C2493     1.0  0.01498  0.88876  0.36516  1.0000
  H   H2019     1.0  0.20575  0.49744  0.31962  1.0000
  C   C2494     1.0  0.42027  0.95553  0.36864  1.0000
  C   C2495     1.0  0.47531  0.85779  0.36772  1.0000
  C   C2496     1.0  0.33882  0.69535  0.18303  1.0000
  C   C2497     1.0  0.19453  0.50426  0.31333  1.0000
  C   C2498     1.0  0.47362  0.82919  0.24689  1.0000
  C   C2499     1.0  0.38714  0.84902  0.17938  1.0000
  C   C2500     1.0  0.48893  0.77776  0.35855  1.0000
  C   C2501     1.0  0.38166  0.66291  0.35492  1.0000
  H   H2020     1.0  0.41806  0.53555  0.37342  1.0000
  H   H2021     1.0  0.17746  0.55217  0.36356  1.0000
  C   C2502     1.0  0.26400  0.64970  0.18387  1.0000
  H   H2022     1.0  0.14351  0.53152  0.18791  1.0000
  C   C2503     1.0  0.32530  0.68035  0.37612  1.0000
  C   C2504     1.0  0.05841  0.94529  0.35306  1.0000
  C   C2505     1.0  0.39435  0.94253  0.37394  1.0000
  C   C2506     1.0  0.15936  0.61588  0.36567  1.0000
  Fe  Fe167     1.0  0.14638  0.49788  0.37595  1.0000
  C   C2507     1.0  0.42945  0.61017  0.37184  1.0000
  C   C2508     1.0  0.33689  0.64919  0.37504  1.0000
  P   P83       1.0  0.47791  0.76193  0.37582  1.0000
  C   C2509     1.0  0.02813  0.94940  0.37036  1.0000
  H   H2023     1.0  0.34851  0.52604  0.36895  1.0000
  H   H2024     1.0  0.25780  0.61589  0.36462  1.0000
  C   C2510     1.0  0.07543  0.49988  0.37524  1.0000
  C   C2511     1.0  0.48402  0.85500  0.32253  1.0000
  H   H2025     1.0  0.48449  0.83551  0.30801  1.0000
  C   C2512     1.0  0.06490  0.94353  0.36834  1.0000
  C   C2513     1.0  0.29780  0.60051  0.37568  1.0000
  H   H2026     1.0  0.20722  0.54076  0.37150  1.0000
  C   C2514     1.0  0.48592  0.71356  0.36253  1.0000
  C   C2515     1.0  0.38478  0.71042  0.18807  1.0000
  H   H2027     1.0  0.38215  0.68566  0.18367  1.0000
  P   P84       1.0  0.36936  0.70988  0.37203  1.0000
  C   C2516     1.0  0.38876  0.69684  0.17856  1.0000
  Fe  Fe168     1.0  0.05673  0.55881  0.53646  1.0000
  S   S337      1.0  0.06999  0.56661  0.50778  1.0000
  S   S338      1.0  0.02693  0.56012  0.54370  1.0000
  Fe  Fe169     1.0  0.08980  0.55864  0.55013  1.0000
  S   S339      1.0  0.10552  0.56650  0.52256  1.0000
  H   H2028     1.0  0.18969  0.64454  0.39920  1.0000
  Fe  Fe170     1.0  0.08036  0.58559  0.51707  1.0000
  S   S340      1.0  0.07768  0.61464  0.50430  1.0000
  Fe  Fe171     1.0  0.09386  0.54669  0.51573  1.0000
  S   S341      1.0  0.11217  0.52718  0.49936  1.0000
  S   S342      1.0  0.06543  0.57932  0.54504  1.0000
  S   S343      1.0  0.07982  0.53725  0.54395  1.0000
  S   S344      1.0  0.19702  0.63816  0.54412  1.0000
  Fe  Fe172     1.0  0.38389  0.53107  0.52193  1.0000
  S   S345      1.0  0.40334  0.54748  0.50411  1.0000
  S   S346      1.0  0.39323  0.50855  0.54354  1.0000
  Fe  Fe173     1.0  0.35244  0.55590  0.50732  1.0000
  S   S347      1.0  0.36922  0.57437  0.48856  1.0000
  S   S348      1.0  0.32296  0.56448  0.50898  1.0000
  Fe  Fe174     1.0  0.38848  0.54942  0.48292  1.0000
  S   S349      1.0  0.39978  0.54500  0.45492  1.0000
  Fe  Fe175     1.0  0.38214  0.57081  0.51167  1.0000
  S   S350      1.0  0.38862  0.59425  0.51787  1.0000
  S   S351      1.0  0.37064  0.53095  0.50017  1.0000
  S   S352      1.0  0.36378  0.55433  0.53088  1.0000
  C   C2517     1.0  0.45335  0.49713  0.42688  1.0000
  Fe  Fe176     1.0  0.12559  0.51896  0.40431  1.0000
  S   S353      1.0  0.09995  0.52406  0.42454  1.0000
  C   C2518     1.0  0.25818  0.55289  0.52800  1.0000
  H   H2029     1.0  0.14816  0.56276  0.41414  1.0000
  C   C2519     1.0  0.99631  0.75726  0.55649  1.0000
  C   C2520     1.0  0.47069  0.85381  0.44125  1.0000
  H   H2030     1.0  0.24377  0.57327  0.51021  1.0000
  Fe  Fe177     1.0  0.01954  0.71198  0.55983  1.0000
  S   S354      1.0  0.01112  0.73175  0.53604  1.0000
  H   H2031     1.0  0.32423  0.57499  0.54475  1.0000
  H   H2032     1.0  0.06923  0.50375  0.46372  1.0000
  S   S355      1.0  0.12368  0.85452  0.54078  1.0000
  C   C2521     1.0  0.39633  0.49901  0.45621  1.0000
  Fe  Fe178     1.0  0.25554  0.58325  0.42531  1.0000
  S   S356      1.0  0.25205  0.55494  0.43352  1.0000
  H   H2033     1.0  0.28602  0.52316  0.51568  1.0000
  Fe  Fe179     1.0  0.24173  0.59090  0.46261  1.0000
  S   S357      1.0  0.23668  0.56338  0.47455  1.0000
  S   S358      1.0  0.24204  0.61457  0.47305  1.0000
  Fe  Fe180     1.0  0.26309  0.55412  0.45725  1.0000
  S   S359      1.0  0.28496  0.53243  0.46739  1.0000
  Fe  Fe181     1.0  0.22583  0.56615  0.45003  1.0000
  S   S360      1.0  0.19888  0.56068  0.45094  1.0000
  S   S361      1.0  0.26887  0.58136  0.44725  1.0000
  S   S362      1.0  0.22860  0.59463  0.43978  1.0000
  C   C2522     1.0  0.19338  0.52266  0.41857  1.0000
  C   C2523     1.0  0.17833  0.53390  0.42639  1.0000
  C   C2524     1.0  0.18018  0.54533  0.43643  1.0000
  C   C2525     1.0  0.19709  0.54579  0.43858  1.0000
  C   C2526     1.0  0.21211  0.53436  0.43098  1.0000
  C   C2527     1.0  0.21020  0.52268  0.42124  1.0000
  H   H2034     1.0  0.16526  0.53358  0.42494  1.0000
  H   H2035     1.0  0.16846  0.55384  0.44251  1.0000
  H   H2036     1.0  0.22515  0.53432  0.43282  1.0000
  C   C2528     1.0  0.45102  0.91679  0.41583  1.0000
  C   C2529     1.0  0.41730  0.55514  0.44150  1.0000
  C   C2530     1.0  0.42575  0.55021  0.42517  1.0000
  C   C2531     1.0  0.43927  0.55853  0.41370  1.0000
  C   C2532     1.0  0.44456  0.57173  0.41859  1.0000
  C   C2533     1.0  0.43619  0.57659  0.43503  1.0000
  C   C2534     1.0  0.42264  0.56823  0.44654  1.0000
  H   H2037     1.0  0.42166  0.54006  0.42123  1.0000
  C   C2535     1.0  0.99143  0.82666  0.39431  1.0000
  H   H2038     1.0  0.44029  0.58676  0.43890  1.0000
  H   H2039     1.0  0.41619  0.57205  0.45918  1.0000
  C   C2536     1.0  0.38187  0.59867  0.53963  1.0000
  C   C2537     1.0  0.37124  0.58885  0.55370  1.0000
  C   C2538     1.0  0.99323  0.53054  0.54195  1.0000
  H   H2040     1.0  0.38820  0.48602  0.48352  1.0000
  C   C2539     1.0  0.38286  0.61668  0.55974  1.0000
  C   C2540     1.0  0.38746  0.61268  0.54275  1.0000
  H   H2041     1.0  0.36666  0.57815  0.55142  1.0000
  H   H2042     1.0  0.38746  0.62745  0.56195  1.0000
  H   H2043     1.0  0.39553  0.62044  0.53198  1.0000
  C   C2541     1.0  0.31338  0.55539  0.49669  1.0000
  C   C2542     1.0  0.32122  0.53889  0.49190  1.0000
  C   C2543     1.0  0.31241  0.53169  0.48303  1.0000
  C   C2544     1.0  0.29591  0.54104  0.47884  1.0000
  C   C2545     1.0  0.28813  0.55738  0.48382  1.0000
  C   C2546     1.0  0.29699  0.56464  0.49242  1.0000
  H   H2044     1.0  0.33383  0.53158  0.49529  1.0000
  H   H2045     1.0  0.31826  0.51887  0.47949  1.0000
  H   H2046     1.0  0.27516  0.56441  0.48126  1.0000
  H   H2047     1.0  0.29112  0.57753  0.49571  1.0000
  C   C2547     1.0  0.09780  0.96875  0.53367  1.0000
  H   H2048     1.0  0.42659  0.60387  0.38583  1.0000
  H   H2049     1.0  0.04504  0.87745  0.50403  1.0000
  C   C2548     1.0  0.45198  0.49516  0.46436  1.0000
  H   H2050     1.0  0.04541  0.54793  0.48941  1.0000
  C   C2549     1.0  0.13946  0.57177  0.42231  1.0000
  H   H2051     1.0  0.46233  0.51951  0.40778  1.0000
  H   H2052     1.0  0.19040  0.97410  0.53791  1.0000
  C   C2550     1.0  0.20967  0.63065  0.52492  1.0000
  C   C2551     1.0  0.21939  0.64204  0.51190  1.0000
  C   C2552     1.0  0.22927  0.63673  0.49614  1.0000
  C   C2553     1.0  0.22927  0.62015  0.49316  1.0000
  C   C2554     1.0  0.21951  0.60869  0.50616  1.0000
  C   C2555     1.0  0.20990  0.61386  0.52223  1.0000
  H   H2053     1.0  0.21919  0.65502  0.51398  1.0000
  H   H2054     1.0  0.23683  0.64559  0.48613  1.0000
  H   H2055     1.0  0.21941  0.59589  0.50391  1.0000
  H   H2056     1.0  0.20242  0.60502  0.53236  1.0000
  C   C2556     1.0  0.10879  0.52748  0.47819  1.0000
  C   C2557     1.0  0.09280  0.53646  0.47274  1.0000
  C   C2558     1.0  0.09018  0.53548  0.45618  1.0000
  C   C2559     1.0  0.10360  0.52572  0.44495  1.0000
  C   C2560     1.0  0.11974  0.51711  0.45022  1.0000
  C   C2561     1.0  0.12226  0.51790  0.46685  1.0000
  H   H2057     1.0  0.08227  0.54366  0.48149  1.0000
  H   H2058     1.0  0.07771  0.54218  0.45215  1.0000
  H   H2059     1.0  0.13021  0.50963  0.44160  1.0000
  H   H2060     1.0  0.13468  0.51097  0.47096  1.0000
  C   C2562     1.0  0.44535  0.48214  0.49602  1.0000
  C   C2563     1.0  0.07287  0.83384  0.55185  1.0000
  H   H2061     1.0  0.13212  0.54992  0.55152  1.0000
  C   C2564     1.0  0.07403  0.62626  0.52135  1.0000
  C   C2565     1.0  0.06264  0.64306  0.52082  1.0000
  C   C2566     1.0  0.06090  0.65273  0.53394  1.0000
  C   C2567     1.0  0.07091  0.64572  0.54726  1.0000
  C   C2568     1.0  0.08207  0.62886  0.54783  1.0000
  C   C2569     1.0  0.08331  0.61899  0.53515  1.0000
  H   H2062     1.0  0.05539  0.64867  0.51015  1.0000
  H   H2063     1.0  0.05240  0.66584  0.53336  1.0000
  H   H2064     1.0  0.08002  0.48157  0.40733  1.0000
  H   H2065     1.0  0.09203  0.60601  0.53557  1.0000
  H   H2066     1.0  0.30400  0.56983  0.42822  1.0000
  H   H2067     1.0  0.13273  0.92432  0.50987  1.0000
  C   C2570     1.0  0.00082  0.54478  0.54148  1.0000
  C   C2571     1.0  0.01829  0.54175  0.54397  1.0000
  C   C2572     1.0  0.02801  0.52426  0.54750  1.0000
  C   C2573     1.0  0.02016  0.50989  0.54858  1.0000
  H   H2068     1.0  0.30251  0.61809  0.46403  1.0000
  S   S363      1.0  0.01190  0.87461  0.49752  1.0000
  H   H2069     1.0  0.33674  0.72367  0.39634  1.0000
  P   P85       1.0  0.03240  0.52222  0.47783  1.0000
  Fe  Fe182     1.0  0.19452  0.61665  0.56865  1.0000
  H   H2070     1.0  0.38359  0.58608  0.44500  1.0000
  C   C2574     1.0  0.01619  0.86546  0.41041  1.0000
  H   H2071     1.0  0.02239  0.65553  0.53134  1.0000
  H   H2072     1.0  0.47954  0.81427  0.38793  1.0000
  C   C2575     1.0  0.12733  0.96686  0.53839  1.0000
  H   H2073     1.0  0.44648  0.87222  0.43636  1.0000
  C   C2576     1.0  0.20962  0.54624  0.51095  1.0000
  C   C2577     1.0  0.21377  0.54548  0.52721  1.0000
  C   C2578     1.0  0.20464  0.55850  0.53711  1.0000
  C   C2579     1.0  0.19095  0.57196  0.53106  1.0000
  C   C2580     1.0  0.18650  0.57267  0.51483  1.0000
  C   C2581     1.0  0.19625  0.55991  0.50463  1.0000
  P   P86       1.0  0.16752  0.58856  0.50764  1.0000
  C   C2582     1.0  0.17369  0.60759  0.49135  1.0000
  C   C2583     1.0  0.15714  0.57647  0.49820  1.0000
  C   C2584     1.0  0.15488  0.58227  0.48050  1.0000
  C   C2585     1.0  0.14873  0.57175  0.47272  1.0000
  C   C2586     1.0  0.14473  0.55546  0.48248  1.0000
  C   C2587     1.0  0.14698  0.54957  0.50007  1.0000
  C   C2588     1.0  0.15325  0.55997  0.50789  1.0000
  C   C2589     1.0  0.16061  0.62317  0.48834  1.0000
  C   C2590     1.0  0.16507  0.63817  0.47591  1.0000
  C   C2591     1.0  0.18261  0.63771  0.46639  1.0000
  C   C2592     1.0  0.19563  0.62221  0.46921  1.0000
  C   C2593     1.0  0.19119  0.60711  0.48153  1.0000
  C   C2594     1.0  0.15261  0.59715  0.52633  1.0000
  C   C2595     1.0  0.15728  0.60967  0.53302  1.0000
  C   C2596     1.0  0.14607  0.61629  0.54762  1.0000
  C   C2597     1.0  0.13013  0.61050  0.55565  1.0000
  C   C2598     1.0  0.12522  0.59839  0.54883  1.0000
  C   C2599     1.0  0.13630  0.59186  0.53411  1.0000
  H   H2074     1.0  0.21668  0.53616  0.50322  1.0000
  H   H2075     1.0  0.20768  0.55786  0.54985  1.0000
  H   H2076     1.0  0.18353  0.58125  0.53951  1.0000
  H   H2077     1.0  0.19318  0.56017  0.49200  1.0000
  H   H2078     1.0  0.15836  0.59456  0.47244  1.0000
  H   H2079     1.0  0.14753  0.57599  0.45896  1.0000
  H   H2080     1.0  0.14005  0.54726  0.47639  1.0000
  H   H2081     1.0  0.14385  0.53690  0.50760  1.0000
  H   H2082     1.0  0.15532  0.55502  0.52142  1.0000
  H   H2083     1.0  0.14695  0.62368  0.49560  1.0000
  H   H2084     1.0  0.15492  0.65017  0.47380  1.0000
  H   H2085     1.0  0.18615  0.64935  0.45684  1.0000
  H   H2086     1.0  0.20922  0.62190  0.46182  1.0000
  H   H2087     1.0  0.20142  0.59515  0.48335  1.0000
  H   H2088     1.0  0.16974  0.61410  0.52711  1.0000
  H   H2089     1.0  0.14980  0.62585  0.55276  1.0000
  C   C2600     1.0  0.20307  0.55951  0.38825  1.0000
  H   H2090     1.0  0.11293  0.59374  0.55515  1.0000
  H   H2091     1.0  0.13218  0.58248  0.52916  1.0000
  H   H2092     1.0  0.06747  0.92987  0.46283  1.0000
  C   C2601     1.0  0.00365  0.57153  0.50221  1.0000
  H   H2093     1.0  0.99307  0.55821  0.53915  1.0000
  C   C2602     1.0  0.44286  0.94563  0.43293  1.0000
  H   H2094     1.0  0.33170  0.62027  0.44388  1.0000
  C   C2603     1.0  0.03050  0.79124  0.52655  1.0000
  C   C2604     1.0  0.03559  0.77274  0.52888  1.0000
  C   C2605     1.0  0.04178  0.76273  0.54414  1.0000
  P   P87       1.0  0.04745  0.48286  0.39454  1.0000
  C   C2606     1.0  0.05923  0.97617  0.49012  1.0000
  C   C2607     1.0  0.03125  0.79975  0.53965  1.0000
  C   C2608     1.0  0.06001  0.97874  0.50670  1.0000
  H   H2095     1.0  0.30879  0.53345  0.53006  1.0000
  C   C2609     1.0  0.27257  0.51084  0.54159  1.0000
  C   C2610     1.0  0.45416  0.50976  0.41083  1.0000
  H   H2096     1.0  0.48514  0.73670  0.43805  1.0000
  C   C2611     1.0  0.41979  0.90461  0.40434  1.0000
  H   H2097     1.0  0.02572  0.79896  0.51469  1.0000
  H   H2098     1.0  0.03454  0.76613  0.51894  1.0000
  H   H2099     1.0  0.34698  0.50247  0.56161  1.0000
  C   C2612     1.0  0.38858  0.62657  0.41894  1.0000
  H   H2100     1.0  0.02722  0.81412  0.53764  1.0000
  H   H2101     1.0  0.40073  0.51418  0.42946  1.0000
  C   C2613     1.0  0.05464  0.53876  0.41763  1.0000
  H   H2102     1.0  0.99119  0.59533  0.53998  1.0000
  C   C2614     1.0  0.33297  0.65922  0.40242  1.0000
  H   H2103     1.0  0.34651  0.50287  0.43361  1.0000
  C   C2615     1.0  0.32646  0.67662  0.39401  1.0000
  S   S364      1.0  0.08090  0.94075  0.54259  1.0000
  C   C2616     1.0  0.28852  0.63617  0.57523  1.0000
  C   C2617     1.0  0.44052  0.94842  0.41551  1.0000
  C   C2618     1.0  0.44815  0.97781  0.49220  1.0000
  C   C2619     1.0  0.26234  0.48442  0.54208  1.0000
  C   C2620     1.0  0.43461  0.79816  0.39497  1.0000
  H   H2104     1.0  0.09545  0.49103  0.47727  1.0000
  C   C2621     1.0  0.43623  0.89245  0.40313  1.0000
  C   C2622     1.0  0.04476  0.51656  0.44309  1.0000
  C   C2623     1.0  0.03437  0.97748  0.43618  1.0000
  H   H2105     1.0  0.09680  0.96999  0.48755  1.0000
  C   C2624     1.0  0.06777  0.50351  0.47768  1.0000
  S   S365      1.0  0.46169  0.58217  0.40448  1.0000
  C   C2625     1.0  0.32929  0.51867  0.54441  1.0000
  C   C2626     1.0  0.32307  0.61949  0.42033  1.0000
  H   H2106     1.0  0.46768  0.96235  0.47490  1.0000
  H   H2107     1.0  0.40793  0.79457  0.40765  1.0000
  C   C2627     1.0  0.39540  0.71635  0.38636  1.0000
  C   C2628     1.0  0.03996  0.52907  0.45406  1.0000
  C   C2629     1.0  0.04229  0.54656  0.44654  1.0000
  C   C2630     1.0  0.02595  0.96716  0.41382  1.0000
  C   C2631     1.0  0.02102  0.50649  0.41307  1.0000
  H   H2108     1.0  0.28588  0.56312  0.40315  1.0000
  C   C2632     1.0  0.99552  0.65225  0.53384  1.0000
  C   C2633     1.0  0.08278  0.49617  0.48535  1.0000
  H   H2109     1.0  0.00356  0.83551  0.41064  1.0000
  H   H2110     1.0  0.99269  0.87186  0.53428  1.0000
  H   H2111     1.0  0.08608  0.97653  0.52876  1.0000
  S   S366      1.0  0.14477  0.53716  0.39723  1.0000
  C   C2634     1.0  0.43404  0.55689  0.52584  1.0000
  C   C2635     1.0  0.39862  0.56759  0.39770  1.0000
  C   C2636     1.0  0.29755  0.52005  0.55629  1.0000
  H   H2112     1.0  0.36621  0.66626  0.42944  1.0000
  C   C2637     1.0  0.02406  0.60471  0.56164  1.0000
  C   C2638     1.0  0.01829  0.87440  0.51731  1.0000
  C   C2639     1.0  0.38285  0.54316  0.40782  1.0000
  S   S367      1.0  0.14541  0.97661  0.53646  1.0000
  H   H2113     1.0  0.00547  0.64755  0.56611  1.0000
  C   C2640     1.0  0.33976  0.50680  0.39215  1.0000
  H   H2114     1.0  0.17544  0.88666  0.54085  1.0000
  H   H2115     1.0  0.33328  0.65644  0.41644  1.0000
  S   S368      1.0  0.47790  0.54261  0.37789  1.0000
  H   H2116     1.0  0.99166  0.93075  0.41013  1.0000
  C   C2641     1.0  0.30843  0.61892  0.41376  1.0000
  C   C2642     1.0  0.41052  0.55890  0.38472  1.0000
  S   S369      1.0  0.99382  0.82139  0.45844  1.0000
  H   H2117     1.0  0.09127  0.65358  0.49148  1.0000
  H   H2118     1.0  0.44504  0.74832  0.39275  1.0000
  C   C2643     1.0  0.27823  0.56226  0.54043  1.0000
  H   H2119     1.0  0.35698  0.59330  0.43175  1.0000
  C   C2644     1.0  0.34381  0.68841  0.43039  1.0000
  C   C2645     1.0  0.03228  0.50394  0.39664  1.0000
  C   C2646     1.0  0.43319  0.57515  0.51980  1.0000
  S   S370      1.0  0.99261  0.49515  0.54758  1.0000
  H   H2120     1.0  0.39443  0.88012  0.39630  1.0000
  S   S371      1.0  0.10614  0.89349  0.56586  1.0000
  H   H2121     1.0  0.18835  0.94759  0.56497  1.0000
  C   C2647     1.0  0.43101  0.54965  0.54411  1.0000
  C   C2648     1.0  0.27083  0.54870  0.53878  1.0000
  H   H2122     1.0  0.33999  0.52256  0.53358  1.0000
  H   H2123     1.0  0.36299  0.53918  0.38466  1.0000
  C   C2649     1.0  0.25324  0.57028  0.51877  1.0000
  C   C2650     1.0  0.13019  0.60067  0.43026  1.0000
  C   C2651     1.0  0.98975  0.97545  0.39669  1.0000
  H   H2124     1.0  0.99833  0.94008  0.44243  1.0000
  C   C2652     1.0  0.00152  0.48537  0.50340  1.0000
  S   S372      1.0  0.26632  0.59970  0.39932  1.0000
  C   C2653     1.0  0.11539  0.57671  0.44764  1.0000
  H   H2125     1.0  0.37122  0.64291  0.40158  1.0000
  C   C2654     1.0  0.27331  0.57964  0.53107  1.0000
  C   C2655     1.0  0.29364  0.57135  0.39260  1.0000
  H   H2126     1.0  0.44527  0.51969  0.38600  1.0000
  H   H2127     1.0  0.33784  0.68344  0.44413  1.0000
  H   H2128     1.0  0.46179  0.79819  0.38172  1.0000
  C   C2656     1.0  0.33824  0.64537  0.39299  1.0000
  H   H2129     1.0  0.05201  0.56468  0.42280  1.0000
  C   C2657     1.0  0.27723  0.50035  0.51424  1.0000
  S   S373      1.0  0.19177  0.50857  0.40527  1.0000
  C   C2658     1.0  0.00274  0.51303  0.54575  1.0000
  C   C2659     1.0  0.45174  0.79022  0.38703  1.0000
  C   C2660     1.0  0.02836  0.87602  0.54840  1.0000
  H   H2130     1.0  0.32907  0.54911  0.41458  1.0000
  H   H2131     1.0  0.22135  0.64462  0.56414  1.0000
  C   C2661     1.0  0.39218  0.48671  0.54360  1.0000
  P   P88       1.0  0.99759  0.87467  0.39921  1.0000
  H   H2132     1.0  0.43479  0.58087  0.50567  1.0000
  H   H2133     1.0  0.01545  0.91343  0.52227  1.0000
  H   H2134     1.0  0.04488  0.83609  0.55420  1.0000
  H   H2135     1.0  0.07395  0.93196  0.43032  1.0000
  C   C2662     1.0  0.34831  0.55660  0.44510  1.0000
  C   C2663     1.0  0.40816  0.72559  0.38653  1.0000
  H   H2136     1.0  0.45725  0.53029  0.45532  1.0000
  S   S374      1.0  0.99829  0.82995  0.50195  1.0000
  H   H2137     1.0  0.99908  0.61789  0.48310  1.0000
  H   H2138     1.0  0.11252  0.63242  0.50887  1.0000
  C   C2664     1.0  0.33383  0.56841  0.45287  1.0000
  H   H2139     1.0  0.07469  0.78406  0.57426  1.0000
  C   C2665     1.0  0.31784  0.57310  0.44686  1.0000
  H   H2140     1.0  0.04292  0.91449  0.40685  1.0000
  C   C2666     1.0  0.02839  0.96469  0.43128  1.0000
  H   H2141     1.0  0.25206  0.54277  0.52670  1.0000
  C   C2667     1.0  0.31639  0.56626  0.43289  1.0000
  H   H2142     1.0  0.33478  0.57341  0.46400  1.0000
  H   H2143     1.0  0.27656  0.63770  0.57036  1.0000
  C   C2668     1.0  0.17404  0.57959  0.39155  1.0000
  C   C2669     1.0  0.32082  0.61938  0.43851  1.0000
  H   H2144     1.0  0.02459  0.84129  0.45074  1.0000
  C   C2670     1.0  0.45564  0.77234  0.38571  1.0000
  C   C2671     1.0  0.35924  0.70135  0.39481  1.0000
  C   C2672     1.0  0.48296  0.82713  0.38252  1.0000
  C   C2673     1.0  0.19103  0.57322  0.39576  1.0000
  H   H2145     1.0  0.09370  0.49171  0.50870  1.0000
  C   C2674     1.0  0.46810  0.90588  0.38208  1.0000
  H   H2146     1.0  0.00100  0.52489  0.42729  1.0000
  H   H2147     1.0  0.39217  0.90955  0.40264  1.0000
  C   C2675     1.0  0.15538  0.80729  0.57464  1.0000
  C   C2676     1.0  0.01998  0.53437  0.38327  1.0000
  Fe  Fe183     1.0  0.08278  0.91166  0.55549  1.0000
  C   C2677     1.0  0.01308  0.85627  0.42822  1.0000
  H   H2148     1.0  0.28774  0.55948  0.54894  1.0000
  C   C2678     1.0  0.35978  0.67873  0.42210  1.0000
  C   C2679     1.0  0.03147  0.51796  0.38169  1.0000
  C   C2680     1.0  0.46081  0.86874  0.43172  1.0000
  C   C2681     1.0  0.16997  0.60877  0.40975  1.0000
  C   C2682     1.0  0.38063  0.59868  0.43582  1.0000
  H   H2149     1.0  0.00133  0.87405  0.56135  1.0000
  C   C2683     1.0  0.04466  0.84971  0.42812  1.0000
  C   C2684     1.0  0.03098  0.55169  0.49153  1.0000
  C   C2685     1.0  0.10985  0.91890  0.50396  1.0000
  C   C2686     1.0  0.03556  0.87638  0.51660  1.0000
  S   S375      1.0  0.14673  0.49379  0.40504  1.0000
  H   H2150     1.0  0.35474  0.61628  0.49149  1.0000
  C   C2687     1.0  0.00610  0.87315  0.53360  1.0000
  C   C2688     1.0  0.12822  0.94884  0.54638  1.0000
  H   H2151     1.0  0.99689  0.58259  0.50869  1.0000
  H   H2152     1.0  0.40400  0.60714  0.43673  1.0000
  H   H2153     1.0  0.32186  0.68714  0.40148  1.0000
  H   H2154     1.0  0.99725  0.76298  0.51231  1.0000
  C   C2689     1.0  0.02722  0.84852  0.43704  1.0000
  H   H2155     1.0  0.05655  0.51160  0.41671  1.0000
  H   H2156     1.0  0.04351  0.50288  0.44869  1.0000
  C   C2690     1.0  0.13025  0.61999  0.38531  1.0000
  H   H2157     1.0  0.41517  0.72164  0.39742  1.0000
  C   C2691     1.0  0.99374  0.56178  0.49770  1.0000
  H   H2158     1.0  0.44257  0.96654  0.50031  1.0000
  C   C2692     1.0  0.04960  0.55136  0.42839  1.0000
  C   C2693     1.0  0.38382  0.49463  0.47176  1.0000
  H   H2159     1.0  0.06150  0.85963  0.40346  1.0000
  C   C2694     1.0  0.35670  0.52817  0.39202  1.0000
  C   C2695     1.0  0.34425  0.59175  0.39437  1.0000
  H   H2160     1.0  0.45839  0.90091  0.44050  1.0000
  H   H2161     1.0  0.27942  0.58991  0.53194  1.0000
  C   C2696     1.0  0.46898  0.53032  0.44473  1.0000
  C   C2697     1.0  0.18699  0.71442  0.50356  1.0000
  C   C2698     1.0  0.20373  0.70609  0.49523  1.0000
  C   C2699     1.0  0.21735  0.69880  0.50480  1.0000
  C   C2700     1.0  0.21421  0.69973  0.52273  1.0000
  C   C2701     1.0  0.19725  0.70757  0.53137  1.0000
  C   C2702     1.0  0.18375  0.71517  0.52155  1.0000
  C   C2703     1.0  0.11400  0.94074  0.54784  1.0000
  C   C2704     1.0  0.20919  0.73821  0.54263  1.0000
  C   C2705     1.0  0.21219  0.75423  0.54436  1.0000
  C   C2706     1.0  0.33079  0.55445  0.42511  1.0000
  H   H2162     1.0  0.43655  0.54842  0.51637  1.0000
  H   H2163     1.0  0.17648  0.72028  0.49611  1.0000
  H   H2164     1.0  0.20618  0.70535  0.48134  1.0000
  H   H2165     1.0  0.23035  0.69237  0.49834  1.0000
  H   H2166     1.0  0.22497  0.69415  0.52991  1.0000
  H   H2167     1.0  0.17070  0.72169  0.52769  1.0000
  H   H2168     1.0  0.99410  0.89541  0.42589  1.0000
  H   H2169     1.0  0.21415  0.73418  0.52993  1.0000
  H   H2170     1.0  0.21938  0.76239  0.53311  1.0000
  C   C2707     1.0  0.42882  0.49395  0.49790  1.0000
  H   H2171     1.0  0.28483  0.63233  0.53014  1.0000
  C   C2708     1.0  0.12080  0.92994  0.50442  1.0000
  H   H2172     1.0  0.39407  0.52140  0.39390  1.0000
  H   H2173     1.0  0.42823  0.60039  0.52729  1.0000
  H   H2174     1.0  0.02113  0.49599  0.42481  1.0000
  H   H2175     1.0  0.12160  0.61531  0.56719  1.0000
  H   H2176     1.0  0.25692  0.59720  0.51314  1.0000
  C   C2709     1.0  0.33563  0.70461  0.42104  1.0000
  C   C2710     1.0  0.00225  0.89251  0.38043  1.0000
  H   H2177     1.0  0.32905  0.60245  0.49456  1.0000
  C   C2711     1.0  0.45341  0.91406  0.43334  1.0000
  P   P89       1.0  0.36501  0.53289  0.42246  1.0000
  H   H2178     1.0  0.30698  0.59937  0.52266  1.0000
  C   C2712     1.0  0.40876  0.54229  0.38343  1.0000
  C   C2713     1.0  0.46246  0.97548  0.47777  1.0000
  H   H2179     1.0  0.46773  0.74839  0.41444  1.0000
  C   C2714     1.0  0.01459  0.49557  0.49906  1.0000
  C   C2715     1.0  0.42230  0.87115  0.39746  1.0000
  P   P90       1.0  0.45622  0.89851  0.40446  1.0000
  P   P91       1.0  0.15830  0.59754  0.40081  1.0000
  H   H2180     1.0  0.44289  0.93653  0.39340  1.0000
  C   C2716     1.0  0.00589  0.50940  0.47075  1.0000
  C   C2717     1.0  0.15309  0.82888  0.54695  1.0000
  C   C2718     1.0  0.40472  0.89995  0.40225  1.0000
  P   P92       1.0  0.34372  0.62275  0.40494  1.0000
  C   C2719     1.0  0.11209  0.97682  0.53203  1.0000
  H   H2181     1.0  0.33245  0.54432  0.56080  1.0000
  C   C2720     1.0  0.36755  0.68522  0.40444  1.0000
  C   C2721     1.0  0.19937  0.72792  0.55706  1.0000
  C   C2722     1.0  0.03378  0.86669  0.40155  1.0000
  H   H2182     1.0  0.34547  0.56733  0.38688  1.0000
  C   C2723     1.0  0.00893  0.66211  0.52976  1.0000
  C   C2724     1.0  0.20834  0.67222  0.56085  1.0000
  H   H2183     1.0  0.33596  0.62457  0.54480  1.0000
  H   H2184     1.0  0.28072  0.61713  0.42016  1.0000
  C   C2725     1.0  0.29192  0.61783  0.42526  1.0000
  H   H2185     1.0  0.22179  0.51365  0.41570  1.0000
  C   C2726     1.0  0.31931  0.50227  0.57405  1.0000
  C   C2727     1.0  0.00953  0.52292  0.41457  1.0000
  H   H2186     1.0  0.08427  0.95837  0.40965  1.0000
  H   H2187     1.0  0.05403  0.87829  0.53144  1.0000
  C   C2728     1.0  0.36553  0.60283  0.42836  1.0000
  C   C2729     1.0  0.20582  0.68837  0.56616  1.0000
  C   C2730     1.0  0.05161  0.51129  0.48777  1.0000
  H   H2188     1.0  0.02759  0.49639  0.55158  1.0000
  H   H2189     1.0  0.11492  0.92684  0.55383  1.0000
  H   H2190     1.0  0.39777  0.63553  0.41506  1.0000
  C   C2731     1.0  0.99445  0.76612  0.52537  1.0000
  P   P93       1.0  0.27493  0.52690  0.55277  1.0000
  C   C2732     1.0  0.03348  0.91427  0.41943  1.0000
  H   H2191     1.0  0.15916  0.83441  0.53347  1.0000
  C   C2733     1.0  0.11720  0.59435  0.44449  1.0000
  Fe  Fe184     1.0  0.16602  0.51245  0.39586  1.0000
  H   H2192     1.0  0.13995  0.94109  0.55137  1.0000
  C   C2734     1.0  0.00904  0.91251  0.45205  1.0000
  C   C2735     1.0  0.37254  0.51748  0.44147  1.0000
  C   C2736     1.0  0.36004  0.51292  0.45714  1.0000
  C   C2737     1.0  0.24676  0.61662  0.54862  1.0000
  H   H2193     1.0  0.04401  0.88661  0.42940  1.0000
  H   H2194     1.0  0.10110  0.82791  0.55121  1.0000
  H   H2195     1.0  0.22386  0.53467  0.53224  1.0000
  H   H2196     1.0  0.17115  0.70073  0.47295  1.0000
  C   C2738     1.0  0.00842  0.92851  0.43943  1.0000
  H   H2197     1.0  0.05560  0.84349  0.43497  1.0000
  Fe  Fe185     1.0  0.10067  0.87263  0.55501  1.0000
  H   H2198     1.0  0.17249  0.63057  0.38692  1.0000
  C   C2739     1.0  0.11050  0.64658  0.50822  1.0000
  P   P94       1.0  0.46658  0.49635  0.44260  1.0000
  C   C2740     1.0  0.26066  0.58372  0.52043  1.0000
  C   C2741     1.0  0.08018  0.96984  0.44914  1.0000
  C   C2742     1.0  0.11614  0.94829  0.49823  1.0000
  H   H2199     1.0  0.34592  0.51836  0.45779  1.0000
  H   H2200     1.0  0.24306  0.59640  0.57234  1.0000
  C   C2743     1.0  0.25221  0.60420  0.56315  1.0000
  C   C2744     1.0  0.36651  0.59294  0.57084  1.0000
  C   C2745     1.0  0.31157  0.52497  0.54247  1.0000
  S   S376      1.0  0.07925  0.89176  0.54173  1.0000
  C   C2746     1.0  0.16623  0.89351  0.56676  1.0000
  C   C2747     1.0  0.37235  0.60691  0.57385  1.0000
  H   H2201     1.0  0.20188  0.67139  0.55070  1.0000
  C   C2748     1.0  0.16917  0.68996  0.48435  1.0000
  C   C2749     1.0  0.18189  0.67404  0.48554  1.0000
  C   C2750     1.0  0.17899  0.65993  0.49990  1.0000
  C   C2751     1.0  0.16370  0.66184  0.51335  1.0000
  C   C2752     1.0  0.15101  0.67789  0.51243  1.0000
  C   C2753     1.0  0.15365  0.69180  0.49761  1.0000
  P   P95       1.0  0.12974  0.67899  0.52770  1.0000
  C   C2754     1.0  0.11653  0.67107  0.51719  1.0000
  C   C2755     1.0  0.13176  0.66541  0.54935  1.0000
  C   C2756     1.0  0.11793  0.65687  0.55950  1.0000
  C   C2757     1.0  0.25852  0.62677  0.53676  1.0000
  H   H2202     1.0  0.19504  0.57847  0.40506  1.0000
  C   C2758     1.0  0.45604  0.52788  0.57361  1.0000
  C   C2759     1.0  0.14613  0.66480  0.55694  1.0000
  C   C2760     1.0  0.10462  0.68305  0.50709  1.0000
  C   C2761     1.0  0.09548  0.67675  0.49790  1.0000
  C   C2762     1.0  0.09849  0.65853  0.49841  1.0000
  C   C2763     1.0  0.11952  0.65281  0.51753  1.0000
  C   C2764     1.0  0.11968  0.70087  0.53229  1.0000
  C   C2765     1.0  0.13034  0.71288  0.53114  1.0000
  C   C2766     1.0  0.12252  0.72945  0.53570  1.0000
  C   C2767     1.0  0.10409  0.73390  0.54198  1.0000
  C   C2768     1.0  0.09345  0.72181  0.54363  1.0000
  C   C2769     1.0  0.10120  0.70531  0.53887  1.0000
  H   H2203     1.0  0.19383  0.67242  0.47521  1.0000
  H   H2204     1.0  0.18837  0.64730  0.50040  1.0000
  H   H2205     1.0  0.16164  0.65059  0.52421  1.0000
  H   H2206     1.0  0.14352  0.70389  0.49611  1.0000
  H   H2207     1.0  0.10666  0.65741  0.55399  1.0000
  C   C2770     1.0  0.44222  0.76234  0.39295  1.0000
  P   P96       1.0  0.01944  0.95029  0.40673  1.0000
  C   C2771     1.0  0.27588  0.62429  0.53935  1.0000
  H   H2208     1.0  0.15690  0.67147  0.54943  1.0000
  H   H2209     1.0  0.10243  0.69724  0.50617  1.0000
  H   H2210     1.0  0.08599  0.68596  0.49045  1.0000
  H   H2211     1.0  0.12883  0.64339  0.52497  1.0000
  H   H2212     1.0  0.14470  0.70932  0.52707  1.0000
  H   H2213     1.0  0.13076  0.73875  0.53470  1.0000
  H   H2214     1.0  0.09808  0.74664  0.54578  1.0000
  P   P97       1.0  0.19324  0.70845  0.55465  1.0000
  H   H2215     1.0  0.09281  0.69591  0.54062  1.0000
  H   H2216     1.0  0.08268  0.98025  0.45411  1.0000
  H   H2217     1.0  0.07246  0.84776  0.54567  1.0000
  H   H2218     1.0  0.11340  0.90468  0.50895  1.0000
  C   C2772     1.0  0.30424  0.61839  0.44996  1.0000
  H   H2219     1.0  0.37606  0.56656  0.41934  1.0000
  H   H2220     1.0  0.17685  0.80938  0.55167  1.0000
  C   C2773     1.0  0.27934  0.51242  0.52319  1.0000
  C   C2774     1.0  0.47646  0.54546  0.43915  1.0000
  C   C2775     1.0  0.01696  0.50758  0.48264  1.0000
  C   C2776     1.0  0.99282  0.91009  0.38055  1.0000
  C   C2777     1.0  0.04066  0.87695  0.53213  1.0000
  H   H2221     1.0  0.42341  0.85837  0.39432  1.0000
  C   C2778     1.0  0.99234  0.85761  0.39138  1.0000
  C   C2779     1.0  0.08903  0.82266  0.55500  1.0000
  H   H2222     1.0  0.20714  0.77273  0.56172  1.0000
  C   C2780     1.0  0.13543  0.83620  0.55411  1.0000
  C   C2781     1.0  0.42725  0.56064  0.55651  1.0000
  C   C2782     1.0  0.34749  0.50779  0.41944  1.0000
  C   C2783     1.0  0.39077  0.51046  0.44112  1.0000
  C   C2784     1.0  0.08387  0.97095  0.43074  1.0000
  C   C2785     1.0  0.42948  0.58616  0.53201  1.0000
  C   C2786     1.0  0.42645  0.57898  0.55031  1.0000
  H   H2223     1.0  0.33302  0.58984  0.40522  1.0000
  H   H2224     1.0  0.23790  0.51789  0.38378  1.0000
  H   H2225     1.0  0.99336  0.78824  0.45171  1.0000
  H   H2226     1.0  0.38012  0.67772  0.39833  1.0000
  H   H2227     1.0  0.28213  0.50197  0.49993  1.0000
  C   C2787     1.0  0.43530  0.50685  0.46638  1.0000
  H   H2228     1.0  0.41091  0.51532  0.48444  1.0000
  C   C2788     1.0  0.14483  0.86846  0.57431  1.0000
  S   S377      1.0  0.02072  0.68313  0.56114  1.0000
  C   C2789     1.0  0.14133  0.58942  0.41896  1.0000
  H   H2229     1.0  0.42310  0.58790  0.55944  1.0000
  H   H2230     1.0  0.48167  0.51020  0.56869  1.0000
  H   H2231     1.0  0.30638  0.58162  0.45336  1.0000
  C   C2790     1.0  0.35630  0.52178  0.41035  1.0000
  C   C2791     1.0  0.48791  0.87428  0.41058  1.0000
  H   H2232     1.0  0.39466  0.96496  0.38443  1.0000
  H   H2233     1.0  0.39660  0.54800  0.56094  1.0000
  H   H2234     1.0  0.08991  0.62349  0.55801  1.0000
  H   H2235     1.0  0.33231  0.48971  0.41751  1.0000
  C   C2792     1.0  0.15609  0.87165  0.55762  1.0000
  C   C2793     1.0  0.25525  0.52748  0.39434  1.0000
  C   C2794     1.0  0.35151  0.60694  0.39053  1.0000
  C   C2795     1.0  0.07319  0.95559  0.46089  1.0000
  H   H2236     1.0  0.06500  0.50432  0.52699  1.0000
  P   P98       1.0  0.06811  0.95443  0.48467  1.0000
  C   C2796     1.0  0.05127  0.94156  0.49651  1.0000
  C   C2797     1.0  0.08894  0.94476  0.49201  1.0000
  C   C2798     1.0  0.09407  0.92625  0.49758  1.0000
  C   C2799     1.0  0.34687  0.54948  0.43118  1.0000
  C   C2800     1.0  0.10031  0.95570  0.49199  1.0000
  C   C2801     1.0  0.03779  0.94080  0.48836  1.0000
  C   C2802     1.0  0.02499  0.93058  0.49758  1.0000
  C   C2803     1.0  0.02524  0.92150  0.51514  1.0000
  C   C2804     1.0  0.03818  0.92274  0.52356  1.0000
  C   C2805     1.0  0.05105  0.93282  0.51435  1.0000
  C   C2806     1.0  0.39513  0.53435  0.39503  1.0000
  H   H2237     1.0  0.10872  0.60297  0.45330  1.0000
  C   C2807     1.0  0.42378  0.50623  0.48306  1.0000
  H   H2238     1.0  0.39277  0.70535  0.39724  1.0000
  H   H2239     1.0  0.43170  0.81209  0.39572  1.0000
  H   H2240     1.0  0.27378  0.53904  0.40094  1.0000
  C   C2808     1.0  0.26720  0.53875  0.39068  1.0000
  C   C2809     1.0  0.03679  0.78971  0.55535  1.0000
  H   H2241     1.0  0.03671  0.87363  0.38789  1.0000
  C   C2810     1.0  0.36566  0.50157  0.47221  1.0000
  H   H2242     1.0  0.41990  0.49359  0.51085  1.0000
  H   H2243     1.0  0.08572  0.91748  0.49746  1.0000
  C   C2811     1.0  0.43326  0.49780  0.40221  1.0000
  C   C2812     1.0  0.13424  0.55390  0.56272  1.0000
  H   H2244     1.0  0.03717  0.94801  0.47492  1.0000
  H   H2245     1.0  0.01489  0.92958  0.49116  1.0000
  H   H2246     1.0  0.06104  0.54229  0.40377  1.0000
  H   H2247     1.0  0.03833  0.91573  0.53724  1.0000
  H   H2248     1.0  0.06085  0.93371  0.52120  1.0000
  C   C2813     1.0  0.05214  0.52141  0.42497  1.0000
  C   C2814     1.0  0.05722  0.82717  0.55687  1.0000
  C   C2815     1.0  0.08134  0.95746  0.42392  1.0000
  C   C2816     1.0  0.00907  0.53688  0.39971  1.0000
  C   C2817     1.0  0.03406  0.89833  0.43212  1.0000
  C   C2818     1.0  0.03688  0.60930  0.49921  1.0000
  C   C2819     1.0  0.02596  0.61060  0.48748  1.0000
  C   C2820     1.0  0.00758  0.61687  0.49218  1.0000
  C   C2821     1.0  0.00017  0.62181  0.50863  1.0000
  C   C2822     1.0  0.01107  0.62039  0.52057  1.0000
  C   C2823     1.0  0.02955  0.61435  0.51566  1.0000
  P   P99       1.0  0.00106  0.62838  0.54091  1.0000
  C   C2824     1.0  0.48201  0.74742  0.41092  1.0000
  H   H2249     1.0  0.44994  0.86616  0.39846  1.0000
  C   C2825     1.0  0.43207  0.48538  0.41834  1.0000
  H   H2250     1.0  0.00071  0.74739  0.56750  1.0000
  H   H2251     1.0  0.35786  0.62731  0.51672  1.0000
  H   H2252     1.0  0.46401  0.84580  0.45303  1.0000
  H   H2253     1.0  0.16356  0.73906  0.55326  1.0000
  H   H2254     1.0  0.41470  0.76265  0.40614  1.0000
  H   H2255     1.0  0.02230  0.49450  0.50887  1.0000
  H   H2256     1.0  0.00023  0.54964  0.40094  1.0000
  C   C2826     1.0  0.15835  0.72755  0.56130  1.0000
  C   C2827     1.0  0.39215  0.61054  0.43111  1.0000
  H   H2257     1.0  0.41854  0.91783  0.40641  1.0000
  H   H2258     1.0  0.23679  0.52700  0.56125  1.0000
  S   S378      1.0  0.09773  0.55770  0.57588  1.0000
  C   C2828     1.0  0.34329  0.71107  0.40332  1.0000
  C   C2829     1.0  0.00240  0.54690  0.49022  1.0000
  H   H2259     1.0  0.12451  0.95685  0.49887  1.0000
  H   H2260     1.0  0.05110  0.60445  0.49546  1.0000
  H   H2261     1.0  0.03178  0.60668  0.47478  1.0000
  C   C2830     1.0  0.02187  0.89744  0.44840  1.0000
  C   C2831     1.0  0.24027  0.52916  0.57273  1.0000
  H   H2262     1.0  0.03835  0.61369  0.52433  1.0000
  C   C2832     1.0  0.08181  0.49654  0.50307  1.0000
  C   C2833     1.0  0.16966  0.71069  0.56412  1.0000
  H   H2263     1.0  0.25244  0.51920  0.40750  1.0000
  C   C2834     1.0  0.47638  0.51580  0.43628  1.0000
  C   C2835     1.0  0.26435  0.49656  0.55106  1.0000
  H   H2264     1.0  0.04772  0.76328  0.56880  1.0000
  H   H2265     1.0  0.23338  0.61832  0.54665  1.0000
  H   H2266     1.0  0.43531  0.96169  0.40862  1.0000
  H   H2267     1.0  0.05821  0.94374  0.39630  1.0000
  H   H2268     1.0  0.48686  0.95022  0.45090  1.0000
  C   C2836     1.0  0.46933  0.87907  0.41626  1.0000
  H   H2269     1.0  0.06544  0.96769  0.51635  1.0000
  C   C2837     1.0  0.40600  0.88333  0.39865  1.0000
  C   C2838     1.0  0.28980  0.61764  0.44333  1.0000
  H   H2270     1.0  0.36047  0.55265  0.45027  1.0000
  H   H2271     1.0  0.27698  0.61676  0.45221  1.0000
  C   C2839     1.0  0.36177  0.61895  0.41624  1.0000
  H   H2272     1.0  0.25414  0.63646  0.52555  1.0000
  C   C2840     1.0  0.17421  0.60124  0.42657  1.0000
  C   C2841     1.0  0.18388  0.60926  0.43346  1.0000
  C   C2842     1.0  0.18947  0.62486  0.42361  1.0000
  C   C2843     1.0  0.48247  0.91419  0.37938  1.0000
  H   H2273     1.0  0.03831  0.51687  0.51373  1.0000
  C   C2844     1.0  0.12656  0.56545  0.43657  1.0000
  C   C2845     1.0  0.09875  0.95064  0.54147  1.0000
  H   H2274     1.0  0.17060  0.58878  0.43413  1.0000
  H   H2275     1.0  0.18748  0.60297  0.44624  1.0000
  H   H2276     1.0  0.19742  0.63076  0.42877  1.0000
  H   H2277     1.0  0.40024  0.58026  0.39905  1.0000
  C   C2846     1.0  0.25805  0.52897  0.57273  1.0000
  H   H2278     1.0  0.12536  0.55172  0.43911  1.0000
  C   C2847     1.0  0.33017  0.60782  0.50537  1.0000
  C   C2848     1.0  0.34460  0.61558  0.50364  1.0000
  C   C2849     1.0  0.34635  0.62180  0.51788  1.0000
  C   C2850     1.0  0.33385  0.62007  0.53394  1.0000
  C   C2851     1.0  0.31931  0.61221  0.53587  1.0000
  C   C2852     1.0  0.31761  0.60612  0.52139  1.0000
  P   P100      1.0  0.30399  0.60811  0.55710  1.0000
  C   C2853     1.0  0.31059  0.58540  0.56857  1.0000
  C   C2854     1.0  0.30374  0.62303  0.57098  1.0000
  C   C2855     1.0  0.44935  0.92845  0.44183  1.0000
  C   C2856     1.0  0.01105  0.87426  0.54899  1.0000
  C   C2857     1.0  0.37346  0.63076  0.41144  1.0000
  C   C2858     1.0  0.06568  0.50380  0.51332  1.0000
  H   H2279     1.0  0.32332  0.71220  0.42752  1.0000
  H   H2280     1.0  0.43952  0.95679  0.43949  1.0000
  H   H2281     1.0  0.99442  0.81285  0.40105  1.0000
  H   H2282     1.0  0.04558  0.74838  0.54595  1.0000
  C   C2859     1.0  0.32487  0.55447  0.56820  1.0000
  C   C2860     1.0  0.32025  0.57203  0.55911  1.0000
  C   C2861     1.0  0.28160  0.61143  0.55371  1.0000
  C   C2862     1.0  0.26951  0.60162  0.56578  1.0000
  H   H2283     1.0  0.00687  0.51921  0.45843  1.0000
  H   H2284     1.0  0.99968  0.91169  0.46477  1.0000
  C   C2863     1.0  0.38490  0.55972  0.40927  1.0000
  H   H2285     1.0  0.99438  0.53939  0.48720  1.0000
  C   C2864     1.0  0.42122  0.78829  0.40167  1.0000
  C   C2865     1.0  0.16252  0.69613  0.57492  1.0000
  C   C2866     1.0  0.07541  0.94268  0.43555  1.0000
  C   C2867     1.0  0.02111  0.54169  0.48713  1.0000
  C   C2868     1.0  0.16311  0.81471  0.55726  1.0000
  C   C2869     1.0  0.07158  0.94162  0.45399  1.0000
  C   C2870     1.0  0.02076  0.92958  0.42307  1.0000
  C   C2871     1.0  0.01454  0.62224  0.55755  1.0000
  C   C2872     1.0  0.42504  0.77035  0.40072  1.0000
  S   S379      1.0  0.20879  0.58817  0.57253  1.0000
  C   C2873     1.0  0.04794  0.85880  0.41038  1.0000
  C   C2874     1.0  0.05062  0.51098  0.50575  1.0000
  H   H2286     1.0  0.02432  0.59502  0.55410  1.0000
  C   C2875     1.0  0.21940  0.65696  0.56846  1.0000
  C   C2876     1.0  0.17545  0.62455  0.39996  1.0000
  H   H2287     1.0  0.03909  0.55641  0.45468  1.0000
  H   H2288     1.0  0.12152  0.61734  0.39820  1.0000
  S   S380      1.0  0.03399  0.87706  0.56821  1.0000
  H   H2289     1.0  0.17469  0.90304  0.56349  1.0000
  H   H2290     1.0  0.44540  0.55486  0.40100  1.0000
  C   C2877     1.0  0.16681  0.88414  0.55385  1.0000
  H   H2291     1.0  0.10557  0.57164  0.45883  1.0000
  C   C2878     1.0  0.19295  0.73371  0.57326  1.0000
  H   H2292     1.0  0.16791  0.97497  0.56594  1.0000
  C   C2879     1.0  0.04267  0.77120  0.55720  1.0000
  H   H2293     1.0  0.43118  0.51647  0.45500  1.0000
  H   H2294     1.0  0.25945  0.49482  0.56533  1.0000
  H   H2295     1.0  0.15627  0.86461  0.54754  1.0000
  C   C2880     1.0  0.44473  0.93411  0.40694  1.0000
  C   C2881     1.0  0.28746  0.58979  0.38882  1.0000
  H   H2296     1.0  0.01525  0.68819  0.52127  1.0000
  H   H2297     1.0  0.08332  0.68888  0.57412  1.0000
  C   C2882     1.0  0.05302  0.94475  0.38463  1.0000
  H   H2298     1.0  0.00112  0.80737  0.56538  1.0000
  H   H2299     1.0  0.04140  0.52182  0.54976  1.0000
  H   H2300     1.0  0.02985  0.57349  0.50346  1.0000
  H   H2301     1.0  0.16277  0.55095  0.55324  1.0000
  H   H2302     1.0  0.99971  0.85482  0.43531  1.0000
  C   C2883     1.0  0.30156  0.50837  0.57201  1.0000
  C   C2884     1.0  0.44428  0.51001  0.39849  1.0000
  H   H2303     1.0  0.02237  0.88507  0.45826  1.0000
  C   C2885     1.0  0.18519  0.63254  0.40690  1.0000
  C   C2886     1.0  0.99277  0.49922  0.47517  1.0000
  H   H2304     1.0  0.07920  0.72516  0.54879  1.0000
  H   H2305     1.0  0.47040  0.55687  0.44530  1.0000
  H   H2306     1.0  0.43118  0.53554  0.54857  1.0000
  C   C2887     1.0  0.07398  0.79799  0.56802  1.0000
  H   H2307     1.0  0.13164  0.61428  0.42813  1.0000
  C   C2888     1.0  0.02224  0.56643  0.49919  1.0000
  H   H2308     1.0  0.38045  0.94249  0.37994  1.0000
  C   C2889     1.0  0.30923  0.56351  0.38181  1.0000
  C   C2890     1.0  0.99060  0.48720  0.49149  1.0000
  C   C2891     1.0  0.99665  0.83963  0.39968  1.0000
  C   C2892     1.0  0.03454  0.94765  0.38578  1.0000
  H   H2309     1.0  0.46007  0.53850  0.56282  1.0000
  H   H2310     1.0  0.45110  0.92628  0.45536  1.0000
  H   H2311     1.0  0.01533  0.48924  0.37959  1.0000
  C   C2893     1.0  0.34847  0.52071  0.38300  1.0000
  H   H2312     1.0  0.30971  0.61937  0.39972  1.0000
  Fe  Fe186     1.0  0.06069  0.88314  0.56736  1.0000
  C   C2894     1.0  0.43734  0.87565  0.39977  1.0000
  H   H2313     1.0  0.21595  0.55438  0.39195  1.0000
  Fe  Fe187     1.0  0.47622  0.57046  0.38023  1.0000
  H   H2314     1.0  0.42567  0.49800  0.39258  1.0000
  C   C2895     1.0  0.15156  0.55458  0.56368  1.0000
  H   H2315     1.0  0.02602  0.95287  0.44111  1.0000
  H   H2316     1.0  0.07189  0.50753  0.38557  1.0000
  H   H2317     1.0  0.38282  0.49328  0.51907  1.0000
  C   C2896     1.0  0.00498  0.68057  0.52387  1.0000
  C   C2897     1.0  0.20543  0.76003  0.56047  1.0000
  C   C2898     1.0  0.99982  0.75306  0.53968  1.0000
  C   C2899     1.0  0.33931  0.50031  0.41035  1.0000
  C   C2900     1.0  0.01356  0.63422  0.56824  1.0000
  C   C2901     1.0  0.16930  0.57193  0.37980  1.0000
  H   H2318     1.0  0.13183  0.74312  0.56817  1.0000
  C   C2902     1.0  0.33319  0.50738  0.56022  1.0000
  C   C2903     1.0  0.00185  0.81767  0.57164  1.0000
  C   C2904     1.0  0.14034  0.72993  0.56960  1.0000
  H   H2319     1.0  0.36557  0.54432  0.57132  1.0000
  C   C2905     1.0  0.39073  0.54685  0.57499  1.0000
  H   H2320     1.0  0.35593  0.49837  0.48432  1.0000
  S   S381      1.0  0.04673  0.70756  0.56593  1.0000
  S   S382      1.0  0.07087  0.65802  0.56269  1.0000
  C   C2906     1.0  0.03306  0.59945  0.57577  1.0000
  C   C2907     1.0  0.26867  0.48638  0.52366  1.0000
  H   H2321     1.0  0.41037  0.49387  0.45601  1.0000
  C   C2908     1.0  0.38691  0.48274  0.52981  1.0000
  C   C2909     1.0  0.44207  0.48505  0.43065  1.0000
  C   C2910     1.0  0.12767  0.82892  0.57160  1.0000
  C   C2911     1.0  0.35149  0.57873  0.38415  1.0000
  C   C2912     1.0  0.05759  0.80927  0.56538  1.0000
  H   H2322     1.0  0.31343  0.54919  0.38394  1.0000
  C   C2913     1.0  0.45692  0.48272  0.47933  1.0000
  H   H2323     1.0  0.33314  0.50124  0.38517  1.0000
  H   H2324     1.0  0.48664  0.91598  0.39065  1.0000
  C   C2914     1.0  0.08959  0.80473  0.56305  1.0000
  C   C2915     1.0  0.24705  0.52679  0.38099  1.0000
  C   C2916     1.0  0.99678  0.95747  0.40319  1.0000
  C   C2917     1.0  0.19596  0.74967  0.57494  1.0000
  H   H2325     1.0  0.10210  0.79610  0.56565  1.0000
  P   P101      1.0  0.03736  0.80065  0.57245  1.0000
  H   H2326     1.0  0.33034  0.61076  0.57559  1.0000
  H   H2327     1.0  0.16281  0.93282  0.57277  1.0000
  C   C2918     1.0  0.14859  0.61244  0.38277  1.0000
  C   C2919     1.0  0.14658  0.65562  0.57448  1.0000
  Fe  Fe188     1.0  0.04649  0.67866  0.56969  1.0000
  H   H2328     1.0  0.03637  0.97548  0.44959  1.0000
  C   C2920     1.0  0.48302  0.97769  0.40136  1.0000
  Fe  Fe189     1.0  0.99050  0.85935  0.50052  1.0000
  C   C2921     1.0  0.01775  0.81791  0.57622  1.0000
  H   H2329     1.0  0.36363  0.67360  0.37651  1.0000
  C   C2922     1.0  0.36646  0.60864  0.37659  1.0000
  H   H2330     1.0  0.15619  0.57643  0.37649  1.0000
  C   C2923     1.0  0.19818  0.55189  0.37669  1.0000
  C   C2924     1.0  0.40236  0.95529  0.37646  1.0000
  Fe  Fe190     1.0  0.41220  0.65038  0.74205  1.0000
  H   H2331     1.0  0.46424  0.76487  0.70523  1.0000
  S   S383      1.0  0.44077  0.65016  0.74198  1.0000
  Fe  Fe191     1.0  0.38640  0.65016  0.71944  1.0000
  S   S384      1.0  0.36487  0.64483  0.74344  1.0000
  S   S385      1.0  0.38166  0.65331  0.69179  1.0000
  Fe  Fe192     1.0  0.37282  0.66520  0.75303  1.0000
  C   C2925     1.0  0.40378  0.49866  0.75837  1.0000
  Fe  Fe193     1.0  0.38647  0.62538  0.75578  1.0000
  H   H2332     1.0  0.30025  0.80220  0.75547  1.0000
  S   S386      1.0  0.39298  0.67216  0.72804  1.0000
  S   S387      1.0  0.40756  0.62902  0.73094  1.0000
  H   H2333     1.0  0.04728  0.87316  0.66983  1.0000
  H   H2334     1.0  0.43064  0.54052  0.69864  1.0000
  C   C2926     1.0  0.36575  0.48991  0.60379  1.0000
  C   C2927     1.0  0.43015  0.70282  0.71826  1.0000
  H   H2335     1.0  0.11405  0.83443  0.57727  1.0000
  C   C2928     1.0  0.43999  0.54755  0.68860  1.0000
  H   H2336     1.0  0.12427  0.95084  0.76140  1.0000
  C   C2929     1.0  0.29648  0.50137  0.62495  1.0000
  C   C2930     1.0  0.39915  0.56947  0.70033  1.0000
  C   C2931     1.0  0.16205  0.86884  0.62184  1.0000
  H   H2337     1.0  0.41170  0.78430  0.74337  1.0000
  H   H2338     1.0  0.37698  0.56652  0.75065  1.0000
  H   H2339     1.0  0.33508  0.50513  0.63332  1.0000
  H   H2340     1.0  0.40757  0.74395  0.72494  1.0000
  C   C2932     1.0  0.46554  0.67572  0.76318  1.0000
  H   H2341     1.0  0.40204  0.60352  0.60776  1.0000
  H   H2342     1.0  0.00070  0.59092  0.60094  1.0000
  S   S388      1.0  0.15468  0.63188  0.62368  1.0000
  C   C2933     1.0  0.11907  0.91888  0.59440  1.0000
  S   S389      1.0  0.18631  0.58423  0.61421  1.0000
  C   C2934     1.0  0.39293  0.55412  0.71048  1.0000
  H   H2343     1.0  0.40366  0.71777  0.71616  1.0000
  H   H2344     1.0  0.44675  0.80550  0.71243  1.0000
  Fe  Fe194     1.0  0.08600  0.88488  0.59001  1.0000
  C   C2935     1.0  0.14441  0.69861  0.58313  1.0000
  S   S390      1.0  0.09609  0.87944  0.61538  1.0000
  H   H2345     1.0  0.42173  0.60352  0.67510  1.0000
  H   H2346     1.0  0.39697  0.81035  0.72421  1.0000
  H   H2347     1.0  0.20209  0.86978  0.73048  1.0000
  H   H2348     1.0  0.15913  0.92065  0.74110  1.0000
  C   C2936     1.0  0.37836  0.49966  0.59309  1.0000
  H   H2349     1.0  0.47433  0.57074  0.65181  1.0000
  Fe  Fe195     1.0  0.15753  0.72957  0.62187  1.0000
  S   S391      1.0  0.13020  0.73288  0.63950  1.0000
  S   S392      1.0  0.17781  0.70389  0.61951  1.0000
  Fe  Fe196     1.0  0.15382  0.76988  0.60718  1.0000
  S   S393      1.0  0.12640  0.77613  0.62374  1.0000
  C   C2937     1.0  0.42672  0.77097  0.72169  1.0000
  Fe  Fe197     1.0  0.13802  0.75582  0.64570  1.0000
  S   S394      1.0  0.13364  0.76190  0.67324  1.0000
  Fe  Fe198     1.0  0.12151  0.75282  0.61576  1.0000
  S   S395      1.0  0.10075  0.75567  0.59952  1.0000
  S   S396      1.0  0.16576  0.75114  0.62943  1.0000
  S   S397      1.0  0.14855  0.74792  0.59796  1.0000
  Fe  Fe199     1.0  0.33653  0.59561  0.65827  1.0000
  S   S398      1.0  0.31289  0.58433  0.65941  1.0000
  S   S399      1.0  0.34336  0.59565  0.68418  1.0000
  Fe  Fe200     1.0  0.34755  0.60086  0.61789  1.0000
  S   S400      1.0  0.32523  0.58983  0.61560  1.0000
  C   C2938     1.0  0.45391  0.50215  0.73707  1.0000
  Fe  Fe201     1.0  0.30830  0.60601  0.63558  1.0000
  S   S401      1.0  0.28119  0.62241  0.63169  1.0000
  Fe  Fe202     1.0  0.33156  0.56909  0.63947  1.0000
  S   S402      1.0  0.33278  0.54024  0.64059  1.0000
  S   S403      1.0  0.33022  0.61883  0.63622  1.0000
  S   S404      1.0  0.35566  0.57862  0.64001  1.0000
  Fe  Fe203     1.0  0.22240  0.80281  0.73301  1.0000
  S   S405      1.0  0.20172  0.81458  0.75420  1.0000
  S   S406      1.0  0.25142  0.80502  0.72677  1.0000
  Fe  Fe204     1.0  0.19641  0.78477  0.72457  1.0000
  S   S407      1.0  0.17376  0.79453  0.74593  1.0000
  S   S408      1.0  0.19762  0.76683  0.70577  1.0000
  Fe  Fe205     1.0  0.18321  0.82038  0.73539  1.0000
  S   S409      1.0  0.16288  0.84607  0.73475  1.0000
  H   H2350     1.0  0.09264  0.93138  0.58982  1.0000
  S   S410      1.0  0.20462  0.81117  0.71301  1.0000
  S   S411      1.0  0.21596  0.77572  0.74285  1.0000
  Fe  Fe206     1.0  0.13990  0.93023  0.67467  1.0000
  S   S412      1.0  0.11593  0.92112  0.69332  1.0000
  S   S413      1.0  0.16547  0.91037  0.66861  1.0000
  Fe  Fe207     1.0  0.12124  0.96905  0.66935  1.0000
  S   S414      1.0  0.09591  0.96324  0.68804  1.0000
  Fe  Fe208     1.0  0.11393  0.94440  0.70544  1.0000
  S   S415      1.0  0.11306  0.94038  0.73482  1.0000
  Fe  Fe209     1.0  0.10045  0.94069  0.67397  1.0000
  S   S416      1.0  0.07802  0.93626  0.66406  1.0000
  S   S417      1.0  0.13892  0.95219  0.68790  1.0000
  S   S418      1.0  0.12463  0.94784  0.65417  1.0000
  S   S419      1.0  0.03803  0.71423  0.61651  1.0000
  H   H2351     1.0  0.16920  0.84297  0.63830  1.0000
  C   C2939     1.0  0.31864  0.63250  0.58902  1.0000
  C   C2940     1.0  0.10533  0.95944  0.74419  1.0000
  C   C2941     1.0  0.24750  0.75049  0.71631  1.0000
  C   C2942     1.0  0.02413  0.76172  0.61549  1.0000
  H   H2352     1.0  0.13119  0.87267  0.70363  1.0000
  H   H2353     1.0  0.40726  0.73561  0.75973  1.0000
  C   C2943     1.0  0.23162  0.87126  0.75671  1.0000
  C   C2944     1.0  0.16515  0.86369  0.71632  1.0000
  C   C2945     1.0  0.17541  0.86102  0.69963  1.0000
  C   C2946     1.0  0.17577  0.87542  0.68494  1.0000
  C   C2947     1.0  0.16591  0.89245  0.68699  1.0000
  C   C2948     1.0  0.15607  0.89509  0.70380  1.0000
  C   C2949     1.0  0.15563  0.88075  0.71837  1.0000
  H   H2354     1.0  0.18270  0.84783  0.69795  1.0000
  H   H2355     1.0  0.18342  0.87332  0.67196  1.0000
  H   H2356     1.0  0.14886  0.90825  0.70567  1.0000
  H   H2357     1.0  0.14773  0.88280  0.73125  1.0000
  C   C2950     1.0  0.34065  0.52732  0.65961  1.0000
  C   C2951     1.0  0.33327  0.53201  0.67618  1.0000
  C   C2952     1.0  0.34013  0.52211  0.69122  1.0000
  C   C2953     1.0  0.35474  0.50785  0.68962  1.0000
  C   C2954     1.0  0.36219  0.50319  0.67300  1.0000
  C   C2955     1.0  0.35493  0.51275  0.65807  1.0000
  H   H2358     1.0  0.32228  0.54331  0.67743  1.0000
  H   H2359     1.0  0.33439  0.52581  0.70401  1.0000
  H   H2360     1.0  0.36809  0.54331  0.62496  1.0000
  H   H2361     1.0  0.36076  0.50924  0.64523  1.0000
  H   H2362     1.0  0.15815  0.85383  0.66656  1.0000
  C   C2956     1.0  0.15152  0.76413  0.68167  1.0000
  C   C2957     1.0  0.16930  0.75740  0.67438  1.0000
  C   C2958     1.0  0.18318  0.75847  0.68185  1.0000
  C   C2959     1.0  0.17954  0.76668  0.69645  1.0000
  C   C2960     1.0  0.16177  0.77384  0.70354  1.0000
  C   C2961     1.0  0.14782  0.77238  0.69629  1.0000
  H   H2363     1.0  0.17230  0.75090  0.66330  1.0000
  H   H2364     1.0  0.19684  0.75286  0.67634  1.0000
  H   H2365     1.0  0.15875  0.78012  0.71484  1.0000
  H   H2366     1.0  0.13411  0.77764  0.70205  1.0000
  C   C2962     1.0  0.08448  0.74267  0.60447  1.0000
  C   C2963     1.0  0.07646  0.74241  0.59073  1.0000
  C   C2964     1.0  0.06280  0.73298  0.59417  1.0000
  C   C2965     1.0  0.05670  0.72416  0.61149  1.0000
  C   C2966     1.0  0.06483  0.72423  0.62523  1.0000
  C   C2967     1.0  0.07885  0.73331  0.62170  1.0000
  C   C2968     1.0  0.01793  0.83110  0.58497  1.0000
  C   C2969     1.0  0.20000  0.93177  0.58713  1.0000
  H   H2367     1.0  0.06013  0.71745  0.63867  1.0000
  H   H2368     1.0  0.08490  0.73353  0.63237  1.0000
  H   H2369     1.0  0.38718  0.58742  0.65083  1.0000
  P   P102      1.0  0.43712  0.75127  0.73569  1.0000
  C   C2970     1.0  0.41625  0.71774  0.71917  1.0000
  C   C2971     1.0  0.47065  0.54919  0.67439  1.0000
  C   C2972     1.0  0.43873  0.53016  0.58420  1.0000
  C   C2973     1.0  0.41265  0.59197  0.60600  1.0000
  C   C2974     1.0  0.32556  0.49883  0.63093  1.0000
  H   H2370     1.0  0.42327  0.78753  0.67826  1.0000
  H   H2371     1.0  0.99644  0.49937  0.59712  1.0000
  H   H2372     1.0  0.13156  0.80883  0.59527  1.0000
  H   H2373     1.0  0.09783  0.70794  0.58340  1.0000
  S   S420      1.0  0.00477  0.71173  0.58807  1.0000
  C   C2975     1.0  0.09126  0.89616  0.62779  1.0000
  C   C2976     1.0  0.10342  0.89614  0.63784  1.0000
  C   C2977     1.0  0.09980  0.90885  0.64844  1.0000
  C   C2978     1.0  0.08364  0.92126  0.64956  1.0000
  C   C2979     1.0  0.07142  0.92127  0.63951  1.0000
  C   C2980     1.0  0.07532  0.90890  0.62845  1.0000
  H   H2374     1.0  0.11561  0.88614  0.63748  1.0000
  H   H2375     1.0  0.10931  0.90882  0.65605  1.0000
  H   H2376     1.0  0.05890  0.93085  0.64032  1.0000
  H   H2377     1.0  0.06583  0.90893  0.62080  1.0000
  C   C2981     1.0  0.05601  0.86191  0.64632  1.0000
  C   C2982     1.0  0.34328  0.73423  0.77333  1.0000
  C   C2983     1.0  0.24954  0.59128  0.61463  1.0000
  C   C2984     1.0  0.24429  0.60978  0.61251  1.0000
  C   C2985     1.0  0.25416  0.61936  0.61754  1.0000
  C   C2986     1.0  0.26917  0.61044  0.62492  1.0000
  C   C2987     1.0  0.27439  0.59195  0.62701  1.0000
  C   C2988     1.0  0.26467  0.58243  0.62178  1.0000
  C   C2989     1.0  0.44817  0.59702  0.74888  1.0000
  C   C2990     1.0  0.26769  0.75636  0.77488  1.0000
  H   H2378     1.0  0.28587  0.58494  0.63278  1.0000
  H   H2379     1.0  0.32344  0.53645  0.59375  1.0000
  C   C2991     1.0  0.16090  0.65196  0.62280  1.0000
  C   C2992     1.0  0.14778  0.66737  0.62518  1.0000
  C   C2993     1.0  0.15269  0.68348  0.62423  1.0000
  C   C2994     1.0  0.17074  0.68415  0.62105  1.0000
  C   C2995     1.0  0.18373  0.66865  0.61916  1.0000
  C   C2996     1.0  0.17886  0.65266  0.62006  1.0000
  H   H2380     1.0  0.13383  0.66693  0.62752  1.0000
  H   H2381     1.0  0.14254  0.69536  0.62582  1.0000
  H   H2382     1.0  0.42108  0.51795  0.60716  1.0000
  H   H2383     1.0  0.18904  0.64074  0.61926  1.0000
  C   C2997     1.0  0.10794  0.86383  0.67761  1.0000
  C   C2998     1.0  0.38324  0.56721  0.73668  1.0000
  C   C2999     1.0  0.43452  0.73225  0.72886  1.0000
  C   C3000     1.0  0.46196  0.66388  0.75478  1.0000
  H   H2384     1.0  0.13291  0.64021  0.59813  1.0000
  C   C3001     1.0  0.21224  0.90725  0.77546  1.0000
  C   C3002     1.0  0.28078  0.72748  0.67860  1.0000
  H   H2385     1.0  0.15566  0.97213  0.70857  1.0000
  H   H2386     1.0  0.21086  0.93872  0.58394  1.0000
  C   C3003     1.0  0.37442  0.54421  0.61102  1.0000
  C   C3004     1.0  0.26012  0.80756  0.74412  1.0000
  C   C3005     1.0  0.27863  0.80294  0.74317  1.0000
  C   C3006     1.0  0.28595  0.80546  0.75648  1.0000
  H   H2387     1.0  0.44546  0.61111  0.74292  1.0000
  H   H2388     1.0  0.14200  0.97850  0.74354  1.0000
  H   H2389     1.0  0.28734  0.79751  0.73204  1.0000
  C   C3007     1.0  0.44625  0.70262  0.72250  1.0000
  C   C3008     1.0  0.39022  0.61437  0.64193  1.0000
  S   S421      1.0  0.08193  0.86264  0.57978  1.0000
  H   H2390     1.0  0.47280  0.65406  0.74931  1.0000
  H   H2391     1.0  0.13246  0.82273  0.69156  1.0000
  H   H2392     1.0  0.27688  0.73619  0.68807  1.0000
  C   C3009     1.0  0.44913  0.49033  0.72952  1.0000
  H   H2393     1.0  0.04459  0.86941  0.64061  1.0000
  C   C3010     1.0  0.40634  0.79980  0.71829  1.0000
  C   C3011     1.0  0.18721  0.97695  0.60727  1.0000
  C   C3012     1.0  0.10602  0.97516  0.76653  1.0000
  H   H2394     1.0  0.00277  0.66381  0.65364  1.0000
  C   C3013     1.0  0.30058  0.48321  0.62475  1.0000
  H   H2395     1.0  0.30321  0.65376  0.60221  1.0000
  C   C3014     1.0  0.08974  0.79854  0.71549  1.0000
  H   H2396     1.0  0.23263  0.61665  0.60706  1.0000
  C   C3015     1.0  0.19646  0.96681  0.68094  1.0000
  H   H2397     1.0  0.99032  0.73597  0.62228  1.0000
  C   C3016     1.0  0.36998  0.63792  0.69007  1.0000
  C   C3017     1.0  0.36437  0.63964  0.67423  1.0000
  C   C3018     1.0  0.35603  0.62683  0.67228  1.0000
  C   C3019     1.0  0.35312  0.61237  0.68624  1.0000
  C   C3020     1.0  0.35813  0.61104  0.70229  1.0000
  C   C3021     1.0  0.36658  0.62373  0.70420  1.0000
  H   H2398     1.0  0.36685  0.65068  0.66334  1.0000
  H   H2399     1.0  0.35217  0.62790  0.65990  1.0000
  H   H2400     1.0  0.35575  0.59995  0.71321  1.0000
  H   H2401     1.0  0.37074  0.62233  0.71650  1.0000
  H   H2402     1.0  0.32234  0.49331  0.58621  1.0000
  H   H2403     1.0  0.42748  0.56193  0.76431  1.0000
  C   C3022     1.0  0.39799  0.62754  0.64367  1.0000
  C   C3023     1.0  0.13263  0.64725  0.58454  1.0000
  H   H2404     1.0  0.31565  0.85060  0.76536  1.0000
  Fe  Fe210     1.0  0.00814  0.68254  0.58993  1.0000
  C   C3024     1.0  0.39451  0.49174  0.61694  1.0000
  C   C3025     1.0  0.28647  0.62999  0.67592  1.0000
  H   H2405     1.0  0.25122  0.54029  0.61296  1.0000
  H   H2406     1.0  0.28201  0.84848  0.74933  1.0000
  C   C3026     1.0  0.44448  0.66479  0.75330  1.0000
  C   C3027     1.0  0.43054  0.67763  0.76027  1.0000
  H   H2407     1.0  0.30621  0.88009  0.74641  1.0000
  C   C3028     1.0  0.09801  0.69157  0.60977  1.0000
  H   H2408     1.0  0.41703  0.67848  0.75909  1.0000
  C   C3029     1.0  0.39205  0.54636  0.60527  1.0000
  C   C3030     1.0  0.21965  0.73651  0.60987  1.0000
  C   C3031     1.0  0.15398  0.88689  0.62146  1.0000
  C   C3032     1.0  0.44834  0.71710  0.72811  1.0000
  C   C3033     1.0  0.44069  0.57319  0.61194  1.0000
  H   H2409     1.0  0.37960  0.70164  0.74741  1.0000
  H   H2410     1.0  0.29103  0.50374  0.58255  1.0000
  H   H2411     1.0  0.35480  0.48918  0.59839  1.0000
  C   C3034     1.0  0.40035  0.54780  0.58719  1.0000
  C   C3035     1.0  0.46078  0.75038  0.73265  1.0000
  C   C3036     1.0  0.42712  0.58815  0.61431  1.0000
  C   C3037     1.0  0.47527  0.79768  0.74801  1.0000
  C   C3038     1.0  0.02491  0.77350  0.59898  1.0000
  C   C3039     1.0  0.44634  0.80363  0.74008  1.0000
  C   C3040     1.0  0.45470  0.80338  0.72232  1.0000
  H   H2412     1.0  0.45187  0.57017  0.61846  1.0000
  C   C3041     1.0  0.48358  0.79793  0.73006  1.0000
  C   C3042     1.0  0.18477  0.90863  0.60586  1.0000
  H   H2413     1.0  0.13899  0.68748  0.59184  1.0000
  H   H2414     1.0  0.11989  0.71796  0.58818  1.0000
  C   C3043     1.0  0.09502  0.81332  0.70323  1.0000
  H   H2415     1.0  0.19995  0.91917  0.74506  1.0000
  H   H2416     1.0  0.00316  0.85468  0.59470  1.0000
  S   S422      1.0  0.39254  0.64518  0.76781  1.0000
  C   C3044     1.0  0.42957  0.77198  0.70327  1.0000
  H   H2417     1.0  0.44200  0.76833  0.76197  1.0000
  H   H2418     1.0  0.32549  0.48320  0.76765  1.0000
  C   C3045     1.0  0.22474  0.67338  0.58761  1.0000
  H   H2419     1.0  0.35109  0.54206  0.60334  1.0000
  H   H2420     1.0  0.42836  0.69122  0.71466  1.0000
  H   H2421     1.0  0.23599  0.64558  0.58783  1.0000
  C   C3046     1.0  0.25760  0.73264  0.74300  1.0000
  H   H2422     1.0  0.01581  0.75196  0.61914  1.0000
  C   C3047     1.0  0.45656  0.80086  0.75287  1.0000
  C   C3048     1.0  0.34061  0.71727  0.77408  1.0000
  C   C3049     1.0  0.16990  0.85036  0.77498  1.0000
  C   C3050     1.0  0.36747  0.48092  0.62118  1.0000
  C   C3051     1.0  0.33742  0.48244  0.77231  1.0000
  S   S423      1.0  0.16860  0.78964  0.58715  1.0000
  H   H2423     1.0  0.45687  0.69088  0.72212  1.0000
  H   H2424     1.0  0.14311  0.84021  0.70686  1.0000
  C   C3052     1.0  0.09461  0.69600  0.59255  1.0000
  H   H2425     1.0  0.20500  0.95806  0.67231  1.0000
  S   S424      1.0  0.36761  0.61246  0.59499  1.0000
  C   C3053     1.0  0.28840  0.64729  0.58635  1.0000
  H   H2426     1.0  0.10415  0.90197  0.74960  1.0000
  C   C3054     1.0  0.47068  0.75759  0.71614  1.0000
  C   C3055     1.0  0.46358  0.49815  0.59102  1.0000
  H   H2427     1.0  0.35155  0.65274  0.62461  1.0000
  H   H2428     1.0  0.10872  0.88778  0.68500  1.0000
  C   C3056     1.0  0.11538  0.94622  0.61199  1.0000
  Fe  Fe211     1.0  0.19414  0.78803  0.76309  1.0000
  H   H2429     1.0  0.47903  0.67484  0.76432  1.0000
  C   C3057     1.0  0.31009  0.56324  0.59623  1.0000
  H   H2430     1.0  0.28182  0.61865  0.67496  1.0000
  C   C3058     1.0  0.44846  0.48290  0.76627  1.0000
  C   C3059     1.0  0.12275  0.56281  0.59113  1.0000
  C   C3060     1.0  0.42620  0.75143  0.75868  1.0000
  H   H2431     1.0  0.46065  0.71623  0.73209  1.0000
  C   C3061     1.0  0.35895  0.73955  0.76308  1.0000
  H   H2432     1.0  0.10398  0.70011  0.61410  1.0000
  H   H2433     1.0  0.18513  0.72612  0.58450  1.0000
  H   H2434     1.0  0.41860  0.53740  0.74658  1.0000
  C   C3062     1.0  0.00264  0.84418  0.58854  1.0000
  H   H2435     1.0  0.26879  0.56812  0.62346  1.0000
  S   S425      1.0  0.23776  0.57873  0.60833  1.0000
  H   H2436     1.0  0.30625  0.55992  0.61065  1.0000
  H   H2437     1.0  0.24584  0.76843  0.76104  1.0000
  H   H2438     1.0  0.48480  0.54383  0.67359  1.0000
  C   C3063     1.0  0.35368  0.70547  0.76473  1.0000
  C   C3064     1.0  0.11375  0.87354  0.68656  1.0000
  C   C3065     1.0  0.48836  0.73825  0.74361  1.0000
  C   C3066     1.0  0.22508  0.71832  0.60995  1.0000
  C   C3067     1.0  0.31979  0.55005  0.58673  1.0000
  C   C3068     1.0  0.19911  0.91179  0.73576  1.0000
  H   H2439     1.0  0.43190  0.80607  0.74399  1.0000
  C   C3069     1.0  0.41483  0.78493  0.72915  1.0000
  Fe  Fe212     1.0  0.17459  0.61358  0.60674  1.0000
  C   C3070     1.0  0.27480  0.81284  0.77069  1.0000
  H   H2440     1.0  0.19288  0.93562  0.71622  1.0000
  H   H2441     1.0  0.14182  0.93413  0.61633  1.0000
  C   C3071     1.0  0.15472  0.89056  0.58350  1.0000
  H   H2442     1.0  0.45706  0.51451  0.72886  1.0000
  C   C3072     1.0  0.41031  0.51341  0.74747  1.0000
  P   P103      1.0  0.15348  0.90255  0.60046  1.0000
  H   H2443     1.0  0.07465  0.66260  0.59483  1.0000
  C   C3073     1.0  0.23067  0.53672  0.60187  1.0000
  C   C3074     1.0  0.30077  0.87767  0.76062  1.0000
  C   C3075     1.0  0.27570  0.73346  0.66213  1.0000
  C   C3076     1.0  0.04663  0.78603  0.60569  1.0000
  C   C3077     1.0  0.04584  0.77418  0.62216  1.0000
  C   C3078     1.0  0.03464  0.76200  0.62704  1.0000
  H   H2444     1.0  0.08916  0.95538  0.60589  1.0000
  H   H2445     1.0  0.40015  0.58380  0.58940  1.0000
  C   C3079     1.0  0.16918  0.97883  0.60686  1.0000
  H   H2446     1.0  0.06801  0.61690  0.58786  1.0000
  C   C3080     1.0  0.41848  0.73248  0.72429  1.0000
  H   H2447     1.0  0.05524  0.79549  0.60232  1.0000
  H   H2448     1.0  0.16756  0.86390  0.60965  1.0000
  C   C3081     1.0  0.25115  0.76744  0.77258  1.0000
  C   C3082     1.0  0.37301  0.54480  0.58081  1.0000
  H   H2449     1.0  0.44985  0.80120  0.76660  1.0000
  H   H2450     1.0  0.14708  0.96222  0.77341  1.0000
  H   H2451     1.0  0.06819  0.84865  0.62434  1.0000
  H   H2452     1.0  0.16767  0.93194  0.76353  1.0000
  C   C3083     1.0  0.16325  0.85691  0.63807  1.0000
  C   C3084     1.0  0.40920  0.62357  0.65576  1.0000
  H   H2453     1.0  0.28362  0.90363  0.75992  1.0000
  H   H2454     1.0  0.44285  0.48981  0.61272  1.0000
  C   C3085     1.0  0.39373  0.59719  0.65220  1.0000
  H   H2455     1.0  0.03442  0.75249  0.63959  1.0000
  H   H2456     1.0  0.08509  0.77219  0.71899  1.0000
  C   C3086     1.0  0.12708  0.83691  0.69015  1.0000
  H   H2457     1.0  0.39475  0.64100  0.63618  1.0000
  C   C3087     1.0  0.30023  0.62743  0.68489  1.0000
  C   C3088     1.0  0.29949  0.65924  0.67716  1.0000
  C   C3089     1.0  0.30681  0.64194  0.68541  1.0000
  P   P104      1.0  0.31040  0.67718  0.67536  1.0000
  C   C3090     1.0  0.32925  0.67660  0.65675  1.0000
  C   C3091     1.0  0.29616  0.69897  0.67064  1.0000
  C   C3092     1.0  0.29094  0.71033  0.68288  1.0000
  C   C3093     1.0  0.33908  0.69011  0.65162  1.0000
  C   C3094     1.0  0.35352  0.68994  0.63709  1.0000
  C   C3095     1.0  0.35804  0.67647  0.62737  1.0000
  C   C3096     1.0  0.34809  0.66321  0.63213  1.0000
  C   C3097     1.0  0.33371  0.66329  0.64672  1.0000
  C   C3098     1.0  0.31684  0.67439  0.69634  1.0000
  C   C3099     1.0  0.30413  0.67182  0.71232  1.0000
  C   C3100     1.0  0.30836  0.67111  0.72859  1.0000
  C   C3101     1.0  0.32534  0.67279  0.72903  1.0000
  C   C3102     1.0  0.33818  0.67485  0.71327  1.0000
  C   C3103     1.0  0.33404  0.67551  0.69699  1.0000
  H   H2458     1.0  0.30620  0.61408  0.69098  1.0000
  H   H2459     1.0  0.31806  0.63951  0.69175  1.0000
  H   H2460     1.0  0.29486  0.70625  0.69563  1.0000
  H   H2461     1.0  0.33568  0.70068  0.65898  1.0000
  H   H2462     1.0  0.36124  0.70023  0.63340  1.0000
  H   H2463     1.0  0.36925  0.67631  0.61614  1.0000
  H   H2464     1.0  0.29088  0.67063  0.71215  1.0000
  H   H2465     1.0  0.29851  0.66923  0.74086  1.0000
  H   H2466     1.0  0.32868  0.67228  0.74161  1.0000
  H   H2467     1.0  0.35150  0.67573  0.71365  1.0000
  H   H2468     1.0  0.34441  0.67674  0.68512  1.0000
  C   C3104     1.0  0.25805  0.76251  0.71517  1.0000
  C   C3105     1.0  0.17289  0.92834  0.58087  1.0000
  H   H2469     1.0  0.47405  0.62059  0.76732  1.0000
  H   H2470     1.0  0.47312  0.48579  0.59373  1.0000
  C   C3106     1.0  0.26817  0.74473  0.74199  1.0000
  C   C3107     1.0  0.26833  0.75966  0.72795  1.0000
  C   C3108     1.0  0.30348  0.64549  0.59320  1.0000
  H   H2471     1.0  0.45648  0.50788  0.76144  1.0000
  H   H2472     1.0  0.15774  0.65493  0.58035  1.0000
  H   H2473     1.0  0.38098  0.61757  0.63304  1.0000
  C   C3109     1.0  0.43114  0.76147  0.76809  1.0000
  C   C3110     1.0  0.41319  0.52617  0.75505  1.0000
  H   H2474     1.0  0.27521  0.53451  0.58705  1.0000
  C   C3111     1.0  0.30155  0.74822  0.74829  1.0000
  C   C3112     1.0  0.31225  0.74024  0.73417  1.0000
  C   C3113     1.0  0.32881  0.74459  0.72563  1.0000
  C   C3114     1.0  0.33457  0.75733  0.73079  1.0000
  C   C3115     1.0  0.32374  0.76577  0.74439  1.0000
  C   C3116     1.0  0.30734  0.76120  0.75317  1.0000
  C   C3117     1.0  0.46980  0.74087  0.74640  1.0000
  H   H2475     1.0  0.27646  0.65698  0.59007  1.0000
  H   H2476     1.0  0.09618  0.59449  0.58765  1.0000
  C   C3118     1.0  0.40927  0.52429  0.77354  1.0000
  H   H2477     1.0  0.27582  0.76953  0.72726  1.0000
  H   H2478     1.0  0.40178  0.48892  0.75217  1.0000
  H   H2479     1.0  0.23064  0.67367  0.59838  1.0000
  H   H2480     1.0  0.29931  0.76793  0.76367  1.0000
  C   C3119     1.0  0.15693  0.86298  0.65400  1.0000
  H   H2481     1.0  0.30788  0.73046  0.72993  1.0000
  H   H2482     1.0  0.33726  0.73799  0.71514  1.0000
  H   H2483     1.0  0.34753  0.76052  0.72447  1.0000
  C   C3120     1.0  0.19621  0.86262  0.77009  1.0000
  C   C3121     1.0  0.24735  0.73551  0.73016  1.0000
  H   H2484     1.0  0.09870  0.87085  0.66898  1.0000
  C   C3122     1.0  0.08890  0.78376  0.70952  1.0000
  C   C3123     1.0  0.09308  0.78388  0.69129  1.0000
  C   C3124     1.0  0.09843  0.79859  0.67902  1.0000
  C   C3125     1.0  0.09989  0.81323  0.68493  1.0000
  S   S426      1.0  0.36359  0.49613  0.70848  1.0000
  P   P105      1.0  0.10631  0.83234  0.66894  1.0000
  C   C3126     1.0  0.11420  0.84536  0.67970  1.0000
  C   C3127     1.0  0.12496  0.82572  0.65166  1.0000
  C   C3128     1.0  0.13656  0.80911  0.65471  1.0000
  C   C3129     1.0  0.15051  0.80374  0.64104  1.0000
  C   C3130     1.0  0.15315  0.81504  0.62432  1.0000
  C   C3131     1.0  0.14205  0.83186  0.62137  1.0000
  C   C3132     1.0  0.12818  0.83731  0.63507  1.0000
  C   C3133     1.0  0.08660  0.84390  0.66010  1.0000
  C   C3134     1.0  0.08449  0.84113  0.64405  1.0000
  C   C3135     1.0  0.06931  0.85021  0.63715  1.0000
  C   C3136     1.0  0.05760  0.86409  0.66272  1.0000
  C   C3137     1.0  0.07267  0.85486  0.66976  1.0000
  H   H2485     1.0  0.05658  0.73296  0.58357  1.0000
  H   H2486     1.0  0.09269  0.77236  0.68661  1.0000
  H   H2487     1.0  0.10181  0.79835  0.66493  1.0000
  H   H2488     1.0  0.13475  0.80018  0.66755  1.0000
  H   H2489     1.0  0.15907  0.79066  0.64339  1.0000
  H   H2490     1.0  0.16373  0.81074  0.61361  1.0000
  H   H2491     1.0  0.14404  0.84057  0.60838  1.0000
  H   H2492     1.0  0.11976  0.85043  0.63262  1.0000
  H   H2493     1.0  0.29583  0.69709  0.64400  1.0000
  H   H2494     1.0  0.07358  0.85654  0.68258  1.0000
  P   P106      1.0  0.41026  0.57054  0.67716  1.0000
  C   C3138     1.0  0.40341  0.55558  0.66780  1.0000
  C   C3139     1.0  0.38535  0.55466  0.67142  1.0000
  C   C3140     1.0  0.38001  0.54303  0.66432  1.0000
  C   C3141     1.0  0.39255  0.53236  0.65344  1.0000
  C   C3142     1.0  0.41051  0.53340  0.64951  1.0000
  C   C3143     1.0  0.41595  0.54500  0.65661  1.0000
  C   C3144     1.0  0.39751  0.58352  0.70872  1.0000
  C   C3145     1.0  0.38969  0.58233  0.72681  1.0000
  C   C3146     1.0  0.43392  0.56285  0.67645  1.0000
  H   H2495     1.0  0.20858  0.91369  0.61012  1.0000
  C   C3147     1.0  0.44643  0.57103  0.66301  1.0000
  H   H2496     1.0  0.37534  0.56297  0.67969  1.0000
  H   H2497     1.0  0.36607  0.54236  0.66731  1.0000
  C   C3148     1.0  0.15550  0.97138  0.76538  1.0000
  H   H2498     1.0  0.42025  0.52493  0.64128  1.0000
  H   H2499     1.0  0.42994  0.54549  0.65346  1.0000
  H   H2500     1.0  0.40203  0.59555  0.70145  1.0000
  H   H2501     1.0  0.38833  0.59331  0.73312  1.0000
  C   C3149     1.0  0.02266  0.62895  0.58227  1.0000
  H   H2502     1.0  0.44215  0.58240  0.65305  1.0000
  C   C3150     1.0  0.16989  0.71097  0.70347  1.0000
  C   C3151     1.0  0.15538  0.71773  0.69507  1.0000
  C   C3152     1.0  0.15751  0.71727  0.67717  1.0000
  C   C3153     1.0  0.17421  0.71045  0.66751  1.0000
  C   C3154     1.0  0.18893  0.70378  0.67577  1.0000
  C   C3155     1.0  0.18657  0.70383  0.69395  1.0000
  P   P107      1.0  0.21067  0.69573  0.66295  1.0000
  C   C3156     1.0  0.21225  0.67405  0.65860  1.0000
  C   C3157     1.0  0.21423  0.71159  0.64207  1.0000
  C   C3158     1.0  0.22237  0.70589  0.62596  1.0000
  H   H2503     1.0  0.23477  0.81866  0.75920  1.0000
  C   C3159     1.0  0.15437  0.55999  0.57807  1.0000
  C   C3160     1.0  0.21135  0.74230  0.62576  1.0000
  C   C3161     1.0  0.20853  0.72991  0.64175  1.0000
  C   C3162     1.0  0.22909  0.66350  0.65323  1.0000
  C   C3163     1.0  0.23052  0.64667  0.65000  1.0000
  C   C3164     1.0  0.21515  0.64043  0.65155  1.0000
  C   C3165     1.0  0.19834  0.65096  0.65656  1.0000
  C   C3166     1.0  0.19686  0.66772  0.66005  1.0000
  C   C3167     1.0  0.22710  0.69502  0.67546  1.0000
  C   C3168     1.0  0.23498  0.67883  0.68537  1.0000
  C   C3169     1.0  0.24676  0.67854  0.69592  1.0000
  C   C3170     1.0  0.25029  0.69443  0.69720  1.0000
  C   C3171     1.0  0.24206  0.71062  0.68790  1.0000
  C   C3172     1.0  0.23065  0.71092  0.67699  1.0000
  H   H2504     1.0  0.16825  0.71159  0.71729  1.0000
  H   H2505     1.0  0.14255  0.72375  0.70224  1.0000
  H   H2506     1.0  0.14627  0.72277  0.67068  1.0000
  H   H2507     1.0  0.17569  0.71063  0.65353  1.0000
  H   H2508     1.0  0.19758  0.69874  0.70078  1.0000
  H   H2509     1.0  0.22630  0.69192  0.62557  1.0000
  H   H2510     1.0  0.38404  0.73179  0.74577  1.0000
  H   H2511     1.0  0.11173  0.56539  0.60209  1.0000
  H   H2512     1.0  0.20664  0.75640  0.62564  1.0000
  H   H2513     1.0  0.20163  0.73466  0.65382  1.0000
  H   H2514     1.0  0.24112  0.66832  0.65150  1.0000
  H   H2515     1.0  0.24356  0.63847  0.64624  1.0000
  H   H2516     1.0  0.21627  0.62750  0.64870  1.0000
  H   H2517     1.0  0.18639  0.64627  0.65740  1.0000
  H   H2518     1.0  0.18367  0.67571  0.66356  1.0000
  H   H2519     1.0  0.23174  0.66642  0.68540  1.0000
  H   H2520     1.0  0.25285  0.66598  0.70341  1.0000
  H   H2521     1.0  0.25908  0.69426  0.70569  1.0000
  H   H2522     1.0  0.24418  0.72303  0.68941  1.0000
  H   H2523     1.0  0.22414  0.72367  0.67033  1.0000
  C   C3173     1.0  0.14934  0.88095  0.65370  1.0000
  H   H2524     1.0  0.03934  0.60742  0.59698  1.0000
  C   C3174     1.0  0.30618  0.86111  0.77127  1.0000
  H   H2525     1.0  0.09531  0.82474  0.70810  1.0000
  S   S427      1.0  0.35000  0.68428  0.76608  1.0000
  H   H2526     1.0  0.45040  0.55050  0.59966  1.0000
  H   H2527     1.0  0.08637  0.79851  0.72961  1.0000
  H   H2528     1.0  0.26774  0.74674  0.65889  1.0000
  C   C3175     1.0  0.26191  0.53314  0.58728  1.0000
  S   S428      1.0  0.03408  0.67552  0.59872  1.0000
  H   H2529     1.0  0.42153  0.59386  0.75046  1.0000
  C   C3176     1.0  0.38478  0.55314  0.72850  1.0000
  C   C3177     1.0  0.24172  0.86992  0.76934  1.0000
  C   C3178     1.0  0.43468  0.58737  0.75308  1.0000
  H   H2530     1.0  0.39434  0.54285  0.70459  1.0000
  H   H2531     1.0  0.37968  0.54144  0.73612  1.0000
  H   H2532     1.0  0.05422  0.77422  0.63099  1.0000
  C   C3179     1.0  0.15739  0.92418  0.76762  1.0000
  H   H2533     1.0  0.08071  0.74970  0.57741  1.0000
  C   C3180     1.0  0.10888  0.87765  0.74054  1.0000
  H   H2534     1.0  0.32827  0.77557  0.74846  1.0000
  C   C3181     1.0  0.28100  0.72238  0.64980  1.0000
  C   C3182     1.0  0.41296  0.60632  0.66585  1.0000
  C   C3183     1.0  0.10342  0.93198  0.59558  1.0000
  H   H2535     1.0  0.17366  0.87497  0.75718  1.0000
  C   C3184     1.0  0.27904  0.64713  0.66776  1.0000
  C   C3185     1.0  0.19689  0.89361  0.71092  1.0000
  C   C3186     1.0  0.11403  0.87916  0.76896  1.0000
  H   H2536     1.0  0.40256  0.50803  0.59116  1.0000
  C   C3187     1.0  0.23998  0.86414  0.74141  1.0000
  C   C3188     1.0  0.13990  0.56415  0.59176  1.0000
  H   H2537     1.0  0.14227  0.90675  0.63777  1.0000
  H   H2538     1.0  0.43811  0.76107  0.69732  1.0000
  C   C3189     1.0  0.43412  0.51639  0.59846  1.0000
  H   H2539     1.0  0.10482  0.88431  0.72804  1.0000
  H   H2540     1.0  0.02997  0.83145  0.58884  1.0000
  C   C3190     1.0  0.48482  0.81598  0.76989  1.0000
  C   C3191     1.0  0.30548  0.58083  0.58718  1.0000
  H   H2541     1.0  0.23109  0.71385  0.59756  1.0000
  C   C3192     1.0  0.19874  0.91765  0.60182  1.0000
  C   C3193     1.0  0.19398  0.91214  0.70687  1.0000
  C   C3194     1.0  0.40533  0.59292  0.66412  1.0000
  C   C3195     1.0  0.15274  0.91771  0.75504  1.0000
  H   H2542     1.0  0.41355  0.51470  0.73312  1.0000
  H   H2543     1.0  0.47531  0.59631  0.74894  1.0000
  H   H2544     1.0  0.17547  0.95205  0.68923  1.0000
  H   H2545     1.0  0.19043  0.75427  0.58735  1.0000
  H   H2546     1.0  0.28357  0.50940  0.62285  1.0000
  C   C3196     1.0  0.43981  0.56207  0.60123  1.0000
  C   C3197     1.0  0.28544  0.66174  0.66841  1.0000
  C   C3198     1.0  0.20039  0.88415  0.72751  1.0000
  H   H2547     1.0  0.18412  0.89772  0.61729  1.0000
  H   H2548     1.0  0.08452  0.97118  0.72931  1.0000
  C   C3199     1.0  0.16020  0.96525  0.61709  1.0000
  C   C3200     1.0  0.16887  0.95058  0.62805  1.0000
  C   C3201     1.0  0.18650  0.94930  0.62897  1.0000
  C   C3202     1.0  0.19572  0.96243  0.61848  1.0000
  C   C3203     1.0  0.37192  0.72778  0.75362  1.0000
  C   C3204     1.0  0.25816  0.85628  0.73860  1.0000
  H   H2549     1.0  0.48390  0.54725  0.73548  1.0000
  Fe  Fe213     1.0  0.21216  0.59189  0.59849  1.0000
  H   H2550     1.0  0.14208  0.56770  0.60318  1.0000
  C   C3205     1.0  0.13758  0.81434  0.58178  1.0000
  C   C3206     1.0  0.26811  0.85527  0.75111  1.0000
  H   H2551     1.0  0.25756  0.77459  0.70495  1.0000
  H   H2552     1.0  0.41456  0.63400  0.65771  1.0000
  C   C3207     1.0  0.13306  0.91933  0.60198  1.0000
  H   H2553     1.0  0.25015  0.63366  0.61573  1.0000
  C   C3208     1.0  0.10149  0.94554  0.60454  1.0000
  H   H2554     1.0  0.14661  0.96572  0.61662  1.0000
  H   H2555     1.0  0.16195  0.94013  0.63591  1.0000
  H   H2556     1.0  0.19297  0.93801  0.63771  1.0000
  H   H2557     1.0  0.10754  0.64134  0.58469  1.0000
  C   C3209     1.0  0.08628  0.68540  0.58729  1.0000
  C   C3210     1.0  0.24898  0.81474  0.75847  1.0000
  H   H2558     1.0  0.19764  0.66892  0.61736  1.0000
  H   H2559     1.0  0.07305  0.95152  0.77447  1.0000
  C   C3211     1.0  0.30898  0.50916  0.62806  1.0000
  C   C3212     1.0  0.20169  0.89314  0.74005  1.0000
  H   H2560     1.0  0.26869  0.64891  0.66047  1.0000
  H   H2561     1.0  0.23252  0.86409  0.73183  1.0000
  Fe  Fe214     1.0  0.03209  0.70486  0.59447  1.0000
  C   C3213     1.0  0.03243  0.61157  0.58602  1.0000
  H   H2562     1.0  0.09467  0.83226  0.63660  1.0000
  C   C3214     1.0  0.13311  0.84672  0.69885  1.0000
  S   S429      1.0  0.41289  0.49366  0.68114  1.0000
  C   C3215     1.0  0.22764  0.65752  0.58181  1.0000
  C   C3216     1.0  0.14401  0.87797  0.58713  1.0000
  H   H2563     1.0  0.13623  0.85906  0.57712  1.0000
  H   H2564     1.0  0.26433  0.85024  0.72711  1.0000
  P   P108      1.0  0.20791  0.88062  0.76080  1.0000
  S   S430      1.0  0.20074  0.62109  0.59285  1.0000
  C   C3217     1.0  0.34544  0.49716  0.76755  1.0000
  H   H2565     1.0  0.33149  0.48498  0.66458  1.0000
  H   H2566     1.0  0.32628  0.65281  0.65013  1.0000
  S   S431      1.0  0.06269  0.90443  0.58043  1.0000
  H   H2567     1.0  0.19077  0.91934  0.69411  1.0000
  H   H2568     1.0  0.27960  0.67478  0.66176  1.0000
  H   H2569     1.0  0.13564  0.90355  0.75013  1.0000
  Fe  Fe215     1.0  0.18207  0.58243  0.58777  1.0000
  H   H2570     1.0  0.20948  0.96136  0.61901  1.0000
  C   C3218     1.0  0.43802  0.56932  0.76094  1.0000
  H   H2571     1.0  0.14472  0.88579  0.66599  1.0000
  H   H2572     1.0  0.30583  0.52320  0.62846  1.0000
  H   H2573     1.0  0.23880  0.75325  0.70695  1.0000
  C   C3219     1.0  0.17977  0.96348  0.69041  1.0000
  H   H2574     1.0  0.27720  0.72710  0.63695  1.0000
  C   C3220     1.0  0.29138  0.70530  0.65393  1.0000
  H   H2575     1.0  0.11377  0.95663  0.61908  1.0000
  C   C3221     1.0  0.14797  0.89289  0.63755  1.0000
  C   C3222     1.0  0.45827  0.54076  0.68754  1.0000
  S   S432      1.0  0.36296  0.76051  0.76230  1.0000
  C   C3223     1.0  0.07663  0.61639  0.59665  1.0000
  C   C3224     1.0  0.09267  0.60391  0.59636  1.0000
  C   C3225     1.0  0.10424  0.60383  0.60702  1.0000
  C   C3226     1.0  0.09972  0.61616  0.61806  1.0000
  C   C3227     1.0  0.08349  0.62866  0.61859  1.0000
  C   C3228     1.0  0.07202  0.62866  0.60771  1.0000
  P   P109      1.0  0.07830  0.64596  0.63126  1.0000
  C   C3229     1.0  0.05447  0.65138  0.63938  1.0000
  C   C3230     1.0  0.08956  0.63882  0.64979  1.0000
  C   C3231     1.0  0.08010  0.63399  0.66729  1.0000
  C   C3232     1.0  0.08891  0.62868  0.68156  1.0000
  C   C3233     1.0  0.10721  0.62814  0.67846  1.0000
  C   C3234     1.0  0.11671  0.63288  0.66111  1.0000
  C   C3235     1.0  0.10795  0.63817  0.64683  1.0000
  C   C3236     1.0  0.04586  0.66897  0.64052  1.0000
  C   C3237     1.0  0.02728  0.67339  0.64577  1.0000
  C   C3238     1.0  0.01720  0.66026  0.65006  1.0000
  C   C3239     1.0  0.02573  0.64262  0.64947  1.0000
  C   C3240     1.0  0.04432  0.63814  0.64427  1.0000
  C   C3241     1.0  0.08508  0.66548  0.61627  1.0000
  C   C3242     1.0  0.08142  0.67033  0.59912  1.0000
  C   C3243     1.0  0.12639  0.86502  0.69709  1.0000
  H   H2576     1.0  0.46279  0.52871  0.69673  1.0000
  H   H2577     1.0  0.46254  0.73501  0.75916  1.0000
  C   C3244     1.0  0.09311  0.67645  0.62168  1.0000
  C   C3245     1.0  0.13350  0.71559  0.58084  1.0000
  C   C3246     1.0  0.10856  0.88762  0.75280  1.0000
  H   H2578     1.0  0.11686  0.59437  0.60656  1.0000
  H   H2579     1.0  0.10910  0.61596  0.62590  1.0000
  H   H2580     1.0  0.05970  0.63850  0.60731  1.0000
  H   H2581     1.0  0.06593  0.63435  0.67001  1.0000
  H   H2582     1.0  0.08155  0.62502  0.69502  1.0000
  H   H2583     1.0  0.11405  0.62404  0.68949  1.0000
  H   H2584     1.0  0.13092  0.63244  0.65864  1.0000
  H   H2585     1.0  0.11556  0.64177  0.63345  1.0000
  H   H2586     1.0  0.05337  0.67943  0.63689  1.0000
  H   H2587     1.0  0.02072  0.68713  0.64600  1.0000
  C   C3247     1.0  0.40952  0.80082  0.69994  1.0000
  H   H2588     1.0  0.01788  0.63248  0.65272  1.0000
  H   H2589     1.0  0.05073  0.62443  0.64374  1.0000
  H   H2590     1.0  0.33024  0.63090  0.59455  1.0000
  C   C3248     1.0  0.13118  0.93331  0.61056  1.0000
  H   H2591     1.0  0.19630  0.88651  0.70124  1.0000
  H   H2592     1.0  0.15732  0.85095  0.77166  1.0000
  H   H2593     1.0  0.09529  0.67363  0.63511  1.0000
  C   C3249     1.0  0.19511  0.92124  0.71930  1.0000
  C   C3250     1.0  0.11301  0.96089  0.75768  1.0000
  C   C3251     1.0  0.39278  0.50053  0.59960  1.0000
  H   H2594     1.0  0.37343  0.49214  0.67171  1.0000
  H   H2595     1.0  0.37698  0.50651  0.57969  1.0000
  H   H2596     1.0  0.38836  0.52317  0.64819  1.0000
  H   H2597     1.0  0.22156  0.74615  0.59746  1.0000
  H   H2598     1.0  0.45704  0.54692  0.77098  1.0000
  S   S433      1.0  0.44748  0.49586  0.70698  1.0000
  C   C3252     1.0  0.25984  0.86191  0.76654  1.0000
  C   C3253     1.0  0.45166  0.68866  0.77001  1.0000
  H   H2599     1.0  0.47035  0.76475  0.76947  1.0000
  S   S434      1.0  0.38171  0.59798  0.76954  1.0000
  C   C3254     1.0  0.45479  0.56089  0.76475  1.0000
  C   C3255     1.0  0.45349  0.49848  0.75550  1.0000
  C   C3256     1.0  0.36939  0.71071  0.75455  1.0000
  H   H2600     1.0  0.47978  0.80072  0.70347  1.0000
  C   C3257     1.0  0.11467  0.85917  0.74430  1.0000
  C   C3258     1.0  0.13931  0.90789  0.76025  1.0000
  C   C3259     1.0  0.44648  0.50042  0.60175  1.0000
  C   C3260     1.0  0.12009  0.85067  0.76033  1.0000
  H   H2601     1.0  0.23866  0.72658  0.73137  1.0000
  C   C3261     1.0  0.36485  0.54352  0.59881  1.0000
  H   H2602     1.0  0.12501  0.83638  0.76299  1.0000
  C   C3262     1.0  0.17178  0.91384  0.59531  1.0000
  H   H2603     1.0  0.40272  0.81226  0.69159  1.0000
  C   C3263     1.0  0.46473  0.56432  0.66212  1.0000
  H   H2604     1.0  0.11520  0.85141  0.73474  1.0000
  H   H2605     1.0  0.11997  0.90840  0.58772  1.0000
  H   H2606     1.0  0.01670  0.77309  0.59017  1.0000
  H   H2607     1.0  0.25545  0.97853  0.76339  1.0000
  H   H2608     1.0  0.39908  0.54720  0.61493  1.0000
  H   H2609     1.0  0.15823  0.97712  0.65291  1.0000
  H   H2610     1.0  0.13476  0.87571  0.59981  1.0000
  C   C3264     1.0  0.47331  0.80064  0.71729  1.0000
  H   H2611     1.0  0.21284  0.53375  0.58696  1.0000
  C   C3265     1.0  0.42111  0.78690  0.69243  1.0000
  H   H2612     1.0  0.02189  0.63836  0.59034  1.0000
  H   H2613     1.0  0.22333  0.90899  0.76429  1.0000
  C   C3266     1.0  0.28299  0.71972  0.77196  1.0000
  C   C3267     1.0  0.28806  0.89093  0.76826  1.0000
  Fe  Fe216     1.0  0.39169  0.48115  0.70115  1.0000
  H   H2614     1.0  0.31073  0.71101  0.75949  1.0000
  H   H2615     1.0  0.33975  0.50929  0.75914  1.0000
  S   S435      1.0  0.17628  0.55953  0.57969  1.0000
  P   P110      1.0  0.28022  0.74234  0.75924  1.0000
  H   H2616     1.0  0.22004  0.54033  0.61285  1.0000
  H   H2617     1.0  0.29784  0.59089  0.59470  1.0000
  H   H2618     1.0  0.42774  0.59678  0.62260  1.0000
  C   C3268     1.0  0.46508  0.58857  0.75243  1.0000
  C   C3269     1.0  0.24831  0.53663  0.60193  1.0000
  H   H2619     1.0  0.99599  0.52881  0.57711  1.0000
  H   H2620     1.0  0.48852  0.51755  0.72877  1.0000
  C   C3270     1.0  0.16849  0.97503  0.70117  1.0000
  C   C3271     1.0  0.09061  0.97233  0.73957  1.0000
  C   C3272     1.0  0.41163  0.74315  0.76673  1.0000
  C   C3273     1.0  0.43417  0.68969  0.76842  1.0000
  C   C3274     1.0  0.36091  0.49623  0.77341  1.0000
  S   S436      1.0  0.16763  0.61084  0.58202  1.0000
  C   C3275     1.0  0.17945  0.86379  0.76649  1.0000
  C   C3276     1.0  0.46849  0.57043  0.76050  1.0000
  C   C3277     1.0  0.22664  0.53302  0.58726  1.0000
  H   H2621     1.0  0.40558  0.49253  0.62207  1.0000
  C   C3278     1.0  0.29920  0.70736  0.76914  1.0000
  C   C3279     1.0  0.11967  0.86057  0.77269  1.0000
  H   H2622     1.0  0.36671  0.50790  0.76968  1.0000
  H   H2623     1.0  0.25681  0.72126  0.75388  1.0000
  H   H2624     1.0  0.21150  0.70076  0.58485  1.0000
  C   C3280     1.0  0.16900  0.97414  0.77206  1.0000
  C   C3281     1.0  0.03651  0.78545  0.59377  1.0000
  H   H2625     1.0  0.04047  0.58589  0.57883  1.0000
  C   C3282     1.0  0.42524  0.56583  0.59290  1.0000
  C   C3283     1.0  0.25631  0.81743  0.77166  1.0000
  H   H2626     1.0  0.42338  0.69968  0.77367  1.0000
  H   H2627     1.0  0.35848  0.58522  0.58171  1.0000
  C   C3284     1.0  0.41165  0.58081  0.59546  1.0000
  P   P111      1.0  0.42306  0.55103  0.58007  1.0000
  C   C3285     1.0  0.21381  0.68875  0.57989  1.0000
  P   P112      1.0  0.48808  0.79433  0.76480  1.0000
  C   C3286     1.0  0.38204  0.48174  0.62766  1.0000
  C   C3287     1.0  0.31869  0.62115  0.57819  1.0000
  H   H2628     1.0  0.27325  0.59193  0.57725  1.0000
  C   C3288     1.0  0.11838  0.64780  0.57700  1.0000
  C   C3289     1.0  0.46837  0.51189  0.57695  1.0000
  H   H2629     1.0  0.17094  0.68304  0.57754  1.0000
  C   C3290     1.0  0.11976  0.55810  0.57645  1.0000
  C   C3291     1.0  0.18719  0.93695  0.57657  1.0000
  S   S437      1.0  0.42828  0.50398  0.82684  1.0000
  Fe  Fe217     1.0  0.44200  0.52619  0.82401  1.0000
  S   S438      1.0  0.42982  0.55495  0.82499  1.0000
  Fe  Fe218     1.0  0.32503  0.77285  0.82137  1.0000
  S   S439      1.0  0.31819  0.75224  0.84610  1.0000
  Fe  Fe219     1.0  0.46628  0.83716  0.83764  1.0000
  C   C3292     1.0  0.07634  0.92254  0.90999  1.0000
  C   C3293     1.0  0.38131  0.87049  0.90818  1.0000
  Fe  Fe220     1.0  0.44629  0.80793  0.84086  1.0000
  S   S440      1.0  0.45494  0.79297  0.86620  1.0000
  S   S441      1.0  0.43252  0.79294  0.82985  1.0000
  Fe  Fe221     1.0  0.44870  0.81948  0.87367  1.0000
  S   S442      1.0  0.43227  0.81986  0.90120  1.0000
  H   H2630     1.0  0.10175  0.93129  0.77811  1.0000
  C   C3294     1.0  0.48315  0.57408  0.86636  1.0000
  S   S443      1.0  0.43781  0.83415  0.84931  1.0000
  S   S444      1.0  0.47367  0.81220  0.82692  1.0000
  Fe  Fe222     1.0  0.18981  0.84610  0.86630  1.0000
  S   S445      1.0  0.17529  0.82537  0.88451  1.0000
  S   S446      1.0  0.21972  0.83708  0.86151  1.0000
  Fe  Fe223     1.0  0.15545  0.87231  0.85903  1.0000
  S   S447      1.0  0.13857  0.85346  0.87724  1.0000
  S   S448      1.0  0.13878  0.89628  0.84391  1.0000
  Fe  Fe224     1.0  0.15717  0.84831  0.89579  1.0000
  S   S449      1.0  0.14995  0.84704  0.92548  1.0000
  Fe  Fe225     1.0  0.15837  0.83247  0.86406  1.0000
  S   S450      1.0  0.14776  0.81353  0.85473  1.0000
  S   S451      1.0  0.17270  0.86890  0.87873  1.0000
  S   S452      1.0  0.17423  0.85143  0.84478  1.0000
  S   S453      1.0  0.19302  0.77470  0.79209  1.0000
  S   S454      1.0  0.45584  0.70340  0.78090  1.0000
  C   C3295     1.0  0.39740  0.81438  0.87243  1.0000
  C   C3296     1.0  0.38832  0.83216  0.86999  1.0000
  C   C3297     1.0  0.41208  0.88097  0.84772  1.0000
  H   H2631     1.0  0.08245  0.94860  0.90213  1.0000
  C   C3298     1.0  0.47137  0.76587  0.78243  1.0000
  P   P113      1.0  0.08889  0.48723  0.96470  1.0000
  C   C3299     1.0  0.36350  0.88852  0.92950  1.0000
  H   H2632     1.0  0.48712  0.62588  0.81464  1.0000
  H   H2633     1.0  0.09076  0.93924  0.81474  1.0000
  H   H2634     1.0  0.46241  0.55941  0.79773  1.0000
  H   H2635     1.0  0.37165  0.60162  0.81881  1.0000
  C   C3300     1.0  0.12716  0.49607  0.91931  1.0000
  H   H2636     1.0  0.05580  0.93519  0.86790  1.0000
  C   C3301     1.0  0.36635  0.87249  0.90091  1.0000
  H   H2637     1.0  0.48385  0.86681  0.90842  1.0000
  H   H2638     1.0  0.33850  0.88563  0.90203  1.0000
  C   C3302     1.0  0.18802  0.89237  0.79186  1.0000
  S   S455      1.0  0.31668  0.77214  0.79664  1.0000
  H   H2639     1.0  0.26952  0.76567  0.81396  1.0000
  S   S456      1.0  0.47657  0.82425  0.86272  1.0000
  H   H2640     1.0  0.19515  0.78134  0.90483  1.0000
  C   C3303     1.0  0.10726  0.48398  0.94605  1.0000
  S   S457      1.0  0.42938  0.88149  0.93952  1.0000
  H   H2641     1.0  0.13531  0.95359  0.86631  1.0000
  C   C3304     1.0  0.06252  0.97979  0.83495  1.0000
  C   C3305     1.0  0.37494  0.89251  0.85443  1.0000
  H   H2642     1.0  0.43654  0.63431  0.79041  1.0000
  C   C3306     1.0  0.28084  0.88767  0.78657  1.0000
  C   C3307     1.0  0.22083  0.84023  0.95544  1.0000
  H   H2643     1.0  0.33470  0.85573  0.90396  1.0000
  H   H2644     1.0  0.09225  0.84988  0.91366  1.0000
  Fe  Fe226     1.0  0.34398  0.80348  0.80299  1.0000
  C   C3308     1.0  0.09137  0.85798  0.92307  1.0000
  S   S458      1.0  0.47079  0.86329  0.81956  1.0000
  H   H2645     1.0  0.28961  0.78609  0.84833  1.0000
  H   H2646     1.0  0.40536  0.79076  0.89145  1.0000
  C   C3309     1.0  0.40808  0.78767  0.96961  1.0000
  C   C3310     1.0  0.24525  0.72231  0.91493  1.0000
  C   C3311     1.0  0.32965  0.86753  0.85470  1.0000
  C   C3312     1.0  0.06141  0.91503  0.89077  1.0000
  C   C3313     1.0  0.47298  0.88289  0.86296  1.0000
  C   C3314     1.0  0.41668  0.56670  0.80937  1.0000
  Fe  Fe227     1.0  0.28028  0.83604  0.92154  1.0000
  S   S459      1.0  0.26846  0.81262  0.93694  1.0000
  S   S460      1.0  0.26401  0.85888  0.90521  1.0000
  Fe  Fe228     1.0  0.31380  0.82238  0.93697  1.0000
  S   S461      1.0  0.30476  0.79755  0.95352  1.0000
  S   S462      1.0  0.34093  0.82686  0.93702  1.0000
  Fe  Fe229     1.0  0.29587  0.79644  0.92920  1.0000
  S   S463      1.0  0.29763  0.76969  0.92329  1.0000
  H   H2647     1.0  0.13192  0.50740  0.91024  1.0000
  S   S464      1.0  0.30720  0.81969  0.91185  1.0000
  C   C3315     1.0  0.37989  0.87865  0.92229  1.0000
  C   C3316     1.0  0.48566  0.89229  0.81017  1.0000
  H   H2648     1.0  0.28783  0.67129  0.79989  1.0000
  C   C3317     1.0  0.09025  0.87776  0.94793  1.0000
  C   C3318     1.0  0.47047  0.82166  0.78321  1.0000
  H   H2649     1.0  0.08675  0.88547  0.81936  1.0000
  C   C3319     1.0  0.35910  0.84322  0.95109  1.0000
  C   C3320     1.0  0.34237  0.84030  0.95106  1.0000
  C   C3321     1.0  0.33335  0.85949  0.89015  1.0000
  H   H2650     1.0  0.27060  0.77256  0.87563  1.0000
  C   C3322     1.0  0.47487  0.76741  0.81605  1.0000
  H   H2651     1.0  0.37099  0.83721  0.94269  1.0000
  H   H2652     1.0  0.01584  0.83488  0.96985  1.0000
  C   C3323     1.0  0.26430  0.76598  0.80252  1.0000
  H   H2653     1.0  0.40469  0.60880  0.78603  1.0000
  C   C3324     1.0  0.20802  0.91781  0.78820  1.0000
  C   C3325     1.0  0.40716  0.75501  0.79315  1.0000
  C   C3326     1.0  0.06167  0.93177  0.87954  1.0000
  C   C3327     1.0  0.20221  0.89449  0.77713  1.0000
  H   H2654     1.0  0.46038  0.88044  0.86226  1.0000
  S   S465      1.0  0.45730  0.51160  0.84544  1.0000
  H   H2655     1.0  0.47915  0.75790  0.87168  1.0000
  C   C3328     1.0  0.03573  0.49164  0.94873  1.0000
  H   H2656     1.0  0.14570  0.77232  0.96267  1.0000
  C   C3329     1.0  0.07572  0.90062  0.78820  1.0000
  H   H2657     1.0  0.37054  0.71871  0.79254  1.0000
  H   H2658     1.0  0.23331  0.84359  0.95523  1.0000
  S   S466      1.0  0.48455  0.67802  0.81517  1.0000
  H   H2659     1.0  0.16041  0.50344  0.95120  1.0000
  H   H2660     1.0  0.10693  0.51208  0.93564  1.0000
  C   C3330     1.0  0.13712  0.83149  0.93875  1.0000
  C   C3331     1.0  0.12866  0.82276  0.93118  1.0000
  Fe  Fe230     1.0  0.31006  0.80185  0.79244  1.0000
  H   H2661     1.0  0.13018  0.82531  0.91687  1.0000
  C   C3332     1.0  0.19617  0.49279  0.96877  1.0000
  C   C3333     1.0  0.14208  0.91827  0.83830  1.0000
  C   C3334     1.0  0.15678  0.92262  0.84154  1.0000
  C   C3335     1.0  0.15943  0.94020  0.83572  1.0000
  C   C3336     1.0  0.14728  0.95350  0.82691  1.0000
  C   C3337     1.0  0.13242  0.94919  0.82399  1.0000
  C   C3338     1.0  0.12989  0.93161  0.82963  1.0000
  H   H2662     1.0  0.16620  0.91241  0.84827  1.0000
  H   H2663     1.0  0.17088  0.94353  0.83812  1.0000
  H   H2664     1.0  0.12297  0.95935  0.81724  1.0000
  H   H2665     1.0  0.11858  0.92825  0.82706  1.0000
  C   C3339     1.0  0.16065  0.80477  0.83604  1.0000
  C   C3340     1.0  0.17932  0.80163  0.83236  1.0000
  C   C3341     1.0  0.18926  0.79262  0.81864  1.0000
  C   C3342     1.0  0.18060  0.78761  0.80794  1.0000
  C   C3343     1.0  0.16194  0.79137  0.81123  1.0000
  C   C3344     1.0  0.15202  0.79970  0.82538  1.0000
  H   H2666     1.0  0.18607  0.80534  0.84064  1.0000
  H   H2667     1.0  0.20368  0.78940  0.81640  1.0000
  H   H2668     1.0  0.15516  0.78724  0.80328  1.0000
  H   H2669     1.0  0.13760  0.80199  0.82823  1.0000
  C   C3345     1.0  0.23074  0.84264  0.87525  1.0000
  C   C3346     1.0  0.24580  0.83069  0.88047  1.0000
  C   C3347     1.0  0.25557  0.83529  0.89042  1.0000
  C   C3348     1.0  0.25063  0.85210  0.89472  1.0000
  C   C3349     1.0  0.23539  0.86398  0.88976  1.0000
  C   C3350     1.0  0.22533  0.85918  0.88022  1.0000
  H   H2670     1.0  0.24995  0.81784  0.87675  1.0000
  H   H2671     1.0  0.26724  0.82602  0.89429  1.0000
  H   H2672     1.0  0.23149  0.87699  0.89312  1.0000
  H   H2673     1.0  0.21377  0.86849  0.87616  1.0000
  H   H2674     1.0  0.03333  0.92739  0.95573  1.0000
  H   H2675     1.0  0.02287  0.49380  0.94524  1.0000
  H   H2676     1.0  0.39414  0.86277  0.90288  1.0000
  C   C3351     1.0  0.07419  0.96538  0.80974  1.0000
  H   H2677     1.0  0.38956  0.80435  0.91772  1.0000
  C   C3352     1.0  0.13514  0.91094  0.79071  1.0000
  S   S467      1.0  0.31611  0.80233  0.81841  1.0000
  C   C3353     1.0  0.43143  0.83739  0.91120  1.0000
  C   C3354     1.0  0.42028  0.83822  0.92793  1.0000
  C   C3355     1.0  0.41948  0.85181  0.93651  1.0000
  C   C3356     1.0  0.42983  0.86467  0.92853  1.0000
  C   C3357     1.0  0.44087  0.86397  0.91164  1.0000
  C   C3358     1.0  0.44167  0.85034  0.90296  1.0000
  H   H2678     1.0  0.41212  0.82841  0.93422  1.0000
  H   H2679     1.0  0.41055  0.85247  0.94916  1.0000
  H   H2680     1.0  0.44882  0.87395  0.90531  1.0000
  H   H2681     1.0  0.45020  0.84981  0.88998  1.0000
  H   H2682     1.0  0.47244  0.72984  0.86954  1.0000
  C   C3359     1.0  0.10691  0.95865  0.86817  1.0000
  C   C3360     1.0  0.48215  0.77887  0.80096  1.0000
  H   H2683     1.0  0.34938  0.67947  0.84960  1.0000
  H   H2684     1.0  0.21571  0.92771  0.78682  1.0000
  C   C3361     1.0  0.05007  0.49721  0.93593  1.0000
  C   C3362     1.0  0.47938  0.84992  0.77724  1.0000
  C   C3363     1.0  0.11313  0.49864  0.93388  1.0000
  H   H2685     1.0  0.47754  0.86280  0.78051  1.0000
  H   H2686     1.0  0.42557  0.77106  0.79239  1.0000
  C   C3364     1.0  0.40298  0.79049  0.82019  1.0000
  H   H2687     1.0  0.40901  0.77650  0.82141  1.0000
  H   H2688     1.0  0.38023  0.78815  0.81168  1.0000
  C   C3365     1.0  0.31273  0.75793  0.86718  1.0000
  C   C3366     1.0  0.31567  0.77370  0.86965  1.0000
  C   C3367     1.0  0.31083  0.77773  0.88681  1.0000
  C   C3368     1.0  0.30317  0.76594  0.90142  1.0000
  C   C3369     1.0  0.30046  0.75015  0.89886  1.0000
  C   C3370     1.0  0.30520  0.74618  0.88186  1.0000
  H   H2689     1.0  0.32178  0.78264  0.85836  1.0000
  H   H2690     1.0  0.31329  0.78970  0.88891  1.0000
  H   H2691     1.0  0.29465  0.74093  0.91010  1.0000
  H   H2692     1.0  0.30293  0.73397  0.88007  1.0000
  C   C3371     1.0  0.48491  0.86941  0.87170  1.0000
  C   C3372     1.0  0.48024  0.61980  0.80843  1.0000
  C   C3373     1.0  0.34784  0.86359  0.87642  1.0000
  Fe  Fe231     1.0  0.44586  0.48840  0.84597  1.0000
  C   C3374     1.0  0.07365  0.93735  0.77895  1.0000
  H   H2693     1.0  0.37368  0.83556  0.91349  1.0000
  H   H2694     1.0  0.46845  0.90968  0.84764  1.0000
  H   H2695     1.0  0.05750  0.90112  0.95216  1.0000
  H   H2696     1.0  0.21572  0.86023  0.93215  1.0000
  C   C3375     1.0  0.38659  0.79705  0.81481  1.0000
  C   C3376     1.0  0.18404  0.90274  0.80469  1.0000
  C   C3377     1.0  0.09112  0.97165  0.86736  1.0000
  H   H2697     1.0  0.44797  0.79119  0.92934  1.0000
  C   C3378     1.0  0.41158  0.80190  0.82408  1.0000
  C   C3379     1.0  0.39804  0.80438  0.88961  1.0000
  H   H2698     1.0  0.15187  0.92612  0.79517  1.0000
  C   C3380     1.0  0.39575  0.56794  0.79138  1.0000
  C   C3381     1.0  0.26860  0.71439  0.78509  1.0000
  H   H2699     1.0  0.41270  0.90509  0.82778  1.0000
  C   C3382     1.0  0.06640  0.49527  0.94066  1.0000
  C   C3383     1.0  0.34602  0.86705  0.85863  1.0000
  H   H2700     1.0  0.04832  0.50358  0.92250  1.0000
  H   H2701     1.0  0.16852  0.78686  0.94005  1.0000
  H   H2702     1.0  0.33460  0.71122  0.84329  1.0000
  H   H2703     1.0  0.26496  0.69972  0.90737  1.0000
  H   H2704     1.0  0.47075  0.66416  0.86421  1.0000
  H   H2705     1.0  0.38073  0.84038  0.81690  1.0000
  C   C3384     1.0  0.48502  0.58450  0.84900  1.0000
  H   H2706     1.0  0.23558  0.87454  0.78160  1.0000
  P   P114      1.0  0.36886  0.86318  0.88164  1.0000
  C   C3385     1.0  0.47986  0.77863  0.78411  1.0000
  H   H2707     1.0  0.07713  0.50034  0.93076  1.0000
  H   H2708     1.0  0.42328  0.59171  0.80805  1.0000
  H   H2709     1.0  0.38784  0.56137  0.78693  1.0000
  C   C3386     1.0  0.16792  0.78561  0.95410  1.0000
  C   C3387     1.0  0.24967  0.80140  0.83576  1.0000
  C   C3388     1.0  0.26799  0.79854  0.83473  1.0000
  C   C3389     1.0  0.48342  0.73499  0.86019  1.0000
  H   H2710     1.0  0.10684  0.94468  0.87009  1.0000
  C   C3390     1.0  0.47535  0.55657  0.80117  1.0000
  H   H2711     1.0  0.16923  0.82566  0.79403  1.0000
  C   C3391     1.0  0.35249  0.64297  0.79907  1.0000
  C   C3392     1.0  0.48769  0.87441  0.81883  1.0000
  C   C3393     1.0  0.04080  0.58055  0.97297  1.0000
  Fe  Fe232     1.0  0.48263  0.69637  0.78885  1.0000
  C   C3394     1.0  0.47852  0.62046  0.86220  1.0000
  C   C3395     1.0  0.34572  0.70581  0.83358  1.0000
  C   C3396     1.0  0.24780  0.77688  0.80015  1.0000
  C   C3397     1.0  0.46961  0.65229  0.86062  1.0000
  H   H2712     1.0  0.33590  0.89832  0.92795  1.0000
  H   H2713     1.0  0.32851  0.71323  0.78215  1.0000
  S   S468      1.0  0.00210  0.55325  0.96793  1.0000
  C   C3398     1.0  0.37850  0.81502  0.81357  1.0000
  C   C3399     1.0  0.40430  0.89705  0.83787  1.0000
  H   H2714     1.0  0.40726  0.54402  0.80831  1.0000
  C   C3400     1.0  0.39963  0.49670  0.77699  1.0000
  H   H2715     1.0  0.41169  0.53405  0.77942  1.0000
  C   C3401     1.0  0.11575  0.80763  0.96082  1.0000
  C   C3402     1.0  0.07085  0.96479  0.84593  1.0000
  C   C3403     1.0  0.13041  0.90439  0.77813  1.0000
  C   C3404     1.0  0.08263  0.95042  0.82051  1.0000
  C   C3405     1.0  0.46423  0.75430  0.79755  1.0000
  H   H2716     1.0  0.20940  0.82432  0.91362  1.0000
  C   C3406     1.0  0.38929  0.81204  0.90437  1.0000
  H   H2717     1.0  0.16636  0.78268  0.89759  1.0000
  C   C3407     1.0  0.42993  0.64339  0.79930  1.0000
  H   H2718     1.0  0.16554  0.77361  0.87028  1.0000
  H   H2719     1.0  0.34486  0.73081  0.81469  1.0000
  H   H2720     1.0  0.40408  0.80835  0.86103  1.0000
  H   H2721     1.0  0.41012  0.82879  0.82597  1.0000
  H   H2722     1.0  0.47392  0.89878  0.80463  1.0000
  C   C3408     1.0  0.06276  0.59785  0.97017  1.0000
  S   S469      1.0  0.35758  0.82333  0.80742  1.0000
  C   C3409     1.0  0.13510  0.82805  0.95730  1.0000
  C   C3410     1.0  0.48883  0.85281  0.91332  1.0000
  H   H2723     1.0  0.35569  0.66755  0.80291  1.0000
  C   C3411     1.0  0.40354  0.81992  0.82296  1.0000
  H   H2724     1.0  0.44229  0.84991  0.96335  1.0000
  H   H2725     1.0  0.46708  0.85148  0.93607  1.0000
  Fe  Fe233     1.0  0.34445  0.77564  0.78277  1.0000
  C   C3412     1.0  0.38035  0.82983  0.90196  1.0000
  C   C3413     1.0  0.05932  0.91221  0.78668  1.0000
  C   C3414     1.0  0.43605  0.82426  0.97619  1.0000
  H   H2726     1.0  0.27449  0.71558  0.87630  1.0000
  C   C3415     1.0  0.38697  0.82646  0.81774  1.0000
  C   C3416     1.0  0.07778  0.86690  0.95146  1.0000
  C   C3417     1.0  0.12463  0.81602  0.96827  1.0000
  H   H2727     1.0  0.23346  0.83775  0.80931  1.0000
  H   H2728     1.0  0.26033  0.74676  0.86631  1.0000
  Fe  Fe234     1.0  0.41091  0.88197  0.96662  1.0000
  H   H2729     1.0  0.14654  0.58647  0.96348  1.0000
  C   C3418     1.0  0.44490  0.83810  0.97353  1.0000
  H   H2730     1.0  0.06931  0.84819  0.94138  1.0000
  C   C3419     1.0  0.11455  0.87815  0.80658  1.0000
  C   C3420     1.0  0.09969  0.87728  0.82075  1.0000
  C   C3421     1.0  0.10150  0.86569  0.83706  1.0000
  C   C3422     1.0  0.11809  0.85496  0.83932  1.0000
  C   C3423     1.0  0.13298  0.85603  0.82541  1.0000
  C   C3424     1.0  0.13128  0.86773  0.80918  1.0000
  H   H2731     1.0  0.18678  0.85287  0.93307  1.0000
  H   H2732     1.0  0.22680  0.74681  0.91871  1.0000
  H   H2733     1.0  0.32829  0.87030  0.84097  1.0000
  H   H2734     1.0  0.27066  0.89786  0.79227  1.0000
  C   C3425     1.0  0.23874  0.79378  0.85113  1.0000
  H   H2735     1.0  0.45762  0.74449  0.79625  1.0000
  H   H2736     1.0  0.40762  0.85850  0.86881  1.0000
  H   H2737     1.0  0.07155  0.60650  0.96181  1.0000
  H   H2738     1.0  0.45294  0.65459  0.79543  1.0000
  H   H2739     1.0  0.39958  0.75667  0.80630  1.0000
  H   H2740     1.0  0.39379  0.78543  0.95082  1.0000
  C   C3426     1.0  0.38574  0.90289  0.84131  1.0000
  C   C3427     1.0  0.06885  0.91037  0.90592  1.0000
  C   C3428     1.0  0.09117  0.90735  0.78540  1.0000
  C   C3429     1.0  0.36784  0.61603  0.81579  1.0000
  C   C3430     1.0  0.34546  0.86171  0.97313  1.0000
  H   H2741     1.0  0.09005  0.86494  0.84797  1.0000
  H   H2742     1.0  0.11947  0.84580  0.85186  1.0000
  H   H2743     1.0  0.14298  0.86849  0.79858  1.0000
  C   C3431     1.0  0.48196  0.62431  0.78992  1.0000
  H   H2744     1.0  0.12845  0.90844  0.80460  1.0000
  C   C3432     1.0  0.27543  0.78814  0.84911  1.0000
  H   H2745     1.0  0.46048  0.74615  0.82616  1.0000
  P   P115      1.0  0.11258  0.89223  0.78503  1.0000
  C   C3433     1.0  0.07838  0.85706  0.93885  1.0000
  C   C3434     1.0  0.25873  0.71349  0.90305  1.0000
  H   H2746     1.0  0.39144  0.87732  0.92774  1.0000
  C   C3435     1.0  0.42085  0.78770  0.93837  1.0000
  S   S470      1.0  0.38548  0.90254  0.97078  1.0000
  C   C3436     1.0  0.42429  0.78976  0.97207  1.0000
  Fe  Fe235     1.0  0.45152  0.49459  0.80596  1.0000
  S   S471      1.0  0.28776  0.84068  0.94511  1.0000
  C   C3437     1.0  0.19329  0.83488  0.79121  1.0000
  H   H2747     1.0  0.24014  0.78493  0.80977  1.0000
  H   H2748     1.0  0.41947  0.78746  0.92520  1.0000
  H   H2749     1.0  0.11118  0.80442  0.93633  1.0000
  H   H2750     1.0  0.14169  0.83469  0.96322  1.0000
  C   C3438     1.0  0.10383  0.86865  0.91979  1.0000
  H   H2751     1.0  0.11432  0.86883  0.90790  1.0000
  H   H2752     1.0  0.11336  0.88630  0.92982  1.0000
  H   H2753     1.0  0.34341  0.71025  0.94056  1.0000
  C   C3439     1.0  0.38263  0.87602  0.86390  1.0000
  C   C3440     1.0  0.35008  0.88306  0.90780  1.0000
  C   C3441     1.0  0.32875  0.85864  0.97327  1.0000
  C   C3442     1.0  0.20308  0.84803  0.78245  1.0000
  H   H2754     1.0  0.47593  0.76821  0.82911  1.0000
  H   H2755     1.0  0.25286  0.76686  0.91299  1.0000
  C   C3443     1.0  0.19391  0.91556  0.80281  1.0000
  H   H2756     1.0  0.25139  0.78465  0.93454  1.0000
  H   H2757     1.0  0.22837  0.78594  0.78341  1.0000
  S   S472      1.0  0.46388  0.51827  0.80126  1.0000
  C   C3444     1.0  0.46788  0.83853  0.78693  1.0000
  H   H2758     1.0  0.25913  0.69300  0.80517  1.0000
  H   H2759     1.0  0.09962  0.84615  0.97427  1.0000
  H   H2760     1.0  0.24764  0.82339  0.78246  1.0000
  C   C3445     1.0  0.17668  0.83603  0.78750  1.0000
  H   H2761     1.0  0.48813  0.63465  0.87626  1.0000
  C   C3446     1.0  0.10185  0.51385  0.97146  1.0000
  H   H2762     1.0  0.34439  0.64947  0.78918  1.0000
  C   C3447     1.0  0.41572  0.58503  0.80330  1.0000
  C   C3448     1.0  0.10325  0.87856  0.93218  1.0000
  C   C3449     1.0  0.26461  0.78044  0.86451  1.0000
  C   C3450     1.0  0.13262  0.58979  0.96992  1.0000
  H   H2763     1.0  0.17314  0.90084  0.81604  1.0000
  C   C3451     1.0  0.24624  0.78278  0.86542  1.0000
  C   C3452     1.0  0.47314  0.61669  0.78162  1.0000
  H   H2764     1.0  0.39050  0.73916  0.78970  1.0000
  C   C3453     1.0  0.40211  0.74504  0.78386  1.0000
  C   C3454     1.0  0.40676  0.55812  0.80337  1.0000
  C   C3455     1.0  0.12314  0.96365  0.86589  1.0000
  P   P116      1.0  0.06269  0.86411  0.97294  1.0000
  C   C3456     1.0  0.19514  0.77740  0.89279  1.0000
  C   C3457     1.0  0.47629  0.55264  0.81915  1.0000
  H   H2765     1.0  0.21088  0.80665  0.89178  1.0000
  C   C3458     1.0  0.31691  0.86034  0.88618  1.0000
  S   S473      1.0  0.35342  0.77380  0.80787  1.0000
  C   C3459     1.0  0.40227  0.50978  0.78449  1.0000
  H   H2766     1.0  0.24096  0.71538  0.92845  1.0000
  C   C3460     1.0  0.14849  0.92090  0.78542  1.0000
  H   H2767     1.0  0.05334  0.59502  0.94807  1.0000
  C   C3461     1.0  0.31504  0.86434  0.86849  1.0000
  H   H2768     1.0  0.36277  0.79442  0.96719  1.0000
  H   H2769     1.0  0.36235  0.89436  0.94079  1.0000
  C   C3462     1.0  0.34860  0.89068  0.92229  1.0000
  S   S474      1.0  0.15114  0.97529  0.81957  1.0000
  C   C3463     1.0  0.08674  0.50848  0.97023  1.0000
  H   H2770     1.0  0.31429  0.84567  0.96261  1.0000
  H   H2771     1.0  0.22447  0.79680  0.85190  1.0000
  H   H2772     1.0  0.36064  0.89742  0.85731  1.0000
  H   H2773     1.0  0.19870  0.82368  0.80070  1.0000
  C   C3464     1.0  0.34116  0.73503  0.92149  1.0000
  C   C3465     1.0  0.35048  0.71876  0.92953  1.0000
  C   C3466     1.0  0.36880  0.71341  0.92320  1.0000
  C   C3467     1.0  0.37783  0.72446  0.90895  1.0000
  C   C3468     1.0  0.36865  0.74110  0.90120  1.0000
  C   C3469     1.0  0.35014  0.74610  0.90725  1.0000
  P   P117      1.0  0.38026  0.75483  0.88229  1.0000
  C   C3470     1.0  0.38204  0.74522  0.86346  1.0000
  C   C3471     1.0  0.36835  0.77768  0.87966  1.0000
  C   C3472     1.0  0.36160  0.78565  0.89457  1.0000
  C   C3473     1.0  0.35296  0.80355  0.89257  1.0000
  C   C3474     1.0  0.35111  0.81363  0.87567  1.0000
  C   C3475     1.0  0.35814  0.80588  0.86074  1.0000
  C   C3476     1.0  0.36679  0.78799  0.86269  1.0000
  C   C3477     1.0  0.39809  0.73439  0.85650  1.0000
  C   C3478     1.0  0.39911  0.72661  0.84224  1.0000
  C   C3479     1.0  0.38400  0.72910  0.83524  1.0000
  C   C3480     1.0  0.36787  0.73934  0.84250  1.0000
  C   C3481     1.0  0.36685  0.74738  0.85654  1.0000
  C   C3482     1.0  0.40184  0.75546  0.88535  1.0000
  C   C3483     1.0  0.40540  0.75184  0.90251  1.0000
  C   C3484     1.0  0.42231  0.75205  0.90468  1.0000
  C   C3485     1.0  0.43569  0.75593  0.88975  1.0000
  C   C3486     1.0  0.43203  0.76006  0.87268  1.0000
  C   C3487     1.0  0.41505  0.76030  0.87050  1.0000
  H   H2774     1.0  0.32689  0.73909  0.92621  1.0000
  C   C3488     1.0  0.21486  0.82626  0.96849  1.0000
  H   H2775     1.0  0.37597  0.70067  0.92927  1.0000
  H   H2776     1.0  0.39196  0.72002  0.90395  1.0000
  H   H2777     1.0  0.34253  0.75846  0.90098  1.0000
  H   H2778     1.0  0.36310  0.77811  0.90776  1.0000
  H   H2779     1.0  0.34793  0.80970  0.90411  1.0000
  H   H2780     1.0  0.34444  0.82749  0.87413  1.0000
  H   H2781     1.0  0.35710  0.81375  0.84760  1.0000
  H   H2782     1.0  0.37241  0.78237  0.85091  1.0000
  H   H2783     1.0  0.40982  0.73173  0.86208  1.0000
  H   H2784     1.0  0.41162  0.71859  0.83667  1.0000
  H   H2785     1.0  0.38476  0.72302  0.82426  1.0000
  H   H2786     1.0  0.35606  0.74107  0.83730  1.0000
  H   H2787     1.0  0.35415  0.75516  0.86208  1.0000
  H   H2788     1.0  0.39514  0.74902  0.91422  1.0000
  H   H2789     1.0  0.42506  0.74926  0.91791  1.0000
  H   H2790     1.0  0.44881  0.75605  0.89138  1.0000
  H   H2791     1.0  0.44229  0.76333  0.86105  1.0000
  H   H2792     1.0  0.41232  0.76415  0.85718  1.0000
  H   H2793     1.0  0.07589  0.96593  0.79567  1.0000
  C   C3489     1.0  0.19470  0.84541  0.94292  1.0000
  H   H2794     1.0  0.14584  0.84770  0.82722  1.0000
  C   C3490     1.0  0.03776  0.48400  0.96621  1.0000
  C   C3491     1.0  0.45871  0.65363  0.84884  1.0000
  C   C3492     1.0  0.45787  0.63845  0.84357  1.0000
  C   C3493     1.0  0.46769  0.62171  0.85023  1.0000
  H   H2795     1.0  0.47799  0.81954  0.94817  1.0000
  P   P118      1.0  0.46690  0.60230  0.84276  1.0000
  C   C3494     1.0  0.44571  0.59550  0.85206  1.0000
  C   C3495     1.0  0.46967  0.60760  0.81879  1.0000
  C   C3496     1.0  0.46120  0.59967  0.81031  1.0000
  C   C3497     1.0  0.46293  0.60422  0.79181  1.0000
  H   H2796     1.0  0.19062  0.92371  0.81271  1.0000
  C   C3498     1.0  0.40516  0.59473  0.79089  1.0000
  H   H2797     1.0  0.22871  0.79144  0.96494  1.0000
  C   C3499     1.0  0.44497  0.57743  0.85543  1.0000
  C   C3500     1.0  0.42857  0.57217  0.86095  1.0000
  C   C3501     1.0  0.41271  0.58487  0.86298  1.0000
  C   C3502     1.0  0.41325  0.60286  0.85967  1.0000
  C   C3503     1.0  0.42966  0.60819  0.85421  1.0000
  H   H2798     1.0  0.03242  0.57595  0.96703  1.0000
  H   H2799     1.0  0.05790  0.51587  0.97321  1.0000
  C   C3504     1.0  0.35899  0.65320  0.80690  1.0000
  H   H2800     1.0  0.22278  0.76187  0.85686  1.0000
  H   H2801     1.0  0.45138  0.66656  0.84336  1.0000
  H   H2802     1.0  0.44991  0.63980  0.83394  1.0000
  C   C3505     1.0  0.35704  0.62441  0.80338  1.0000
  H   H2803     1.0  0.45312  0.59008  0.81790  1.0000
  H   H2804     1.0  0.45593  0.59838  0.78550  1.0000
  H   H2805     1.0  0.11194  0.97613  0.77700  1.0000
  H   H2806     1.0  0.18954  0.79887  0.94940  1.0000
  C   C3506     1.0  0.08111  0.95017  0.83853  1.0000
  H   H2807     1.0  0.45700  0.56737  0.85328  1.0000
  H   H2808     1.0  0.42814  0.55825  0.86299  1.0000
  H   H2809     1.0  0.40002  0.58073  0.86679  1.0000
  H   H2810     1.0  0.40091  0.61266  0.86103  1.0000
  H   H2811     1.0  0.42967  0.62221  0.85131  1.0000
  H   H2812     1.0  0.46425  0.55224  0.82932  1.0000
  H   H2813     1.0  0.21593  0.84687  0.78546  1.0000
  H   H2814     1.0  0.30557  0.85783  0.89685  1.0000
  H   H2815     1.0  0.22974  0.81352  0.93493  1.0000
  H   H2816     1.0  0.37975  0.91556  0.83397  1.0000
  H   H2817     1.0  0.19613  0.50579  0.96011  1.0000
  C   C3507     1.0  0.21089  0.84965  0.94249  1.0000
  C   C3508     1.0  0.15689  0.49108  0.95909  1.0000
  C   C3509     1.0  0.22203  0.87572  0.82535  1.0000
  C   C3510     1.0  0.22007  0.86159  0.81912  1.0000
  C   C3511     1.0  0.23501  0.84868  0.81412  1.0000
  C   C3512     1.0  0.25191  0.84981  0.81544  1.0000
  C   C3513     1.0  0.25403  0.86401  0.82158  1.0000
  C   C3514     1.0  0.23896  0.87708  0.82638  1.0000
  P   P119      1.0  0.27621  0.86659  0.82069  1.0000
  C   C3515     1.0  0.27555  0.88347  0.83240  1.0000
  C   C3516     1.0  0.28940  0.84752  0.83254  1.0000
  C   C3517     1.0  0.28141  0.83465  0.84551  1.0000
  C   C3518     1.0  0.29147  0.82181  0.85684  1.0000
  C   C3519     1.0  0.30948  0.82178  0.85516  1.0000
  C   C3520     1.0  0.31758  0.83423  0.84189  1.0000
  C   C3521     1.0  0.30758  0.84711  0.83069  1.0000
  C   C3522     1.0  0.28561  0.89673  0.82479  1.0000
  C   C3523     1.0  0.28625  0.90855  0.83488  1.0000
  C   C3524     1.0  0.27716  0.90697  0.85267  1.0000
  C   C3525     1.0  0.26744  0.89356  0.86039  1.0000
  C   C3526     1.0  0.26669  0.88183  0.85033  1.0000
  C   C3527     1.0  0.28652  0.87121  0.79739  1.0000
  C   C3528     1.0  0.29901  0.85782  0.78955  1.0000
  C   C3529     1.0  0.27410  0.75554  0.79007  1.0000
  C   C3530     1.0  0.37428  0.62618  0.82375  1.0000
  C   C3531     1.0  0.18871  0.83145  0.95598  1.0000
  C   C3532     1.0  0.39509  0.58620  0.78499  1.0000
  H   H2818     1.0  0.21036  0.88546  0.82963  1.0000
  H   H2819     1.0  0.20695  0.86045  0.81845  1.0000
  H   H2820     1.0  0.09037  0.88504  0.95769  1.0000
  H   H2821     1.0  0.26337  0.83972  0.81148  1.0000
  H   H2822     1.0  0.24015  0.88832  0.83094  1.0000
  H   H2823     1.0  0.26736  0.83484  0.84724  1.0000
  H   H2824     1.0  0.28523  0.81205  0.86711  1.0000
  H   H2825     1.0  0.31723  0.81213  0.86405  1.0000
  H   H2826     1.0  0.33158  0.83405  0.84031  1.0000
  H   H2827     1.0  0.31399  0.85699  0.82082  1.0000
  H   H2828     1.0  0.29333  0.89770  0.81131  1.0000
  H   H2829     1.0  0.29406  0.91874  0.82902  1.0000
  H   H2830     1.0  0.27786  0.91592  0.86059  1.0000
  H   H2831     1.0  0.26078  0.89194  0.87434  1.0000
  H   H2832     1.0  0.25954  0.87116  0.85666  1.0000
  H   H2833     1.0  0.30288  0.84464  0.79738  1.0000
  P   P120      1.0  0.07050  0.96530  0.86861  1.0000
  H   H2834     1.0  0.42670  0.82556  0.96789  1.0000
  H   H2835     1.0  0.03329  0.97480  0.86442  1.0000
  C   C3533     1.0  0.05251  0.59138  0.96234  1.0000
  H   H2836     1.0  0.30231  0.86470  0.86554  1.0000
  C   C3534     1.0  0.11790  0.81095  0.94222  1.0000
  C   C3535     1.0  0.03245  0.91487  0.96506  1.0000
  C   C3536     1.0  0.43700  0.78976  0.94072  1.0000
  C   C3537     1.0  0.36998  0.64487  0.81927  1.0000
  H   H2837     1.0  0.42650  0.87661  0.84531  1.0000
  P   P121      1.0  0.37962  0.65778  0.82855  1.0000
  C   C3538     1.0  0.37685  0.64933  0.85232  1.0000
  C   C3539     1.0  0.40297  0.65647  0.81822  1.0000
  C   C3540     1.0  0.41210  0.66862  0.82016  1.0000
  C   C3541     1.0  0.43010  0.66783  0.81208  1.0000
  C   C3542     1.0  0.43906  0.65505  0.80186  1.0000
  H   H2838     1.0  0.07649  0.88639  0.79109  1.0000
  C   C3543     1.0  0.41202  0.64396  0.80753  1.0000
  C   C3544     1.0  0.36183  0.64216  0.86175  1.0000
  C   C3545     1.0  0.35958  0.63551  0.88012  1.0000
  C   C3546     1.0  0.37226  0.63604  0.88926  1.0000
  C   C3547     1.0  0.38716  0.64329  0.88003  1.0000
  C   C3548     1.0  0.38946  0.64995  0.86164  1.0000
  C   C3549     1.0  0.36849  0.68090  0.82440  1.0000
  C   C3550     1.0  0.35416  0.68784  0.83708  1.0000
  C   C3551     1.0  0.40131  0.87061  0.86087  1.0000
  C   C3552     1.0  0.35154  0.71693  0.81748  1.0000
  C   C3553     1.0  0.36592  0.71013  0.80496  1.0000
  C   C3554     1.0  0.37418  0.69217  0.80823  1.0000
  C   C3555     1.0  0.38007  0.84011  0.88478  1.0000
  H   H2839     1.0  0.17107  0.96706  0.78525  1.0000
  H   H2840     1.0  0.19373  0.76268  0.85028  1.0000
  H   H2841     1.0  0.38305  0.61945  0.83296  1.0000
  H   H2842     1.0  0.40523  0.67888  0.82771  1.0000
  H   H2843     1.0  0.43707  0.67743  0.81324  1.0000
  H   H2844     1.0  0.17600  0.82863  0.95618  1.0000
  H   H2845     1.0  0.08833  0.93878  0.84654  1.0000
  H   H2846     1.0  0.27640  0.80456  0.82288  1.0000
  H   H2847     1.0  0.35177  0.64178  0.85491  1.0000
  H   H2848     1.0  0.34796  0.62999  0.88730  1.0000
  H   H2849     1.0  0.37048  0.63091  0.90351  1.0000
  H   H2850     1.0  0.39696  0.64376  0.88713  1.0000
  H   H2851     1.0  0.40110  0.65546  0.85486  1.0000
  H   H2852     1.0  0.40532  0.63491  0.80502  1.0000
  H   H2853     1.0  0.39893  0.50899  0.79871  1.0000
  H   H2854     1.0  0.35726  0.86921  0.84777  1.0000
  S   S475      1.0  0.10188  0.79302  0.97436  1.0000
  H   H2855     1.0  0.38491  0.68711  0.79801  1.0000
  C   C3556     1.0  0.26411  0.72241  0.88557  1.0000
  H   H2856     1.0  0.24392  0.80965  0.82469  1.0000
  H   H2857     1.0  0.38795  0.83974  0.85658  1.0000
  C   C3557     1.0  0.23729  0.74013  0.90940  1.0000
  C   C3558     1.0  0.24298  0.74932  0.89202  1.0000
  C   C3559     1.0  0.25613  0.74020  0.87999  1.0000
  P   P122      1.0  0.23251  0.77228  0.88513  1.0000
  C   C3560     1.0  0.21117  0.77215  0.88100  1.0000
  C   C3561     1.0  0.23098  0.78479  0.90163  1.0000
  C   C3562     1.0  0.21912  0.80130  0.90166  1.0000
  C   C3563     1.0  0.21836  0.81142  0.91394  1.0000
  C   C3564     1.0  0.22986  0.80536  0.92591  1.0000
  C   C3565     1.0  0.24206  0.78914  0.92566  1.0000
  C   C3566     1.0  0.24276  0.77897  0.91346  1.0000
  C   C3567     1.0  0.21058  0.76632  0.86594  1.0000
  C   C3568     1.0  0.19418  0.76665  0.86222  1.0000
  C   C3569     1.0  0.17827  0.77269  0.87355  1.0000
  C   C3570     1.0  0.17875  0.77790  0.88890  1.0000
  H   H2858     1.0  0.37358  0.85608  0.96184  1.0000
  Fe  Fe236     1.0  0.48175  0.79886  0.85286  1.0000
  C   C3571     1.0  0.03607  0.84763  0.97158  1.0000
  H   H2859     1.0  0.02870  0.86081  0.96691  1.0000
  C   C3572     1.0  0.47931  0.84417  0.92914  1.0000
  H   H2860     1.0  0.12381  0.85359  0.78503  1.0000
  C   C3573     1.0  0.07660  0.93929  0.89880  1.0000
  C   C3574     1.0  0.12404  0.60758  0.96964  1.0000
  C   C3575     1.0  0.17961  0.79270  0.95947  1.0000
  C   C3576     1.0  0.32721  0.84795  0.96232  1.0000
  C   C3577     1.0  0.36065  0.85382  0.96211  1.0000
  C   C3578     1.0  0.43874  0.79080  0.95747  1.0000
  Fe  Fe237     1.0  0.47862  0.50259  0.82297  1.0000
  C   C3579     1.0  0.46592  0.75512  0.81439  1.0000
  H   H2861     1.0  0.48131  0.85663  0.87774  1.0000
  H   H2862     1.0  0.47085  0.57651  0.87607  1.0000
  H   H2863     1.0  0.35254  0.61652  0.79679  1.0000
  Fe  Fe238     1.0  0.27814  0.81566  0.95981  1.0000
  H   H2864     1.0  0.46135  0.81307  0.79092  1.0000
  C   C3580     1.0  0.48714  0.75091  0.86136  1.0000
  C   C3581     1.0  0.04619  0.89991  0.96311  1.0000
  C   C3582     1.0  0.06961  0.94388  0.88329  1.0000
  C   C3583     1.0  0.15511  0.77735  0.96683  1.0000
  H   H2865     1.0  0.11500  0.50548  0.96876  1.0000
  H   H2866     1.0  0.04750  0.90692  0.78862  1.0000
  C   C3584     1.0  0.08998  0.92581  0.78089  1.0000
  H   H2867     1.0  0.08212  0.91893  0.92172  1.0000
  H   H2868     1.0  0.17989  0.88277  0.79360  1.0000
  C   C3585     1.0  0.42174  0.76316  0.78529  1.0000
  H   H2869     1.0  0.45711  0.84269  0.79758  1.0000
  C   C3586     1.0  0.05830  0.93058  0.78194  1.0000
  H   H2870     1.0  0.05557  0.90560  0.88764  1.0000
  H   H2871     1.0  0.31345  0.68056  0.77701  1.0000
  C   C3587     1.0  0.05409  0.48197  0.97096  1.0000
  H   H2872     1.0  0.06885  0.89730  0.91447  1.0000
  C   C3588     1.0  0.19912  0.82127  0.96843  1.0000
  H   H2873     1.0  0.25448  0.76872  0.97347  1.0000
  H   H2874     1.0  0.25598  0.72371  0.78758  1.0000
  C   C3589     1.0  0.47751  0.89936  0.85474  1.0000
  C   C3590     1.0  0.06988  0.51959  0.97387  1.0000
  C   C3591     1.0  0.40640  0.78666  0.95279  1.0000
  S   S476      1.0  0.28369  0.81828  0.78630  1.0000
  H   H2875     1.0  0.45127  0.79275  0.95893  1.0000
  C   C3592     1.0  0.06857  0.48756  0.95819  1.0000
  H   H2876     1.0  0.33319  0.74312  0.78067  1.0000
  C   C3593     1.0  0.06408  0.98000  0.81697  1.0000
  C   C3594     1.0  0.47942  0.63569  0.86736  1.0000
  H   H2877     1.0  0.04574  0.93956  0.78017  1.0000
  C   C3595     1.0  0.28644  0.68476  0.79210  1.0000
  C   C3596     1.0  0.27031  0.69698  0.79508  1.0000
  C   C3597     1.0  0.24118  0.77749  0.78527  1.0000
  C   C3598     1.0  0.48548  0.82618  0.93594  1.0000
  C   C3599     1.0  0.30085  0.68996  0.77916  1.0000
  H   H2878     1.0  0.48669  0.60791  0.86728  1.0000
  H   H2879     1.0  0.13128  0.61807  0.96283  1.0000
  H   H2880     1.0  0.28678  0.74699  0.79217  1.0000
  C   C3600     1.0  0.04516  0.88366  0.97522  1.0000
  C   C3601     1.0  0.02878  0.83294  0.97304  1.0000
  C   C3602     1.0  0.05275  0.84523  0.97595  1.0000
  H   H2881     1.0  0.26736  0.86012  0.77667  1.0000
  C   C3603     1.0  0.05117  0.98075  0.87758  1.0000
  S   S477      1.0  0.33721  0.80557  0.77660  1.0000
  Fe  Fe239     1.0  0.72196  0.11634  0.04511  1.0000
  S   S478      1.0  0.72782  0.08701  0.05573  1.0000
  S   S479      1.0  0.73514  0.13109  0.01879  1.0000
  Fe  Fe240     1.0  0.69535  0.12351  0.07865  1.0000
  S   S480      1.0  0.69862  0.09461  0.09203  1.0000
  S   S481      1.0  0.67510  0.14431  0.09178  1.0000
  Fe  Fe241     1.0  0.72786  0.09404  0.08138  1.0000
  S   S482      1.0  0.74782  0.07767  0.09820  1.0000
  Fe  Fe242     1.0  0.69810  0.09019  0.06534  1.0000
  S   S483      1.0  0.68672  0.06951  0.05954  1.0000
  S   S484      1.0  0.72458  0.12324  0.06995  1.0000
  S   S485      1.0  0.69230  0.11915  0.05285  1.0000
  Fe  Fe243     1.0  0.60151  0.04525  0.01071  1.0000
  S   S486      1.0  0.59035  0.03732  0.04024  1.0000
  S   S487      1.0  0.62054  0.02547  0.99477  1.0000
  Fe  Fe244     1.0  0.58252  0.08383  0.00908  1.0000
  S   S488      1.0  0.56982  0.07893  0.03780  1.0000
  S   S489      1.0  0.57626  0.11040  0.99102  1.0000
  Fe  Fe245     1.0  0.59670  0.06285  0.04197  1.0000
  S   S490      1.0  0.60589  0.06996  0.06351  1.0000
  Fe  Fe246     1.0  0.56452  0.05425  0.03337  1.0000
  S   S491      1.0  0.53582  0.05144  0.04367  1.0000
  S   S492      1.0  0.60989  0.06933  0.01322  1.0000
  S   S493      1.0  0.57523  0.06049  0.00400  1.0000
  Fe  Fe247     1.0  0.67440  0.21705  0.13522  1.0000
  S   S494      1.0  0.69822  0.20041  0.12020  1.0000
  Fe  Fe248     1.0  0.65309  0.25481  0.13540  1.0000
  S   S495      1.0  0.65486  0.28271  0.12017  1.0000
  H   H2882     1.0  0.63633  0.45145  0.04755  1.0000
  H   H2883     1.0  0.93186  0.12544  0.00127  1.0000
  S   S496      1.0  0.65214  0.23360  0.12183  1.0000
  Fe  Fe249     1.0  0.59836  0.36981  0.08850  1.0000
  S   S497      1.0  0.62137  0.36094  0.06725  1.0000
  S   S498      1.0  0.59079  0.34951  0.11357  1.0000
  Fe  Fe250     1.0  0.59218  0.40829  0.06671  1.0000
  S   S499      1.0  0.61504  0.40151  0.04444  1.0000
  S   S500      1.0  0.57706  0.43682  0.06453  1.0000
  Fe  Fe251     1.0  0.60385  0.37718  0.04815  1.0000
  S   S501      1.0  0.59970  0.36535  0.02670  1.0000
  Fe  Fe252     1.0  0.62949  0.38623  0.06662  1.0000
  S   S502      1.0  0.65651  0.38882  0.06930  1.0000
  S   S503      1.0  0.58028  0.38468  0.06946  1.0000
  S   S504      1.0  0.60705  0.39447  0.08848  1.0000
  Fe  Fe253     1.0  0.51128  0.32406  0.00284  1.0000
  C   C3604     1.0  0.51631  0.39470  0.06781  1.0000
  Fe  Fe254     1.0  0.50777  0.36070  0.00942  1.0000
  S   S505      1.0  0.51996  0.38046  0.01582  1.0000
  H   H2884     1.0  0.59859  0.46359  0.00217  1.0000
  H   H2885     1.0  0.65669  0.06570  0.00736  1.0000
  Fe  Fe255     1.0  0.82025  0.08935  0.14054  1.0000
  S   S506      1.0  0.84865  0.09209  0.12845  1.0000
  S   S507      1.0  0.79733  0.10851  0.12890  1.0000
  C   C3605     1.0  0.74083  0.44572  0.16017  1.0000
  C   C3606     1.0  0.50603  0.99675  0.99070  1.0000
  H   H2886     1.0  0.57916  0.24965  0.02661  1.0000
  H   H2887     1.0  0.78974  0.18371  0.04658  1.0000
  Fe  Fe256     1.0  0.85450  0.06241  0.13163  1.0000
  S   S508      1.0  0.87312  0.04867  0.11002  1.0000
  S   S509      1.0  0.82597  0.05995  0.14199  1.0000
  Fe  Fe257     1.0  0.85847  0.02369  0.02917  1.0000
  S   S510      1.0  0.86674  0.99614  0.02346  1.0000
  S   S511      1.0  0.83914  0.03214  0.05342  1.0000
  Fe  Fe258     1.0  0.87964  0.03982  0.99390  1.0000
  S   S512      1.0  0.89024  0.01380  0.98508  1.0000
  Fe  Fe259     1.0  0.86232  0.00925  0.99589  1.0000
  C   C3607     1.0  0.71196  0.33473  0.16795  1.0000
  H   H2888     1.0  0.52955  0.08861  0.05264  1.0000
  S   S513      1.0  0.85137  0.03623  0.00251  1.0000
  S   S514      1.0  0.88610  0.02892  0.02092  1.0000
  Fe  Fe260     1.0  0.55277  0.18403  0.05017  1.0000
  S   S515      1.0  0.56599  0.16779  0.07272  1.0000
  S   S516      1.0  0.55564  0.18052  0.02222  1.0000
  Fe  Fe261     1.0  0.53225  0.21333  0.07015  1.0000
  S   S517      1.0  0.54341  0.19981  0.09451  1.0000
  S   S518      1.0  0.51210  0.23918  0.07048  1.0000
  Fe  Fe262     1.0  0.56973  0.19383  0.07600  1.0000
  S   S519      1.0  0.59601  0.19785  0.07911  1.0000
  Fe  Fe263     1.0  0.53869  0.17495  0.08974  1.0000
  S   S520      1.0  0.55900  0.20949  0.05180  1.0000
  S   S521      1.0  0.52513  0.18900  0.06704  1.0000
  C   C3608     1.0  0.51926  0.42990  0.05104  1.0000
  H   H2889     1.0  0.59320  0.43242  0.01729  1.0000
  Fe  Fe264     1.0  0.69780  0.44186  0.14438  1.0000
  C   C3609     1.0  0.49388  0.20382  0.11275  1.0000
  C   C3610     1.0  0.49144  0.28782  0.09170  1.0000
  H   H2890     1.0  0.58589  0.23171  0.05556  1.0000
  S   S522      1.0  0.50423  0.98724  0.03977  1.0000
  S   S523      1.0  0.70172  0.41249  0.14615  1.0000
  H   H2891     1.0  0.49282  0.43312  0.04660  1.0000
  H   H2892     1.0  0.89572  0.10773  0.99074  1.0000
  H   H2893     1.0  0.77414  0.22318  0.97750  1.0000
  H   H2894     1.0  0.58595  0.45608  0.09808  1.0000
  C   C3611     1.0  0.83579  0.00218  0.15316  1.0000
  C   C3612     1.0  0.86338  0.04417  0.09446  1.0000
  C   C3613     1.0  0.84505  0.04973  0.09481  1.0000
  C   C3614     1.0  0.83766  0.04574  0.08235  1.0000
  C   C3615     1.0  0.84859  0.03644  0.06930  1.0000
  C   C3616     1.0  0.86686  0.03080  0.06904  1.0000
  C   C3617     1.0  0.87421  0.03460  0.08160  1.0000
  H   H2895     1.0  0.83655  0.05710  0.10463  1.0000
  H   H2896     1.0  0.82347  0.04993  0.08277  1.0000
  H   H2897     1.0  0.87529  0.02324  0.05934  1.0000
  H   H2898     1.0  0.88830  0.02996  0.08144  1.0000
  C   C3618     1.0  0.98351  0.03832  0.14991  1.0000
  C   C3619     1.0  0.97265  0.98244  0.14666  1.0000
  S   S524      1.0  0.50451  0.33468  0.02786  1.0000
  C   C3620     1.0  0.86512  0.98261  0.08411  1.0000
  C   C3621     1.0  0.51992  0.30539  0.08057  1.0000
  H   H2899     1.0  0.48982  0.40263  0.06178  1.0000
  C   C3622     1.0  0.52305  0.28091  0.01959  1.0000
  C   C3623     1.0  0.53155  0.26307  0.01998  1.0000
  C   C3624     1.0  0.52789  0.25008  0.03541  1.0000
  C   C3625     1.0  0.51578  0.25490  0.05052  1.0000
  C   C3626     1.0  0.50661  0.27256  0.04978  1.0000
  C   C3627     1.0  0.51029  0.28555  0.03440  1.0000
  H   H2900     1.0  0.58268  0.01530  0.01132  1.0000
  H   H2901     1.0  0.61677  0.42143  0.13600  1.0000
  C   C3628     1.0  0.52309  0.35030  0.12975  1.0000
  H   H2902     1.0  0.50322  0.29912  0.03407  1.0000
  C   C3629     1.0  0.57765  0.36981  0.02319  1.0000
  C   C3630     1.0  0.56470  0.38384  0.02924  1.0000
  C   C3631     1.0  0.54730  0.38721  0.02630  1.0000
  C   C3632     1.0  0.54243  0.37626  0.01787  1.0000
  C   C3633     1.0  0.55541  0.36243  0.01144  1.0000
  C   C3634     1.0  0.57305  0.35938  0.01390  1.0000
  H   H2903     1.0  0.56817  0.39234  0.03589  1.0000
  H   H2904     1.0  0.53745  0.39822  0.03077  1.0000
  H   H2905     1.0  0.55185  0.35405  0.00471  1.0000
  H   H2906     1.0  0.58303  0.34867  0.00895  1.0000
  C   C3635     1.0  0.65695  0.39163  0.09068  1.0000
  C   C3636     1.0  0.64439  0.38594  0.10567  1.0000
  C   C3637     1.0  0.64398  0.38930  0.12229  1.0000
  C   C3638     1.0  0.65622  0.39818  0.12430  1.0000
  C   C3639     1.0  0.66942  0.40314  0.10957  1.0000
  C   C3640     1.0  0.66988  0.39969  0.09283  1.0000
  H   H2907     1.0  0.63528  0.37846  0.10464  1.0000
  H   H2908     1.0  0.63410  0.38491  0.13368  1.0000
  H   H2909     1.0  0.67912  0.40977  0.11100  1.0000
  H   H2910     1.0  0.67995  0.40375  0.08144  1.0000
  C   C3641     1.0  0.63696  0.30131  0.12031  1.0000
  C   C3642     1.0  0.62007  0.30064  0.13125  1.0000
  C   C3643     1.0  0.60589  0.31555  0.12950  1.0000
  C   C3644     1.0  0.60877  0.33134  0.11728  1.0000
  C   C3645     1.0  0.62604  0.33234  0.10763  1.0000
  C   C3646     1.0  0.63990  0.31731  0.10877  1.0000
  H   H2911     1.0  0.61791  0.28863  0.14092  1.0000
  H   H2912     1.0  0.59268  0.31479  0.13747  1.0000
  H   H2913     1.0  0.62886  0.34476  0.09941  1.0000
  H   H2914     1.0  0.65298  0.31809  0.10058  1.0000
  C   C3647     1.0  0.60596  0.20851  0.12951  1.0000
  C   C3648     1.0  0.61945  0.20779  0.11421  1.0000
  C   C3649     1.0  0.61620  0.20419  0.09904  1.0000
  C   C3650     1.0  0.59952  0.20124  0.09897  1.0000
  C   C3651     1.0  0.58619  0.20138  0.11445  1.0000
  C   C3652     1.0  0.58947  0.20489  0.12970  1.0000
  H   H2915     1.0  0.63229  0.21026  0.11397  1.0000
  H   H2916     1.0  0.62657  0.20385  0.08720  1.0000
  H   H2917     1.0  0.57334  0.19893  0.11464  1.0000
  C   C3653     1.0  0.50192  0.02047  0.04562  1.0000
  C   C3654     1.0  0.52763  0.03319  0.04271  1.0000
  C   C3655     1.0  0.53898  0.01758  0.03828  1.0000
  C   C3656     1.0  0.53176  0.00346  0.03742  1.0000
  C   C3657     1.0  0.50006  0.06206  0.01070  1.0000
  H   H2918     1.0  0.55326  0.01635  0.03570  1.0000
  C   C3658     1.0  0.53169  0.40084  0.06687  1.0000
  C   C3659     1.0  0.78705  0.11685  0.99428  1.0000
  C   C3660     1.0  0.57089  0.12926  0.00069  1.0000
  C   C3661     1.0  0.57198  0.12819  0.01835  1.0000
  C   C3662     1.0  0.56739  0.14378  0.02538  1.0000
  C   C3663     1.0  0.56177  0.16035  0.01469  1.0000
  C   C3664     1.0  0.56087  0.16126  0.99710  1.0000
  C   C3665     1.0  0.56538  0.14584  0.99016  1.0000
  H   H2919     1.0  0.57635  0.11544  0.02655  1.0000
  H   H2920     1.0  0.56812  0.14297  0.03900  1.0000
  H   H2921     1.0  0.52033  0.36353  0.15112  1.0000
  H   H2922     1.0  0.89595  0.04499  0.16724  1.0000
  C   C3666     1.0  0.76102  0.08678  0.10681  1.0000
  C   C3667     1.0  0.75886  0.10512  0.10520  1.0000
  C   C3668     1.0  0.77000  0.11164  0.11214  1.0000
  C   C3669     1.0  0.78318  0.09992  0.12082  1.0000
  C   C3670     1.0  0.78508  0.08162  0.12256  1.0000
  C   C3671     1.0  0.77411  0.07510  0.11556  1.0000
  H   H2923     1.0  0.74868  0.11422  0.09861  1.0000
  H   H2924     1.0  0.76856  0.12581  0.11061  1.0000
  H   H2925     1.0  0.79497  0.07240  0.12930  1.0000
  H   H2926     1.0  0.77584  0.06090  0.11691  1.0000
  C   C3672     1.0  0.68194  0.16053  0.09839  1.0000
  C   C3673     1.0  0.66893  0.17297  0.10694  1.0000
  C   C3674     1.0  0.67385  0.18531  0.11356  1.0000
  C   C3675     1.0  0.69186  0.18564  0.11115  1.0000
  C   C3676     1.0  0.70489  0.17383  0.10175  1.0000
  C   C3677     1.0  0.69997  0.16104  0.09570  1.0000
  H   H2927     1.0  0.71881  0.17429  0.09953  1.0000
  H   H2928     1.0  0.71016  0.15148  0.08922  1.0000
  C   C3678     1.0  0.66421  0.07173  0.05866  1.0000
  C   C3679     1.0  0.65997  0.06054  0.04998  1.0000
  C   C3680     1.0  0.64208  0.06070  0.05045  1.0000
  C   C3681     1.0  0.62832  0.07164  0.06012  1.0000
  C   C3682     1.0  0.63256  0.08320  0.06837  1.0000
  C   C3683     1.0  0.65047  0.08355  0.06728  1.0000
  H   H2929     1.0  0.67056  0.05146  0.04316  1.0000
  H   H2930     1.0  0.63892  0.05171  0.04410  1.0000
  H   H2931     1.0  0.62197  0.09167  0.07589  1.0000
  H   H2932     1.0  0.65365  0.09254  0.07356  1.0000
  C   C3684     1.0  0.73716  0.12443  0.99870  1.0000
  C   C3685     1.0  0.74299  0.13588  0.98283  1.0000
  C   C3686     1.0  0.60216  0.47446  0.14617  1.0000
  H   H2933     1.0  0.52495  0.34077  0.10623  1.0000
  P   P123      1.0  0.95205  0.00132  0.17265  1.0000
  C   C3687     1.0  0.73409  0.10801  0.99804  1.0000
  H   H2934     1.0  0.74506  0.14869  0.98318  1.0000
  C   C3688     1.0  0.50215  0.40661  0.06071  1.0000
  C   C3689     1.0  0.50166  0.09658  0.13263  1.0000
  H   H2935     1.0  0.72948  0.09910  0.01025  1.0000
  C   C3690     1.0  0.64077  0.43542  0.01156  1.0000
  C   C3691     1.0  0.91450  0.00420  0.09868  1.0000
  Fe  Fe265     1.0  0.89404  0.00232  0.01320  1.0000
  C   C3692     1.0  0.56819  0.25056  0.07078  1.0000
  H   H2936     1.0  0.70735  0.03395  0.12652  1.0000
  H   H2937     1.0  0.57059  0.45525  0.00301  1.0000
  C   C3693     1.0  0.73153  0.17199  0.14878  1.0000
  C   C3694     1.0  0.64835  0.13018  0.13536  1.0000
  H   H2938     1.0  0.49673  0.27623  0.06113  1.0000
  C   C3695     1.0  0.59186  0.45156  0.05899  1.0000
  C   C3696     1.0  0.61028  0.44497  0.05651  1.0000
  C   C3697     1.0  0.62209  0.45670  0.05004  1.0000
  Fe  Fe266     1.0  0.85248  0.08688  0.15670  1.0000
  H   H2939     1.0  0.61552  0.43081  0.05926  1.0000
  C   C3698     1.0  0.96270  0.01995  0.16843  1.0000
  H   H2940     1.0  0.65498  0.17284  0.10882  1.0000
  S   S525      1.0  0.51687  0.34962  0.98458  1.0000
  H   H2941     1.0  0.83853  0.02504  0.13182  1.0000
  H   H2942     1.0  0.63927  0.10935  0.99884  1.0000
  H   H2943     1.0  0.68352  0.44421  0.07443  1.0000
  H   H2944     1.0  0.93384  0.10291  0.17554  1.0000
  C   C3699     1.0  0.93511  0.08942  0.98417  1.0000
  H   H2945     1.0  0.82509  0.09814  0.01008  1.0000
  H   H2946     1.0  0.66368  0.19438  0.12075  1.0000
  H   H2947     1.0  0.62870  0.43974  0.08680  1.0000
  H   H2948     1.0  0.67879  0.47908  0.12041  1.0000
  H   H2949     1.0  0.76982  0.14181  0.99863  1.0000
  H   H2950     1.0  0.87324  0.99256  0.08015  1.0000
  H   H2951     1.0  0.53445  0.23638  0.03556  1.0000
  C   C3700     1.0  0.61331  0.46025  0.13856  1.0000
  C   C3701     1.0  0.61607  0.35275  0.15166  1.0000
  C   C3702     1.0  0.59451  0.47730  0.00354  1.0000
  H   H2952     1.0  0.69852  0.37744  0.14702  1.0000
  S   S526      1.0  0.71576  0.45691  0.12237  1.0000
  H   H2953     1.0  0.55543  0.32073  0.11717  1.0000
  C   C3703     1.0  0.63321  0.34217  0.14859  1.0000
  P   P124      1.0  0.66793  0.32886  0.15372  1.0000
  H   H2954     1.0  0.52422  0.00498  0.00121  1.0000
  H   H2955     1.0  0.52770  0.33720  0.13734  1.0000
  H   H2956     1.0  0.64110  0.43084  0.02561  1.0000
  H   H2957     1.0  0.57100  0.47282  0.02363  1.0000
  H   H2958     1.0  0.52490  0.10579  0.02316  1.0000
  H   H2959     1.0  0.65426  0.15782  0.15882  1.0000
  C   C3704     1.0  0.57913  0.43074  0.10996  1.0000
  C   C3705     1.0  0.75377  0.13828  0.15389  1.0000
  H   H2960     1.0  0.50081  0.32836  0.07100  1.0000
  H   H2961     1.0  0.84044  0.12451  0.98809  1.0000
  H   H2962     1.0  0.50005  0.19532  0.04070  1.0000
  C   C3706     1.0  0.68522  0.35618  0.15022  1.0000
  C   C3707     1.0  0.67503  0.32649  0.13079  1.0000
  C   C3708     1.0  0.67170  0.34139  0.11716  1.0000
  C   C3709     1.0  0.67782  0.34007  0.09929  1.0000
  C   C3710     1.0  0.68741  0.32382  0.09491  1.0000
  C   C3711     1.0  0.69094  0.30894  0.10841  1.0000
  C   C3712     1.0  0.68498  0.31031  0.12631  1.0000
  H   H2963     1.0  0.56905  0.43298  0.10222  1.0000
  C   C3713     1.0  0.86275  0.98305  0.13038  1.0000
  C   C3714     1.0  0.49697  0.15636  0.10360  1.0000
  C   C3715     1.0  0.58866  0.44394  0.10783  1.0000
  H   H2964     1.0  0.63609  0.33260  0.14016  1.0000
  H   H2965     1.0  0.68847  0.01520  0.99781  1.0000
  C   C3716     1.0  0.71421  0.10006  0.15505  1.0000
  C   C3717     1.0  0.66700  0.45524  0.09680  1.0000
  C   C3718     1.0  0.49187  0.21807  0.12083  1.0000
  H   H2966     1.0  0.65603  0.29775  0.15115  1.0000
  C   C3719     1.0  0.57172  0.42111  0.98394  1.0000
  C   C3720     1.0  0.84157  0.98384  0.15857  1.0000
  H   H2967     1.0  0.71622  0.09377  0.12943  1.0000
  C   C3721     1.0  0.66730  0.05814  0.99886  1.0000
  C   C3722     1.0  0.53411  0.35710  0.06934  1.0000
  H   H2968     1.0  0.66449  0.35410  0.12033  1.0000
  H   H2969     1.0  0.67499  0.35167  0.08888  1.0000
  H   H2970     1.0  0.69192  0.32278  0.08106  1.0000
  H   H2971     1.0  0.69815  0.29627  0.10509  1.0000
  H   H2972     1.0  0.68811  0.29873  0.13657  1.0000
  C   C3723     1.0  0.80254  0.10452  0.99771  1.0000
  H   H2973     1.0  0.50470  0.19238  0.11452  1.0000
  H   H2974     1.0  0.59886  0.98991  0.99699  1.0000
  C   C3724     1.0  0.81820  0.98899  0.98388  1.0000
  Fe  Fe267     1.0  0.65760  0.22900  0.17040  1.0000
  S   S527      1.0  0.52900  0.29730  0.00085  1.0000
  H   H2975     1.0  0.52496  0.15401  0.03811  1.0000
  C   C3725     1.0  0.57671  0.24450  0.05504  1.0000
  C   C3726     1.0  0.55123  0.24324  0.13919  1.0000
  C   C3727     1.0  0.51891  0.36514  0.13754  1.0000
  C   C3728     1.0  0.52555  0.13979  0.04148  1.0000
  H   H2976     1.0  0.76233  0.12517  0.15564  1.0000
  S   S528      1.0  0.82345  0.08695  0.16853  1.0000
  C   C3729     1.0  0.75405  0.05500  0.17063  1.0000
  H   H2977     1.0  0.60243  0.40241  0.01008  1.0000
  C   C3730     1.0  0.53914  0.24181  0.10956  1.0000
  H   H2978     1.0  0.54694  0.06460  0.98088  1.0000
  C   C3731     1.0  0.67647  0.06674  0.98261  1.0000
  H   H2979     1.0  0.49710  0.11452  0.08335  1.0000
  H   H2980     1.0  0.52424  0.46347  0.00985  1.0000
  H   H2981     1.0  0.66417  0.03313  0.01666  1.0000
  H   H2982     1.0  0.74352  0.23885  0.98911  1.0000
  C   C3732     1.0  0.94383  0.98286  0.13229  1.0000
  H   H2983     1.0  0.50141  0.03940  0.00029  1.0000
  C   C3733     1.0  0.74188  0.16718  0.16175  1.0000
  C   C3734     1.0  0.64984  0.45842  0.10737  1.0000
  C   C3735     1.0  0.53381  0.06382  0.98910  1.0000
  H   H2984     1.0  0.74309  0.06049  0.13684  1.0000
  S   S529      1.0  0.85129  0.99458  0.98177  1.0000
  H   H2985     1.0  0.57606  0.40399  0.12272  1.0000
  H   H2986     1.0  0.69186  0.09828  0.02609  1.0000
  H   H2987     1.0  0.61151  0.07345  0.12194  1.0000
  H   H2988     1.0  0.52048  0.44341  0.04453  1.0000
  H   H2989     1.0  0.62570  0.12200  0.08141  1.0000
  C   C3736     1.0  0.57300  0.25464  0.03872  1.0000
  C   C3737     1.0  0.52537  0.05032  0.98909  1.0000
  C   C3738     1.0  0.64646  0.34379  0.15652  1.0000
  H   H2990     1.0  0.57860  0.34265  0.06930  1.0000
  H   H2991     1.0  0.55202  0.36190  0.08335  1.0000
  C   C3739     1.0  0.52832  0.10288  0.04983  1.0000
  C   C3740     1.0  0.68053  0.10114  0.01981  1.0000
  S   S530      1.0  0.69776  0.43953  0.17308  1.0000
  C   C3741     1.0  0.71711  0.06260  0.15456  1.0000
  H   H2992     1.0  0.74754  0.04406  0.17246  1.0000
  C   C3742     1.0  0.77287  0.19974  0.99837  1.0000
  C   C3743     1.0  0.80871  0.12402  0.01339  1.0000
  C   C3744     1.0  0.79285  0.13612  0.01035  1.0000
  P   P125      1.0  0.82313  0.12891  0.02497  1.0000
  C   C3745     1.0  0.81984  0.11704  0.04795  1.0000
  C   C3746     1.0  0.84620  0.12269  0.01391  1.0000
  C   C3747     1.0  0.85997  0.11932  0.02319  1.0000
  C   C3748     1.0  0.87776  0.11425  0.01477  1.0000
  C   C3749     1.0  0.70039  0.05792  0.15851  1.0000
  H   H2993     1.0  0.91681  0.04161  0.97843  1.0000
  H   H2994     1.0  0.96536  0.01915  0.01783  1.0000
  C   C3750     1.0  0.82516  0.12274  0.06077  1.0000
  C   C3751     1.0  0.82337  0.11317  0.07837  1.0000
  C   C3752     1.0  0.81632  0.09784  0.08330  1.0000
  C   C3753     1.0  0.81059  0.09230  0.07080  1.0000
  C   C3754     1.0  0.81230  0.10185  0.05319  1.0000
  C   C3755     1.0  0.81801  0.15259  0.02413  1.0000
  C   C3756     1.0  0.80457  0.15986  0.03726  1.0000
  C   C3757     1.0  0.80010  0.17823  0.03634  1.0000
  C   C3758     1.0  0.80901  0.18950  0.02227  1.0000
  C   C3759     1.0  0.82233  0.18239  0.00907  1.0000
  C   C3760     1.0  0.82678  0.16401  0.00994  1.0000
  H   H2995     1.0  0.58841  0.39496  0.98927  1.0000
  C   C3761     1.0  0.56441  0.33409  0.05439  1.0000
  C   C3762     1.0  0.64221  0.35579  0.16795  1.0000
  H   H2996     1.0  0.63374  0.43655  0.14286  1.0000
  H   H2997     1.0  0.78869  0.14833  0.01525  1.0000
  H   H2998     1.0  0.85710  0.12033  0.03700  1.0000
  H   H2999     1.0  0.88822  0.11141  0.02214  1.0000
  C   C3763     1.0  0.54808  0.33610  0.04975  1.0000
  C   C3764     1.0  0.57755  0.01243  0.00119  1.0000
  C   C3765     1.0  0.49865  0.10956  0.09703  1.0000
  H   H3000     1.0  0.83088  0.13448  0.05715  1.0000
  H   H3001     1.0  0.82754  0.11749  0.08827  1.0000
  H   H3002     1.0  0.81539  0.09019  0.09683  1.0000
  H   H3003     1.0  0.80501  0.08044  0.07478  1.0000
  H   H3004     1.0  0.80806  0.09705  0.04374  1.0000
  C   C3766     1.0  0.58473  0.40831  0.99188  1.0000
  H   H3005     1.0  0.68396  0.04408  0.15148  1.0000
  H   H3006     1.0  0.80561  0.20374  0.02161  1.0000
  H   H3007     1.0  0.82926  0.19114  0.99817  1.0000
  H   H3008     1.0  0.83704  0.15879  0.99951  1.0000
  C   C3767     1.0  0.92347  0.01468  0.04034  1.0000
  C   C3768     1.0  0.94117  0.00996  0.03155  1.0000
  C   C3769     1.0  0.95163  0.02284  0.02464  1.0000
  C   C3770     1.0  0.94428  0.04050  0.02623  1.0000
  C   C3771     1.0  0.92628  0.04543  0.03441  1.0000
  C   C3772     1.0  0.91614  0.03229  0.04201  1.0000
  P   P126      1.0  0.91673  0.06812  0.03660  1.0000
  C   C3773     1.0  0.92286  0.06967  0.05648  1.0000
  C   C3774     1.0  0.92481  0.08305  0.01638  1.0000
  C   C3775     1.0  0.92542  0.10045  0.01672  1.0000
  C   C3776     1.0  0.93123  0.11208  0.00094  1.0000
  H   H3009     1.0  0.63934  0.07446  0.98291  1.0000
  H   H3010     1.0  0.74684  0.10032  0.16110  1.0000
  C   C3777     1.0  0.92930  0.07778  0.99989  1.0000
  C   C3778     1.0  0.91458  0.06113  0.07325  1.0000
  C   C3779     1.0  0.91923  0.06204  0.08876  1.0000
  C   C3780     1.0  0.93268  0.07090  0.08764  1.0000
  C   C3781     1.0  0.94167  0.07862  0.07097  1.0000
  C   C3782     1.0  0.93692  0.07785  0.05542  1.0000
  C   C3783     1.0  0.89285  0.07217  0.03837  1.0000
  C   C3784     1.0  0.88633  0.06949  0.02463  1.0000
  C   C3785     1.0  0.86801  0.07127  0.02617  1.0000
  C   C3786     1.0  0.85606  0.07565  0.04146  1.0000
  C   C3787     1.0  0.86231  0.07918  0.05483  1.0000
  C   C3788     1.0  0.88060  0.07774  0.05320  1.0000
  H   H3011     1.0  0.60040  0.39825  0.13903  1.0000
  H   H3012     1.0  0.94665  0.99634  0.02993  1.0000
  H   H3013     1.0  0.65013  0.40918  0.00580  1.0000
  H   H3014     1.0  0.95256  0.05033  0.02083  1.0000
  H   H3015     1.0  0.90243  0.03569  0.04886  1.0000
  H   H3016     1.0  0.92124  0.10510  0.02913  1.0000
  Fe  Fe268     1.0  0.83142  0.05757  0.16892  1.0000
  H   H3017     1.0  0.50121  0.21772  0.12878  1.0000
  H   H3018     1.0  0.74511  0.47416  0.10761  1.0000
  H   H3019     1.0  0.92822  0.06473  0.99902  1.0000
  H   H3020     1.0  0.90438  0.05386  0.07444  1.0000
  H   H3021     1.0  0.91227  0.05589  0.10165  1.0000
  H   H3022     1.0  0.49715  0.37559  0.04964  1.0000
  C   C3789     1.0  0.78212  0.13252  0.00080  1.0000
  H   H3023     1.0  0.94446  0.08339  0.04266  1.0000
  H   H3024     1.0  0.89540  0.06557  0.01286  1.0000
  H   H3025     1.0  0.86317  0.06866  0.01571  1.0000
  H   H3026     1.0  0.84202  0.07589  0.04307  1.0000
  H   H3027     1.0  0.85303  0.08246  0.06676  1.0000
  H   H3028     1.0  0.88494  0.08067  0.06375  1.0000
  P   P127      1.0  0.61334  0.45858  0.11618  1.0000
  H   H3029     1.0  0.80613  0.09217  0.99309  1.0000
  C   C3790     1.0  0.65831  0.29578  0.16446  1.0000
  C   C3791     1.0  0.50576  0.15354  0.11765  1.0000
  C   C3792     1.0  0.53393  0.04757  0.08603  1.0000
  C   C3793     1.0  0.55165  0.03873  0.08589  1.0000
  C   C3794     1.0  0.56440  0.04814  0.08555  1.0000
  C   C3795     1.0  0.55950  0.06642  0.08515  1.0000
  C   C3796     1.0  0.54184  0.07554  0.08465  1.0000
  C   C3797     1.0  0.52904  0.06591  0.08530  1.0000
  P   P128      1.0  0.53516  0.09925  0.08368  1.0000
  C   C3798     1.0  0.55303  0.10799  0.08633  1.0000
  C   C3799     1.0  0.55122  0.11590  0.10075  1.0000
  C   C3800     1.0  0.56530  0.12248  0.10242  1.0000
  C   C3801     1.0  0.58111  0.12165  0.08952  1.0000
  C   C3802     1.0  0.58280  0.11434  0.07481  1.0000
  C   C3803     1.0  0.56877  0.10768  0.07314  1.0000
  C   C3804     1.0  0.53006  0.11151  0.06245  1.0000
  C   C3805     1.0  0.49694  0.14813  0.13516  1.0000
  C   C3806     1.0  0.52838  0.13007  0.05826  1.0000
  H   H3030     1.0  0.55554  0.02468  0.08565  1.0000
  H   H3031     1.0  0.57822  0.04140  0.08522  1.0000
  H   H3032     1.0  0.56966  0.07325  0.08500  1.0000
  H   H3033     1.0  0.53889  0.11752  0.11051  1.0000
  H   H3034     1.0  0.56367  0.12863  0.11356  1.0000
  H   H3035     1.0  0.59186  0.12703  0.09071  1.0000
  H   H3036     1.0  0.59494  0.11376  0.06464  1.0000
  H   H3037     1.0  0.57031  0.10209  0.06162  1.0000
  H   H3038     1.0  0.52972  0.08843  0.12239  1.0000
  H   H3039     1.0  0.55660  0.17401  0.98878  1.0000
  H   H3040     1.0  0.52969  0.13700  0.06781  1.0000
  H   H3041     1.0  0.56216  0.16825  0.11249  1.0000
  C   C3807     1.0  0.79600  0.99691  0.02426  1.0000
  H   H3042     1.0  0.50981  0.39357  0.13381  1.0000
  C   C3808     1.0  0.81683  0.00828  0.03355  1.0000
  C   C3809     1.0  0.80730  0.02563  0.02881  1.0000
  C   C3810     1.0  0.79178  0.02873  0.02210  1.0000
  C   C3811     1.0  0.78636  0.01423  0.01960  1.0000
  P   P129      1.0  0.77946  0.05115  0.01573  1.0000
  C   C3812     1.0  0.77794  0.06487  0.03121  1.0000
  C   C3813     1.0  0.79039  0.06157  0.99397  1.0000
  C   C3814     1.0  0.80039  0.99412  0.98190  1.0000
  C   C3815     1.0  0.51144  0.38420  0.11015  1.0000
  H   H3043     1.0  0.57613  0.32546  0.04845  1.0000
  C   C3816     1.0  0.55581  0.02020  0.98229  1.0000
  C   C3817     1.0  0.80897  0.05697  0.98842  1.0000
  C   C3818     1.0  0.78119  0.05740  0.04845  1.0000
  C   C3819     1.0  0.77916  0.06834  0.06038  1.0000
  C   C3820     1.0  0.77351  0.08673  0.05538  1.0000
  C   C3821     1.0  0.76989  0.09420  0.03841  1.0000
  C   C3822     1.0  0.77189  0.08331  0.02647  1.0000
  C   C3823     1.0  0.75679  0.05000  0.01653  1.0000
  C   C3824     1.0  0.75179  0.04804  0.00155  1.0000
  C   C3825     1.0  0.73451  0.04586  0.00277  1.0000
  C   C3826     1.0  0.72207  0.04583  0.01885  1.0000
  C   C3827     1.0  0.72706  0.04752  0.03385  1.0000
  C   C3828     1.0  0.74431  0.04955  0.03275  1.0000
  C   C3829     1.0  0.61268  0.46177  0.17374  1.0000
  C   C3830     1.0  0.50881  0.07507  0.01107  1.0000
  H   H3044     1.0  0.82859  0.00605  0.03898  1.0000
  H   H3045     1.0  0.81210  0.03658  0.03040  1.0000
  H   H3046     1.0  0.77487  0.01618  0.01380  1.0000
  H   H3047     1.0  0.92767  0.99820  0.15136  1.0000
  C   C3831     1.0  0.95559  0.99182  0.15330  1.0000
  H   H3048     1.0  0.50281  0.09171  0.14643  1.0000
  C   C3832     1.0  0.55066  0.35493  0.07389  1.0000
  H   H3049     1.0  0.81675  0.04655  0.99665  1.0000
  H   H3050     1.0  0.78471  0.04315  0.05300  1.0000
  H   H3051     1.0  0.78132  0.06247  0.07379  1.0000
  H   H3052     1.0  0.77131  0.09506  0.06493  1.0000
  H   H3053     1.0  0.76475  0.10833  0.03466  1.0000
  H   H3054     1.0  0.76808  0.08928  0.01377  1.0000
  H   H3055     1.0  0.76135  0.04766  0.98907  1.0000
  H   H3056     1.0  0.73087  0.04371  0.99139  1.0000
  H   H3057     1.0  0.70867  0.04419  0.01980  1.0000
  H   H3058     1.0  0.71760  0.04700  0.04645  1.0000
  H   H3059     1.0  0.74790  0.05049  0.04468  1.0000
  H   H3060     1.0  0.53414  0.21613  0.12440  1.0000
  C   C3833     1.0  0.67157  0.03964  0.00427  1.0000
  C   C3834     1.0  0.70333  0.13135  0.15626  1.0000
  C   C3835     1.0  0.56674  0.43831  0.98757  1.0000
  C   C3836     1.0  0.90021  0.99607  0.10822  1.0000
  C   C3837     1.0  0.75355  0.08659  0.16437  1.0000
  H   H3061     1.0  0.64742  0.46559  0.11793  1.0000
  C   C3838     1.0  0.66447  0.30851  0.16937  1.0000
  H   H3062     1.0  0.65884  0.43450  0.06811  1.0000
  H   H3063     1.0  0.63589  0.11853  0.02692  1.0000
  C   C3839     1.0  0.57457  0.44231  0.99961  1.0000
  C   C3840     1.0  0.97581  0.02354  0.15304  1.0000
  C   C3841     1.0  0.51555  0.10196  0.10116  1.0000
  H   H3064     1.0  0.93624  0.07162  0.09970  1.0000
  H   H3065     1.0  0.67781  0.45941  0.09956  1.0000
  C   C3842     1.0  0.72678  0.04628  0.13054  1.0000
  H   H3066     1.0  0.54057  0.99142  0.03397  1.0000
  H   H3067     1.0  0.77862  0.11405  0.98696  1.0000
  H   H3068     1.0  0.73688  0.04225  0.11937  1.0000
  Fe  Fe269     1.0  0.69925  0.41054  0.17529  1.0000
  C   C3843     1.0  0.53305  0.34777  0.05695  1.0000
  C   C3844     1.0  0.82875  0.00170  0.97987  1.0000
  C   C3845     1.0  0.76246  0.19148  0.01381  1.0000
  C   C3846     1.0  0.74513  0.20030  0.02052  1.0000
  C   C3847     1.0  0.73837  0.21741  0.01145  1.0000
  P   P130      1.0  0.73114  0.18979  0.04015  1.0000
  C   C3848     1.0  0.71497  0.18154  0.03373  1.0000
  C   C3849     1.0  0.74466  0.17104  0.05234  1.0000
  C   C3850     1.0  0.75120  0.15523  0.04585  1.0000
  C   C3851     1.0  0.76245  0.14094  0.05457  1.0000
  C   C3852     1.0  0.76690  0.14209  0.07007  1.0000
  C   C3853     1.0  0.76014  0.15761  0.07687  1.0000
  C   C3854     1.0  0.74912  0.17208  0.06802  1.0000
  C   C3855     1.0  0.70415  0.17100  0.04666  1.0000
  C   C3856     1.0  0.69141  0.16473  0.04205  1.0000
  C   C3857     1.0  0.68999  0.16813  0.02427  1.0000
  C   C3858     1.0  0.70105  0.17818  0.01116  1.0000
  C   C3859     1.0  0.71343  0.18498  0.01585  1.0000
  C   C3860     1.0  0.72068  0.20609  0.05401  1.0000
  C   C3861     1.0  0.73048  0.21793  0.05539  1.0000
  C   C3862     1.0  0.72297  0.22999  0.06674  1.0000
  C   C3863     1.0  0.70565  0.23032  0.07682  1.0000
  C   C3864     1.0  0.69574  0.21881  0.07535  1.0000
  C   C3865     1.0  0.70319  0.20671  0.06405  1.0000
  C   C3866     1.0  0.58742  0.42941  0.00770  1.0000
  H   H3069     1.0  0.50690  0.39744  0.10281  1.0000
  H   H3070     1.0  0.98381  0.98153  0.15258  1.0000
  H   H3071     1.0  0.76802  0.17827  0.02036  1.0000
  H   H3072     1.0  0.72495  0.22435  0.01628  1.0000
  H   H3073     1.0  0.74768  0.15399  0.03398  1.0000
  H   H3074     1.0  0.76750  0.12884  0.04946  1.0000
  H   H3075     1.0  0.77560  0.13093  0.07677  1.0000
  H   H3076     1.0  0.76337  0.15840  0.08907  1.0000
  H   H3077     1.0  0.74404  0.18392  0.07359  1.0000
  H   H3078     1.0  0.70552  0.16763  0.06035  1.0000
  H   H3079     1.0  0.68279  0.15702  0.05230  1.0000
  H   H3080     1.0  0.68052  0.16271  0.02066  1.0000
  H   H3081     1.0  0.70021  0.18046  0.99732  1.0000
  H   H3082     1.0  0.72193  0.19254  0.00541  1.0000
  H   H3083     1.0  0.74408  0.21758  0.04802  1.0000
  H   H3084     1.0  0.73069  0.23881  0.06809  1.0000
  H   H3085     1.0  0.70003  0.23911  0.08618  1.0000
  H   H3086     1.0  0.68252  0.21875  0.08364  1.0000
  H   H3087     1.0  0.69534  0.19763  0.06370  1.0000
  C   C3867     1.0  0.77130  0.08282  0.16617  1.0000
  H   H3088     1.0  0.72387  0.16364  0.12875  1.0000
  H   H3089     1.0  0.69552  0.08856  0.99809  1.0000
  C   C3868     1.0  0.66020  0.22768  0.03271  1.0000
  C   C3869     1.0  0.66260  0.21201  0.04558  1.0000
  C   C3870     1.0  0.65759  0.21265  0.06366  1.0000
  C   C3871     1.0  0.64995  0.22893  0.06889  1.0000
  C   C3872     1.0  0.64698  0.24467  0.05605  1.0000
  C   C3873     1.0  0.65258  0.24400  0.03791  1.0000
  P   P131      1.0  0.63777  0.26573  0.06286  1.0000
  C   C3874     1.0  0.62233  0.26213  0.08396  1.0000
  C   C3875     1.0  0.65678  0.27416  0.06315  1.0000
  C   C3876     1.0  0.66445  0.26904  0.07824  1.0000
  C   C3877     1.0  0.67898  0.27582  0.07850  1.0000
  C   C3878     1.0  0.68632  0.28732  0.06350  1.0000
  C   C3879     1.0  0.67933  0.29181  0.04810  1.0000
  C   C3880     1.0  0.66475  0.28511  0.04784  1.0000
  C   C3881     1.0  0.62184  0.27042  0.09775  1.0000
  C   C3882     1.0  0.61008  0.26690  0.11411  1.0000
  C   C3883     1.0  0.59831  0.25572  0.11663  1.0000
  C   C3884     1.0  0.59800  0.24827  0.10265  1.0000
  C   C3885     1.0  0.61005  0.25130  0.08643  1.0000
  C   C3886     1.0  0.62424  0.28094  0.04792  1.0000
  C   C3887     1.0  0.61422  0.27454  0.03965  1.0000
  C   C3888     1.0  0.60349  0.28639  0.02836  1.0000
  C   C3889     1.0  0.60248  0.30469  0.02545  1.0000
  C   C3890     1.0  0.61200  0.31119  0.03403  1.0000
  C   C3891     1.0  0.62267  0.29940  0.04539  1.0000
  H   H3090     1.0  0.66422  0.22716  0.01870  1.0000
  H   H3091     1.0  0.66836  0.19936  0.04158  1.0000
  H   H3092     1.0  0.65961  0.20050  0.07366  1.0000
  H   H3093     1.0  0.64633  0.22918  0.08298  1.0000
  H   H3094     1.0  0.65101  0.25606  0.02779  1.0000
  H   H3095     1.0  0.65909  0.26008  0.08997  1.0000
  H   H3096     1.0  0.68426  0.27239  0.09054  1.0000
  H   H3097     1.0  0.69737  0.29277  0.06386  1.0000
  H   H3098     1.0  0.68509  0.30065  0.03641  1.0000
  H   H3099     1.0  0.65965  0.28860  0.03572  1.0000
  H   H3100     1.0  0.63050  0.27951  0.09608  1.0000
  H   H3101     1.0  0.61021  0.27262  0.12499  1.0000
  H   H3102     1.0  0.58968  0.25254  0.12953  1.0000
  H   H3103     1.0  0.58890  0.23954  0.10469  1.0000
  H   H3104     1.0  0.60994  0.24491  0.07595  1.0000
  H   H3105     1.0  0.61459  0.26042  0.04198  1.0000
  H   H3106     1.0  0.59590  0.28141  0.02187  1.0000
  C   C3892     1.0  0.92610  0.99783  0.08409  1.0000
  H   H3107     1.0  0.61095  0.32544  0.03202  1.0000
  H   H3108     1.0  0.62952  0.30476  0.05232  1.0000
  H   H3109     1.0  0.63156  0.13677  0.04987  1.0000
  C   C3893     1.0  0.58879  0.15305  0.11305  1.0000
  C   C3894     1.0  0.59670  0.41119  0.13079  1.0000
  C   C3895     1.0  0.52599  0.43358  0.99832  1.0000
  C   C3896     1.0  0.57073  0.15838  0.12041  1.0000
  H   H3110     1.0  0.59399  0.15933  0.09951  1.0000
  H   H3111     1.0  0.70416  0.12447  0.11546  1.0000
  C   C3897     1.0  0.63960  0.07344  0.11385  1.0000
  C   C3898     1.0  0.50851  0.27852  0.09417  1.0000
  H   H3112     1.0  0.91529  0.00474  0.04552  1.0000
  C   C3899     1.0  0.58533  0.47002  0.05626  1.0000
  H   H3113     1.0  0.54943  0.15473  0.14328  1.0000
  H   H3114     1.0  0.64335  0.05963  0.11262  1.0000
  H   H3115     1.0  0.89164  0.00103  0.11968  1.0000
  C   C3900     1.0  0.52561  0.11263  0.03302  1.0000
  C   C3901     1.0  0.66787  0.09887  0.99593  1.0000
  S   S531      1.0  0.88316  0.06700  0.97797  1.0000
  C   C3902     1.0  0.56356  0.15074  0.13786  1.0000
  C   C3903     1.0  0.73742  0.10298  0.98144  1.0000
  C   C3904     1.0  0.69694  0.04749  0.14853  1.0000
  H   H3116     1.0  0.55813  0.27891  0.02542  1.0000
  H   H3117     1.0  0.53349  0.43119  0.00864  1.0000
  C   C3905     1.0  0.62868  0.13515  0.07792  1.0000
  C   C3906     1.0  0.63207  0.14346  0.05993  1.0000
  C   C3907     1.0  0.62166  0.08126  0.11909  1.0000
  C   C3908     1.0  0.56107  0.27105  0.03808  1.0000
  C   C3909     1.0  0.63572  0.16053  0.05499  1.0000
  C   C3910     1.0  0.65261  0.08368  0.10928  1.0000
  H   H3118     1.0  0.63797  0.16712  0.04109  1.0000
  H   H3119     1.0  0.66641  0.07775  0.10443  1.0000
  C   C3911     1.0  0.61672  0.09927  0.11995  1.0000
  S   S532      1.0  0.65444  0.40236  0.14562  1.0000
  H   H3120     1.0  0.60266  0.10509  0.12334  1.0000
  H   H3121     1.0  0.65028  0.27047  0.17299  1.0000
  C   C3912     1.0  0.73218  0.15994  0.13850  1.0000
  C   C3913     1.0  0.59985  0.13991  0.12320  1.0000
  C   C3914     1.0  0.62890  0.14389  0.09116  1.0000
  C   C3915     1.0  0.57457  0.13788  0.14816  1.0000
  C   C3916     1.0  0.62975  0.10966  0.11559  1.0000
  C   C3917     1.0  0.70590  0.12153  0.12910  1.0000
  C   C3918     1.0  0.50912  0.03443  0.04668  1.0000
  C   C3919     1.0  0.81585  0.13546  0.15171  1.0000
  C   C3920     1.0  0.56216  0.02343  0.99585  1.0000
  S   S533      1.0  0.86057  0.05724  0.15890  1.0000
  H   H3122     1.0  0.73345  0.47383  0.15917  1.0000
  H   H3123     1.0  0.52416  0.04039  0.08569  1.0000
  H   H3124     1.0  0.74233  0.44716  0.14593  1.0000
  S   S534      1.0  0.66801  0.44709  0.14800  1.0000
  P   P132      1.0  0.62342  0.13346  0.11443  1.0000
  C   C3921     1.0  0.55244  0.27712  0.05379  1.0000
  C   C3922     1.0  0.59270  0.13260  0.14092  1.0000
  C   C3923     1.0  0.64769  0.10180  0.10975  1.0000
  C   C3924     1.0  0.81126  0.99393  0.03118  1.0000
  H   H3125     1.0  0.50381  0.16032  0.09000  1.0000
  C   C3925     1.0  0.56577  0.34372  0.06621  1.0000
  H   H3126     1.0  0.51537  0.07264  0.08476  1.0000
  C   C3926     1.0  0.59260  0.41247  0.00370  1.0000
  C   C3927     1.0  0.66378  0.10967  0.02794  1.0000
  H   H3127     1.0  0.79182  0.98585  0.02206  1.0000
  C   C3928     1.0  0.53320  0.41830  0.05848  1.0000
  H   H3128     1.0  0.54525  0.42279  0.05776  1.0000
  S   S535      1.0  0.65659  0.20540  0.16011  1.0000
  H   H3129     1.0  0.65779  0.10984  0.10499  1.0000
  C   C3929     1.0  0.71260  0.10407  0.13716  1.0000
  C   C3930     1.0  0.70999  0.11391  0.16439  1.0000
  H   H3130     1.0  0.66214  0.11345  0.04052  1.0000
  C   C3931     1.0  0.51687  0.09497  0.11902  1.0000
  H   H3131     1.0  0.54303  0.28973  0.05293  1.0000
  C   C3932     1.0  0.63604  0.16926  0.06804  1.0000
  C   C3933     1.0  0.88198  0.11227  0.99709  1.0000
  C   C3934     1.0  0.65562  0.13617  0.14645  1.0000
  C   C3935     1.0  0.51318  0.00492  0.04101  1.0000
  C   C3936     1.0  0.63258  0.16102  0.08605  1.0000
  H   H3132     1.0  0.60119  0.12282  0.14911  1.0000
  C   C3937     1.0  0.93618  0.10652  0.98469  1.0000
  C   C3938     1.0  0.49445  0.36615  0.07816  1.0000
  C   C3939     1.0  0.73564  0.46079  0.16775  1.0000
  C   C3940     1.0  0.51592  0.36939  0.10214  1.0000
  H   H3133     1.0  0.74681  0.41706  0.16520  1.0000
  C   C3941     1.0  0.58305  0.41442  0.12154  1.0000
  C   C3942     1.0  0.85633  0.00133  0.12478  1.0000
  H   H3134     1.0  0.57914  0.20505  0.14163  1.0000
  H   H3135     1.0  0.57109  0.47523  0.05850  1.0000
  C   C3943     1.0  0.61197  0.36481  0.16291  1.0000
  H   H3136     1.0  0.63838  0.18267  0.06430  1.0000
  H   H3137     1.0  0.60599  0.35152  0.14532  1.0000
  C   C3944     1.0  0.68525  0.02955  0.99367  1.0000
  C   C3945     1.0  0.60173  0.44119  0.11787  1.0000
  C   C3946     1.0  0.52438  0.13104  0.02879  1.0000
  C   C3947     1.0  0.63388  0.16384  0.14356  1.0000
  H   H3138     1.0  0.72202  0.35863  0.16323  1.0000
  H   H3139     1.0  0.73521  0.09028  0.98087  1.0000
  C   C3948     1.0  0.55575  0.26681  0.07031  1.0000
  C   C3949     1.0  0.52566  0.07599  0.00022  1.0000
  P   P133      1.0  0.51476  0.37205  0.07913  1.0000
  C   C3950     1.0  0.51300  0.38207  0.12777  1.0000
  H   H3140     1.0  0.63086  0.46277  0.01359  1.0000
  H   H3141     1.0  0.53490  0.24076  0.09799  1.0000
  H   H3142     1.0  0.61524  0.16656  0.12724  1.0000
  H   H3143     1.0  0.63261  0.16813  0.09590  1.0000
  H   H3144     1.0  0.55532  0.03431  0.00250  1.0000
  C   C3951     1.0  0.65101  0.10724  0.00430  1.0000
  S   S536      1.0  0.67722  0.23913  0.14645  1.0000
  H   H3145     1.0  0.95239  0.08513  0.07009  1.0000
  C   C3952     1.0  0.70112  0.13511  0.13870  1.0000
  Fe  Fe270     1.0  0.63428  0.22351  0.14741  1.0000
  S   S537      1.0  0.60903  0.21442  0.14836  1.0000
  P   P134      1.0  0.54544  0.27526  0.09044  1.0000
  H   H3146     1.0  0.55643  0.26863  0.12495  1.0000
  C   C3953     1.0  0.63378  0.14103  0.12816  1.0000
  H   H3147     1.0  0.62832  0.17692  0.14667  1.0000
  H   H3148     1.0  0.82562  0.00963  0.16208  1.0000
  C   C3954     1.0  0.64585  0.42322  0.00039  1.0000
  C   C3955     1.0  0.62398  0.44778  0.16621  1.0000
  C   C3956     1.0  0.63509  0.45350  0.00471  1.0000
  C   C3957     1.0  0.53881  0.22776  0.12441  1.0000
  C   C3958     1.0  0.62655  0.15790  0.13248  1.0000
  C   C3959     1.0  0.55810  0.29026  0.09258  1.0000
  C   C3960     1.0  0.51805  0.00716  0.98991  1.0000
  H   H3149     1.0  0.54123  0.25932  0.00847  1.0000
  C   C3961     1.0  0.73028  0.05665  0.14052  1.0000
  H   H3150     1.0  0.92826  0.03347  0.15873  1.0000
  C   C3962     1.0  0.50291  0.31455  0.07782  1.0000
  C   C3963     1.0  0.54508  0.25698  0.10962  1.0000
  C   C3964     1.0  0.68254  0.09558  0.00398  1.0000
  H   H3151     1.0  0.52085  0.34951  0.05253  1.0000
  H   H3152     1.0  0.74338  0.13365  0.13331  1.0000
  C   C3965     1.0  0.60187  0.47519  0.16368  1.0000
  H   H3153     1.0  0.53264  0.08582  0.00080  1.0000
  C   C3966     1.0  0.64901  0.11257  0.02028  1.0000
  C   C3967     1.0  0.51148  0.42542  0.00182  1.0000
  C   C3968     1.0  0.55069  0.30164  0.10474  1.0000
  S   S538      1.0  0.63342  0.24620  0.16001  1.0000
  H   H3154     1.0  0.58648  0.31969  0.10044  1.0000
  C   C3969     1.0  0.57852  0.31158  0.09819  1.0000
  H   H3155     1.0  0.50028  0.04640  0.05031  1.0000
  C   C3970     1.0  0.74883  0.22564  0.99604  1.0000
  Fe  Fe271     1.0  0.67182  0.41734  0.15228  1.0000
  C   C3971     1.0  0.57569  0.29002  0.08293  1.0000
  H   H3156     1.0  0.91650  0.01549  0.10264  1.0000
  H   H3157     1.0  0.50785  0.41701  0.01472  1.0000
  H   H3158     1.0  0.58179  0.28141  0.07349  1.0000
  H   H3159     1.0  0.59940  0.30041  0.07847  1.0000
  S   S539      1.0  0.87131  0.10044  0.16332  1.0000
  C   C3972     1.0  0.58580  0.30070  0.08574  1.0000
  H   H3160     1.0  0.59867  0.37293  0.16535  1.0000
  C   C3973     1.0  0.56093  0.31218  0.10758  1.0000
  S   S540      1.0  0.52782  0.15622  0.11421  1.0000
  C   C3974     1.0  0.86843  0.11596  0.98761  1.0000
  H   H3161     1.0  0.67507  0.36468  0.14317  1.0000
  C   C3975     1.0  0.54484  0.22846  0.13919  1.0000
  H   H3162     1.0  0.51034  0.26446  0.09985  1.0000
  H   H3163     1.0  0.69552  0.14857  0.13263  1.0000
  H   H3164     1.0  0.63268  0.43758  0.17385  1.0000
  C   C3976     1.0  0.50371  0.42408  0.05221  1.0000
  H   H3165     1.0  0.57120  0.24235  0.08324  1.0000
  C   C3977     1.0  0.94115  0.99190  0.14603  1.0000
  H   H3166     1.0  0.53717  0.30196  0.11237  1.0000
  H   H3167     1.0  0.65416  0.11710  0.13258  1.0000
  C   C3978     1.0  0.55125  0.25749  0.12455  1.0000
  H   H3168     1.0  0.50367  0.14588  0.14603  1.0000
  H   H3169     1.0  0.54253  0.39217  0.07268  1.0000
  C   C3979     1.0  0.76608  0.21681  0.98950  1.0000
  C   C3980     1.0  0.64849  0.15304  0.15044  1.0000
  H   H3170     1.0  0.69981  0.14200  0.16354  1.0000
  H   H3171     1.0  0.54493  0.21737  0.15050  1.0000
  C   C3981     1.0  0.58012  0.99437  0.98006  1.0000
  C   C3982     1.0  0.77182  0.05131  0.17242  1.0000
  H   H3172     1.0  0.55639  0.24352  0.15048  1.0000
  H   H3173     1.0  0.86148  0.00820  0.11151  1.0000
  H   H3174     1.0  0.78956  0.13712  0.14829  1.0000
  C   C3983     1.0  0.92045  0.02602  0.17009  1.0000
  C   C3984     1.0  0.62445  0.44715  0.14866  1.0000
  C   C3985     1.0  0.74323  0.14308  0.14107  1.0000
  H   H3175     1.0  0.72277  0.18503  0.14680  1.0000
  C   C3986     1.0  0.69861  0.36347  0.15228  1.0000
  H   H3176     1.0  0.93714  0.00415  0.07668  1.0000
  C   C3987     1.0  0.50834  0.04960  0.99990  1.0000
  C   C3988     1.0  0.69869  0.32733  0.16570  1.0000
  C   C3989     1.0  0.60600  0.42448  0.12899  1.0000
  H   H3177     1.0  0.66684  0.12771  0.15190  1.0000
  C   C3990     1.0  0.71011  0.04173  0.13450  1.0000
  H   H3178     1.0  0.56905  0.13206  0.16175  1.0000
  H   H3179     1.0  0.59414  0.31387  0.01671  1.0000
  H   H3180     1.0  0.54716  0.32909  0.04009  1.0000
  C   C3991     1.0  0.84311  0.01089  0.13621  1.0000
  C   C3992     1.0  0.71192  0.35281  0.16124  1.0000
  C   C3993     1.0  0.68494  0.33813  0.15721  1.0000
  C   C3994     1.0  0.85064  0.12143  0.99585  1.0000
  C   C3995     1.0  0.52157  0.35238  0.11213  1.0000
  C   C3996     1.0  0.67023  0.44671  0.08260  1.0000
  C   C3997     1.0  0.52294  0.28724  0.08864  1.0000
  C   C3998     1.0  0.81323  0.10796  0.00740  1.0000
  C   C3999     1.0  0.78898  0.14186  0.17416  1.0000
  H   H3181     1.0  0.53084  0.31231  0.07590  1.0000
  C   C4000     1.0  0.82630  0.13643  0.16302  1.0000
  H   H3182     1.0  0.76635  0.07889  0.98686  1.0000
  H   H3183     1.0  0.89497  0.11461  0.17492  1.0000
  H   H3184     1.0  0.82217  0.13215  0.13879  1.0000
  C   C4001     1.0  0.62506  0.36641  0.17097  1.0000
  H   H3185     1.0  0.79750  0.15134  0.04818  1.0000
  C   C4002     1.0  0.58662  0.99802  0.99318  1.0000
  H   H3186     1.0  0.52290  0.13847  0.01556  1.0000
  C   C4003     1.0  0.63592  0.45259  0.10411  1.0000
  C   C4004     1.0  0.79727  0.13823  0.15721  1.0000
  C   C4005     1.0  0.63928  0.44409  0.08978  1.0000
  C   C4006     1.0  0.65634  0.44127  0.07901  1.0000
  H   H3187     1.0  0.84075  0.13390  0.15889  1.0000
  H   H3188     1.0  0.77902  0.03767  0.17550  1.0000
  C   C4007     1.0  0.78062  0.07502  0.98281  1.0000
  H   H3189     1.0  0.50295  0.98675  0.00257  1.0000
  H   H3190     1.0  0.78620  0.19284  0.99324  1.0000
  C   C4008     1.0  0.75311  0.15024  0.16445  1.0000
  P   P135      1.0  0.72129  0.07737  0.16623  1.0000
  C   C4009     1.0  0.97810  0.04967  0.16202  1.0000
  H   H3191     1.0  0.74074  0.17673  0.16972  1.0000
  C   C4010     1.0  0.50205  0.42754  0.98855  1.0000
  H   H3192     1.0  0.92285  0.07945  0.16857  1.0000
  H   H3193     1.0  0.50269  0.08414  0.02010  1.0000
  C   C4011     1.0  0.53084  0.47446  0.00346  1.0000
  H   H3194     1.0  0.85222  0.99358  0.06183  1.0000
  C   C4012     1.0  0.89718  0.98176  0.10289  1.0000
  C   C4013     1.0  0.85316  0.98324  0.07367  1.0000
  C   C4014     1.0  0.90212  0.03253  0.17478  1.0000
  C   C4015     1.0  0.74470  0.07270  0.16684  1.0000
  C   C4016     1.0  0.71972  0.47635  0.12593  1.0000
  H   H3195     1.0  0.77815  0.09353  0.16427  1.0000
  H   H3196     1.0  0.98004  0.01509  0.14338  1.0000
  C   C4017     1.0  0.74349  0.42876  0.17100  1.0000
  C   C4018     1.0  0.92342  0.98330  0.07901  1.0000
  H   H3197     1.0  0.72212  0.32650  0.17514  1.0000
  H   H3198     1.0  0.69923  0.31322  0.17064  1.0000
  C   C4019     1.0  0.61563  0.47511  0.04603  1.0000
  H   H3199     1.0  0.57606  0.47792  0.11928  1.0000
  C   C4020     1.0  0.54357  0.47402  0.98745  1.0000
  S   S541      1.0  0.91938  0.98303  0.01905  1.0000
  H   H3200     1.0  0.65210  0.35700  0.17452  1.0000
  C   C4021     1.0  0.78036  0.06522  0.17033  1.0000
  H   H3201     1.0  0.79406  0.06237  0.17185  1.0000
  C   C4022     1.0  0.69472  0.03799  0.97769  1.0000
  H   H3202     1.0  0.98406  0.06112  0.15956  1.0000
  C   C4023     1.0  0.63441  0.45959  0.98661  1.0000
  H   H3203     1.0  0.79227  0.98423  0.98529  1.0000
  H   H3204     1.0  0.67512  0.47354  0.03829  1.0000
  H   H3205     1.0  0.68986  0.06248  0.16905  1.0000
  C   C4024     1.0  0.64532  0.42912  0.98231  1.0000
  P   P136      1.0  0.54985  0.45473  0.97732  1.0000
  H   H3206     1.0  0.49119  0.42066  0.99118  1.0000
  H   H3207     1.0  0.70670  0.47712  0.03033  1.0000
  C   C4025     1.0  0.60282  0.47973  0.10439  1.0000
  C   C4026     1.0  0.53086  0.44448  0.98162  1.0000
  C   C4027     1.0  0.49754  0.99958  0.97653  1.0000
  C   C4028     1.0  0.48928  0.36930  0.06179  1.0000
  H   H3208     1.0  0.65280  0.48013  0.99912  1.0000
  H   H3209     1.0  0.93254  0.98225  0.12732  1.0000
  H   H3210     1.0  0.56456  0.14678  0.97655  1.0000
  C   C4029     1.0  0.63986  0.46259  0.23021  1.0000
  C   C4030     1.0  0.56450  0.42992  0.32174  1.0000
  H   H3211     1.0  0.92442  0.05123  0.34677  1.0000
  S   S542      1.0  0.65878  0.22847  0.19888  1.0000
  Fe  Fe272     1.0  0.64898  0.46528  0.28959  1.0000
  H   H3212     1.0  0.72695  0.30411  0.36947  1.0000
  S   S543      1.0  0.94153  0.36454  0.33691  1.0000
  H   H3213     1.0  0.93202  0.13574  0.30850  1.0000
  Fe  Fe273     1.0  0.96152  0.31499  0.35339  1.0000
  S   S544      1.0  0.96738  0.32880  0.32477  1.0000
  C   C4031     1.0  0.98212  0.13522  0.30390  1.0000
  H   H3214     1.0  0.97856  0.04758  0.29059  1.0000
  C   C4032     1.0  0.65544  0.44248  0.36383  1.0000
  Fe  Fe274     1.0  0.93804  0.34058  0.32918  1.0000
  S   S545      1.0  0.92379  0.34351  0.30703  1.0000
  Fe  Fe275     1.0  0.93779  0.34826  0.36476  1.0000
  S   S546      1.0  0.93185  0.32530  0.35718  1.0000
  Fe  Fe276     1.0  0.84069  0.25868  0.35635  1.0000
  S   S547      1.0  0.82523  0.28332  0.34164  1.0000
  H   H3215     1.0  0.95771  0.10986  0.34181  1.0000
  Fe  Fe277     1.0  0.85997  0.24481  0.32293  1.0000
  S   S548      1.0  0.84602  0.26824  0.30522  1.0000
  S   S549      1.0  0.88275  0.22453  0.31140  1.0000
  Fe  Fe278     1.0  0.85116  0.28456  0.32195  1.0000
  S   S550      1.0  0.85874  0.31077  0.30738  1.0000
  Fe  Fe279     1.0  0.82130  0.26515  0.32621  1.0000
  S   S551      1.0  0.79319  0.26789  0.32267  1.0000
  S   S552      1.0  0.86701  0.26147  0.33802  1.0000
  S   S553      1.0  0.83481  0.24012  0.34261  1.0000
  Fe  Fe280     1.0  0.71089  0.27346  0.27505  1.0000
  S   S554      1.0  0.73539  0.25433  0.26456  1.0000
  S   S555      1.0  0.70006  0.26994  0.30485  1.0000
  Fe  Fe281     1.0  0.70892  0.29601  0.23829  1.0000
  S   S556      1.0  0.73388  0.27961  0.22499  1.0000
  S   S557      1.0  0.69087  0.31800  0.22316  1.0000
  Fe  Fe282     1.0  0.72213  0.25638  0.24192  1.0000
  S   S558      1.0  0.72483  0.23403  0.22766  1.0000
  Fe  Fe283     1.0  0.74506  0.27893  0.24857  1.0000
  S   S559      1.0  0.77317  0.28183  0.24719  1.0000
  S   S560      1.0  0.69654  0.27289  0.25420  1.0000
  S   S561      1.0  0.72124  0.29792  0.26001  1.0000
  C   C4033     1.0  0.89970  0.00693  0.19889  1.0000
  H   H3216     1.0  0.69706  0.47058  0.18476  1.0000
  H   H3217     1.0  0.56234  0.44244  0.31227  1.0000
  S   S562      1.0  0.97771  0.19059  0.30976  1.0000
  S   S563      1.0  0.66505  0.44606  0.27198  1.0000
  Fe  Fe284     1.0  0.64599  0.47224  0.32597  1.0000
  C   C4034     1.0  0.97640  0.25266  0.32263  1.0000
  H   H3218     1.0  0.92779  0.11285  0.36303  1.0000
  S   S564      1.0  0.63388  0.45471  0.31668  1.0000
  S   S565      1.0  0.92401  0.02476  0.32937  1.0000
  Fe  Fe285     1.0  0.88863  0.14196  0.27864  1.0000
  S   S566      1.0  0.88586  0.15967  0.25220  1.0000
  S   S567      1.0  0.87103  0.15156  0.30293  1.0000
  Fe  Fe286     1.0  0.91572  0.11302  0.26169  1.0000
  S   S568      1.0  0.91514  0.12901  0.23404  1.0000
  S   S569      1.0  0.93412  0.08633  0.26160  1.0000
  Fe  Fe287     1.0  0.91583  0.15165  0.24588  1.0000
  S   S570      1.0  0.93388  0.17118  0.23240  1.0000
  Fe  Fe288     1.0  0.88538  0.13493  0.24352  1.0000
  S   S571      1.0  0.91863  0.13516  0.27282  1.0000
  S   S572      1.0  0.88605  0.11779  0.27074  1.0000
  C   C4035     1.0  0.97082  0.98653  0.20038  1.0000
  C   C4036     1.0  0.65737  0.42798  0.35599  1.0000
  H   H3219     1.0  0.91480  0.08932  0.32596  1.0000
  H   H3220     1.0  0.91144  0.98879  0.26982  1.0000
  H   H3221     1.0  0.70832  0.46648  0.27130  1.0000
  H   H3222     1.0  0.98112  0.07785  0.24250  1.0000
  S   S573      1.0  0.96692  0.33654  0.36360  1.0000
  H   H3223     1.0  0.70621  0.45437  0.22243  1.0000
  H   H3224     1.0  0.72284  0.22513  0.19519  1.0000
  H   H3225     1.0  0.97843  0.03025  0.32140  1.0000
  C   C4037     1.0  0.62656  0.41077  0.33855  1.0000
  H   H3226     1.0  0.85950  0.01413  0.23892  1.0000
  C   C4038     1.0  0.82923  0.01644  0.19635  1.0000
  H   H3227     1.0  0.94712  0.02902  0.19244  1.0000
  C   C4039     1.0  0.92153  0.08020  0.18230  1.0000
  H   H3228     1.0  0.96158  0.04395  0.34700  1.0000
  S   S574      1.0  0.64790  0.45880  0.19550  1.0000
  C   C4040     1.0  0.73678  0.44194  0.19692  1.0000
  C   C4041     1.0  0.57551  0.42757  0.33371  1.0000
  C   C4042     1.0  0.88169  0.12109  0.20053  1.0000
  C   C4043     1.0  0.98004  0.17611  0.25477  1.0000
  H   H3229     1.0  0.89256  0.12619  0.20187  1.0000
  C   C4044     1.0  0.63345  0.39704  0.20619  1.0000
  C   C4045     1.0  0.95138  0.17243  0.24181  1.0000
  C   C4046     1.0  0.96714  0.17603  0.23012  1.0000
  C   C4047     1.0  0.82890  0.25666  0.19853  1.0000
  C   C4048     1.0  0.80079  0.35048  0.36947  1.0000
  H   H3230     1.0  0.93930  0.99419  0.22582  1.0000
  H   H3231     1.0  0.96841  0.17746  0.21594  1.0000
  C   C4049     1.0  0.97383  0.12399  0.25409  1.0000
  C   C4050     1.0  0.92579  0.04172  0.31018  1.0000
  C   C4051     1.0  0.93801  0.03840  0.29464  1.0000
  C   C4052     1.0  0.94031  0.05224  0.27980  1.0000
  C   C4053     1.0  0.92998  0.06934  0.28019  1.0000
  C   C4054     1.0  0.91723  0.07265  0.29548  1.0000
  C   C4055     1.0  0.91517  0.05881  0.31052  1.0000
  H   H3232     1.0  0.95034  0.04974  0.26808  1.0000
  H   H3233     1.0  0.90917  0.08586  0.29577  1.0000
  H   H3234     1.0  0.90548  0.06135  0.32245  1.0000
  C   C4056     1.0  0.65953  0.44898  0.25114  1.0000
  C   C4057     1.0  0.82226  0.27313  0.20354  1.0000
  S   S575      1.0  0.68342  0.35883  0.37042  1.0000
  C   C4058     1.0  0.65213  0.45423  0.21711  1.0000
  C   C4059     1.0  0.66781  0.44274  0.22126  1.0000
  C   C4060     1.0  0.67145  0.44008  0.23827  1.0000
  H   H3235     1.0  0.75374  0.14132  0.32251  1.0000
  H   H3236     1.0  0.63418  0.46671  0.25707  1.0000
  H   H3237     1.0  0.67722  0.43601  0.21134  1.0000
  H   H3238     1.0  0.68367  0.43133  0.24135  1.0000
  C   C4061     1.0  0.64667  0.38624  0.32619  1.0000
  C   C4062     1.0  0.94719  0.39736  0.36826  1.0000
  H   H3239     1.0  0.84203  0.18106  0.28542  1.0000
  H   H3240     1.0  0.66436  0.28863  0.21298  1.0000
  H   H3241     1.0  0.98015  0.18412  0.36562  1.0000
  C   C4063     1.0  0.69262  0.28923  0.31412  1.0000
  C   C4064     1.0  0.69268  0.30618  0.30336  1.0000
  C   C4065     1.0  0.68642  0.32136  0.31090  1.0000
  C   C4066     1.0  0.68040  0.31973  0.32934  1.0000
  C   C4067     1.0  0.68065  0.30279  0.34026  1.0000
  C   C4068     1.0  0.68656  0.28759  0.33262  1.0000
  H   H3242     1.0  0.69700  0.30772  0.28915  1.0000
  H   H3243     1.0  0.68602  0.33442  0.30236  1.0000
  H   H3244     1.0  0.68647  0.27453  0.34107  1.0000
  C   C4069     1.0  0.69839  0.33797  0.21476  1.0000
  C   C4070     1.0  0.71431  0.33983  0.21788  1.0000
  C   C4071     1.0  0.72017  0.35595  0.21080  1.0000
  C   C4072     1.0  0.71018  0.37010  0.20045  1.0000
  C   C4073     1.0  0.69422  0.36815  0.19748  1.0000
  C   C4074     1.0  0.68828  0.35218  0.20471  1.0000
  H   H3245     1.0  0.72214  0.32876  0.22554  1.0000
  H   H3246     1.0  0.73255  0.35736  0.21308  1.0000
  C   C4075     1.0  0.84726  0.01039  0.18910  1.0000
  H   H3247     1.0  0.67610  0.35066  0.20205  1.0000
  C   C4076     1.0  0.78761  0.27359  0.30148  1.0000
  C   C4077     1.0  0.80006  0.27776  0.28577  1.0000
  C   C4078     1.0  0.79536  0.28083  0.26912  1.0000
  C   C4079     1.0  0.77828  0.27966  0.26812  1.0000
  C   C4080     1.0  0.76565  0.27626  0.28385  1.0000
  C   C4081     1.0  0.77030  0.27335  0.30043  1.0000
  H   H3248     1.0  0.81340  0.27816  0.28643  1.0000
  H   H3249     1.0  0.80508  0.28376  0.25703  1.0000
  H   H3250     1.0  0.75235  0.27562  0.28326  1.0000
  H   H3251     1.0  0.76054  0.27047  0.31253  1.0000
  C   C4082     1.0  0.87924  0.20424  0.30938  1.0000
  C   C4083     1.0  0.89109  0.19534  0.29645  1.0000
  C   C4084     1.0  0.88857  0.17922  0.29433  1.0000
  C   C4085     1.0  0.87430  0.17183  0.30528  1.0000
  C   C4086     1.0  0.86263  0.18055  0.31843  1.0000
  C   C4087     1.0  0.86512  0.19671  0.32051  1.0000
  H   H3252     1.0  0.90219  0.20098  0.28796  1.0000
  H   H3253     1.0  0.89775  0.17245  0.28431  1.0000
  H   H3254     1.0  0.85166  0.17478  0.32703  1.0000
  H   H3255     1.0  0.85617  0.20331  0.33076  1.0000
  C   C4088     1.0  0.55950  0.40000  0.33405  1.0000
  H   H3256     1.0  0.72413  0.15215  0.31409  1.0000
  C   C4089     1.0  0.95253  0.07927  0.31330  1.0000
  H   H3257     1.0  0.84373  0.28723  0.36742  1.0000
  C   C4090     1.0  0.96870  0.23713  0.26233  1.0000
  H   H3258     1.0  0.93764  0.16820  0.26937  1.0000
  H   H3259     1.0  0.97283  0.15261  0.32264  1.0000
  H   H3260     1.0  0.76177  0.42995  0.33304  1.0000
  H   H3261     1.0  0.95715  0.13355  0.23465  1.0000
  H   H3262     1.0  0.95564  0.26055  0.27270  1.0000
  H   H3263     1.0  0.90537  0.13997  0.35537  1.0000
  C   C4091     1.0  0.90637  0.33290  0.30822  1.0000
  C   C4092     1.0  0.89992  0.33580  0.29268  1.0000
  C   C4093     1.0  0.88585  0.32826  0.29263  1.0000
  C   C4094     1.0  0.87819  0.31735  0.30800  1.0000
  C   C4095     1.0  0.88471  0.31410  0.32365  1.0000
  C   C4096     1.0  0.89875  0.32202  0.32380  1.0000
  H   H3264     1.0  0.90565  0.34422  0.28064  1.0000
  H   H3265     1.0  0.88067  0.33113  0.28062  1.0000
  H   H3266     1.0  0.87868  0.30586  0.33563  1.0000
  H   H3267     1.0  0.90367  0.31972  0.33586  1.0000
  C   C4097     1.0  0.97464  0.27312  0.34735  1.0000
  C   C4098     1.0  0.96702  0.28080  0.33240  1.0000
  C   C4099     1.0  0.96815  0.27066  0.31999  1.0000
  C   C4100     1.0  0.98294  0.25504  0.35008  1.0000
  H   H3268     1.0  0.91361  0.19684  0.34971  1.0000
  C   C4101     1.0  0.97146  0.05377  0.30179  1.0000
  H   H3269     1.0  0.96018  0.29456  0.33038  1.0000
  H   H3270     1.0  0.96268  0.27678  0.30822  1.0000
  C   C4102     1.0  0.60814  0.40428  0.28970  1.0000
  Fe  Fe289     1.0  0.94578  0.00013  0.32776  1.0000
  C   C4103     1.0  0.89520  0.27560  0.36790  1.0000
  H   H3271     1.0  0.97276  0.42853  0.35602  1.0000
  H   H3272     1.0  0.82788  0.25520  0.18565  1.0000
  C   C4104     1.0  0.83112  0.17658  0.28321  1.0000
  C   C4105     1.0  0.67742  0.23096  0.20583  1.0000
  C   C4106     1.0  0.69490  0.22725  0.19600  1.0000
  C   C4107     1.0  0.70936  0.22840  0.20266  1.0000
  C   C4108     1.0  0.70643  0.23389  0.21887  1.0000
  C   C4109     1.0  0.68893  0.23798  0.22844  1.0000
  C   C4110     1.0  0.67459  0.23618  0.22214  1.0000
  C   C4111     1.0  0.73062  0.17651  0.29717  1.0000
  H   H3273     1.0  0.67006  0.31603  0.19150  1.0000
  H   H3274     1.0  0.68649  0.24200  0.24103  1.0000
  H   H3275     1.0  0.66116  0.23891  0.22993  1.0000
  C   C4112     1.0  0.57558  0.44147  0.36893  1.0000
  S   S576      1.0  0.97375  0.28609  0.36259  1.0000
  C   C4113     1.0  0.55643  0.41617  0.32195  1.0000
  H   H3276     1.0  0.89162  0.99955  0.21012  1.0000
  C   C4114     1.0  0.93040  0.25643  0.36188  1.0000
  S   S577      1.0  0.97714  0.24077  0.30656  1.0000
  C   C4115     1.0  0.70099  0.39594  0.23532  1.0000
  C   C4116     1.0  0.71064  0.38942  0.24889  1.0000
  C   C4117     1.0  0.70288  0.38034  0.26545  1.0000
  C   C4118     1.0  0.68550  0.37772  0.26845  1.0000
  C   C4119     1.0  0.67579  0.38406  0.25479  1.0000
  C   C4120     1.0  0.68367  0.39319  0.23816  1.0000
  P   P137      1.0  0.65345  0.38035  0.25903  1.0000
  C   C4121     1.0  0.63821  0.39452  0.27336  1.0000
  C   C4122     1.0  0.64542  0.38651  0.23845  1.0000
  C   C4123     1.0  0.62025  0.39300  0.27908  1.0000
  C   C4124     1.0  0.64372  0.40793  0.27785  1.0000
  C   C4125     1.0  0.65493  0.35698  0.26919  1.0000
  C   C4126     1.0  0.64557  0.35148  0.28661  1.0000
  C   C4127     1.0  0.64724  0.33337  0.29440  1.0000
  C   C4128     1.0  0.65834  0.32063  0.28496  1.0000
  C   C4129     1.0  0.66827  0.32599  0.26797  1.0000
  C   C4130     1.0  0.66681  0.34408  0.26022  1.0000
  H   H3277     1.0  0.70696  0.40302  0.22248  1.0000
  H   H3278     1.0  0.72418  0.39129  0.24648  1.0000
  H   H3279     1.0  0.71035  0.37516  0.27593  1.0000
  H   H3280     1.0  0.67968  0.37060  0.28136  1.0000
  H   H3281     1.0  0.67668  0.39809  0.22725  1.0000
  H   H3282     1.0  0.61565  0.38308  0.27529  1.0000
  H   H3283     1.0  0.65730  0.40990  0.27311  1.0000
  H   H3284     1.0  0.63731  0.36101  0.29445  1.0000
  H   H3285     1.0  0.64025  0.32916  0.30793  1.0000
  C   C4131     1.0  0.97725  0.12550  0.29410  1.0000
  C   C4132     1.0  0.61898  0.38176  0.34676  1.0000
  H   H3286     1.0  0.94667  0.30415  0.20151  1.0000
  H   H3287     1.0  0.91937  0.19192  0.31916  1.0000
  C   C4133     1.0  0.87496  0.32463  0.37102  1.0000
  P   P138      1.0  0.94021  0.07950  0.34966  1.0000
  H   H3288     1.0  0.65163  0.41276  0.32013  1.0000
  H   H3289     1.0  0.93481  0.21190  0.29386  1.0000
  H   H3290     1.0  0.75070  0.40341  0.35186  1.0000
  C   C4134     1.0  0.86603  0.12171  0.21364  1.0000
  H   H3291     1.0  0.65893  0.38099  0.31763  1.0000
  C   C4135     1.0  0.97126  0.04397  0.31916  1.0000
  C   C4136     1.0  0.61378  0.41747  0.29423  1.0000
  C   C4137     1.0  0.57047  0.39764  0.34610  1.0000
  C   C4138     1.0  0.72092  0.38903  0.29969  1.0000
  C   C4139     1.0  0.71236  0.35731  0.32128  1.0000
  C   C4140     1.0  0.72935  0.35700  0.31012  1.0000
  C   C4141     1.0  0.73332  0.37295  0.29895  1.0000
  P   P139      1.0  0.74467  0.33607  0.30773  1.0000
  C   C4142     1.0  0.73668  0.31805  0.32432  1.0000
  C   C4143     1.0  0.74540  0.33325  0.28566  1.0000
  C   C4144     1.0  0.72954  0.33781  0.27922  1.0000
  C   C4145     1.0  0.72997  0.33677  0.26179  1.0000
  C   C4146     1.0  0.74615  0.33062  0.25088  1.0000
  C   C4147     1.0  0.76189  0.32556  0.25736  1.0000
  C   C4148     1.0  0.76158  0.32691  0.27464  1.0000
  C   C4149     1.0  0.73321  0.30374  0.31941  1.0000
  C   C4150     1.0  0.72767  0.28960  0.33249  1.0000
  C   C4151     1.0  0.72528  0.28976  0.35052  1.0000
  C   C4152     1.0  0.72881  0.30392  0.35550  1.0000
  C   C4153     1.0  0.73462  0.31796  0.34246  1.0000
  C   C4154     1.0  0.76694  0.33475  0.31064  1.0000
  C   C4155     1.0  0.77305  0.34986  0.31057  1.0000
  C   C4156     1.0  0.79088  0.34837  0.31128  1.0000
  C   C4157     1.0  0.80260  0.33179  0.31245  1.0000
  C   C4158     1.0  0.79643  0.31667  0.31310  1.0000
  C   C4159     1.0  0.77868  0.31810  0.31241  1.0000
  H   H3292     1.0  0.70841  0.34518  0.32933  1.0000
  H   H3293     1.0  0.74578  0.37286  0.28925  1.0000
  H   H3294     1.0  0.71683  0.34208  0.28769  1.0000
  H   H3295     1.0  0.71770  0.34032  0.25685  1.0000
  H   H3296     1.0  0.74650  0.32932  0.23754  1.0000
  H   H3297     1.0  0.77430  0.32022  0.24905  1.0000
  H   H3298     1.0  0.77399  0.32281  0.27924  1.0000
  H   H3299     1.0  0.73479  0.30331  0.30555  1.0000
  H   H3300     1.0  0.72497  0.27861  0.32859  1.0000
  H   H3301     1.0  0.62761  0.47133  0.22717  1.0000
  H   H3302     1.0  0.86872  0.98739  0.18658  1.0000
  H   H3303     1.0  0.73733  0.32880  0.34657  1.0000
  H   H3304     1.0  0.76428  0.36277  0.30988  1.0000
  H   H3305     1.0  0.79568  0.36010  0.31076  1.0000
  H   H3306     1.0  0.81647  0.33056  0.31282  1.0000
  H   H3307     1.0  0.80544  0.30378  0.31387  1.0000
  H   H3308     1.0  0.77422  0.30621  0.31277  1.0000
  H   H3309     1.0  0.66014  0.42978  0.34164  1.0000
  C   C4160     1.0  0.75673  0.15870  0.19716  1.0000
  H   H3310     1.0  0.64939  0.35968  0.23426  1.0000
  H   H3311     1.0  0.94232  0.27748  0.22489  1.0000
  C   C4161     1.0  0.94985  0.17078  0.26021  1.0000
  C   C4162     1.0  0.64256  0.40406  0.32766  1.0000
  S   S578      1.0  0.86301  0.13161  0.23215  1.0000
  C   C4163     1.0  0.82636  0.98592  0.20966  1.0000
  C   C4164     1.0  0.96210  0.07141  0.29888  1.0000
  H   H3312     1.0  0.96181  0.10398  0.22730  1.0000
  C   C4165     1.0  0.86321  0.02676  0.23219  1.0000
  C   C4166     1.0  0.59178  0.42892  0.36747  1.0000
  H   H3313     1.0  0.87746  0.02772  0.19237  1.0000
  C   C4167     1.0  0.92684  0.27421  0.36337  1.0000
  C   C4168     1.0  0.94602  0.13551  0.30731  1.0000
  S   S579      1.0  0.97142  0.99804  0.30718  1.0000
  C   C4169     1.0  0.92014  0.20586  0.33884  1.0000
  C   C4170     1.0  0.63149  0.41936  0.28818  1.0000
  H   H3314     1.0  0.67498  0.34796  0.24720  1.0000
  H   H3315     1.0  0.88742  0.25161  0.36874  1.0000
  H   H3316     1.0  0.59435  0.40294  0.29423  1.0000
  H   H3317     1.0  0.62329  0.42465  0.33921  1.0000
  H   H3318     1.0  0.72403  0.40127  0.29100  1.0000
  C   C4171     1.0  0.91810  0.00038  0.19429  1.0000
  C   C4172     1.0  0.64360  0.46005  0.24716  1.0000
  H   H3319     1.0  0.67729  0.31610  0.26089  1.0000
  C   C4173     1.0  0.82359  0.27506  0.22011  1.0000
  H   H3320     1.0  0.97037  0.40147  0.34766  1.0000
  C   C4174     1.0  0.65695  0.27785  0.19430  1.0000
  C   C4175     1.0  0.83654  0.24200  0.21025  1.0000
  C   C4176     1.0  0.83744  0.24371  0.22716  1.0000
  C   C4177     1.0  0.83138  0.26048  0.23180  1.0000
  P   P140      1.0  0.84624  0.22456  0.24280  1.0000
  C   C4178     1.0  0.83378  0.22671  0.26504  1.0000
  C   C4179     1.0  0.84249  0.20517  0.23752  1.0000
  C   C4180     1.0  0.82512  0.20213  0.24103  1.0000
  C   C4181     1.0  0.82205  0.18762  0.23625  1.0000
  C   C4182     1.0  0.83628  0.17600  0.22794  1.0000
  C   C4183     1.0  0.85353  0.17915  0.22400  1.0000
  C   C4184     1.0  0.85664  0.19376  0.22856  1.0000
  C   C4185     1.0  0.84227  0.22190  0.27962  1.0000
  C   C4186     1.0  0.83257  0.22470  0.29642  1.0000
  C   C4187     1.0  0.81429  0.23173  0.29902  1.0000
  C   C4188     1.0  0.80567  0.23624  0.28475  1.0000
  C   C4189     1.0  0.81538  0.23405  0.26778  1.0000
  C   C4190     1.0  0.86986  0.22259  0.24093  1.0000
  C   C4191     1.0  0.87874  0.23584  0.22972  1.0000
  C   C4192     1.0  0.89723  0.23362  0.22759  1.0000
  C   C4193     1.0  0.90695  0.21816  0.23659  1.0000
  C   C4194     1.0  0.89818  0.20507  0.24792  1.0000
  C   C4195     1.0  0.87974  0.20723  0.25008  1.0000
  H   H3321     1.0  0.81819  0.28779  0.22405  1.0000
  C   C4196     1.0  0.73633  0.37104  0.36754  1.0000
  C   C4197     1.0  0.95097  0.14533  0.31681  1.0000
  H   H3322     1.0  0.84145  0.22932  0.20618  1.0000
  H   H3323     1.0  0.83213  0.26220  0.24466  1.0000
  H   H3324     1.0  0.81391  0.21098  0.24735  1.0000
  H   H3325     1.0  0.80866  0.18527  0.23910  1.0000
  H   H3326     1.0  0.83403  0.16450  0.22456  1.0000
  Fe  Fe290     1.0  0.61241  0.47893  0.31142  1.0000
  H   H3327     1.0  0.87011  0.19603  0.22495  1.0000
  H   H3328     1.0  0.85636  0.21632  0.27822  1.0000
  H   H3329     1.0  0.83924  0.22170  0.30743  1.0000
  H   H3330     1.0  0.80685  0.23401  0.31204  1.0000
  H   H3331     1.0  0.79151  0.24199  0.28681  1.0000
  H   H3332     1.0  0.80854  0.23849  0.25675  1.0000
  H   H3333     1.0  0.87150  0.24781  0.22247  1.0000
  H   H3334     1.0  0.90406  0.24376  0.21878  1.0000
  H   H3335     1.0  0.92133  0.21608  0.23462  1.0000
  H   H3336     1.0  0.90578  0.19302  0.25473  1.0000
  H   H3337     1.0  0.87324  0.19673  0.25866  1.0000
  C   C4198     1.0  0.78728  0.33033  0.36124  1.0000
  S   S580      1.0  0.66962  0.41330  0.18180  1.0000
  H   H3338     1.0  0.94442  0.23692  0.29943  1.0000
  H   H3339     1.0  0.97283  0.99968  0.19949  1.0000
  H   H3340     1.0  0.60993  0.37295  0.35391  1.0000
  C   C4199     1.0  0.79337  0.34621  0.35722  1.0000
  P   P141      1.0  0.81017  0.37026  0.36352  1.0000
  C   C4200     1.0  0.79467  0.38939  0.35438  1.0000
  C   C4201     1.0  0.72721  0.43745  0.37193  1.0000
  C   C4202     1.0  0.96581  0.12215  0.24113  1.0000
  C   C4203     1.0  0.66615  0.30605  0.18709  1.0000
  H   H3341     1.0  0.58199  0.43826  0.33302  1.0000
  H   H3342     1.0  0.97871  0.21396  0.25063  1.0000
  H   H3343     1.0  0.93600  0.98390  0.28574  1.0000
  C   C4204     1.0  0.80076  0.40464  0.34385  1.0000
  C   C4205     1.0  0.78892  0.41924  0.33627  1.0000
  C   C4206     1.0  0.77091  0.41874  0.33911  1.0000
  C   C4207     1.0  0.76467  0.40375  0.34977  1.0000
  C   C4208     1.0  0.90208  0.47746  0.37294  1.0000
  C   C4209     1.0  0.83074  0.36778  0.34693  1.0000
  C   C4210     1.0  0.83405  0.35628  0.33513  1.0000
  C   C4211     1.0  0.84941  0.35543  0.32165  1.0000
  C   C4212     1.0  0.86183  0.36569  0.32000  1.0000
  C   C4213     1.0  0.85878  0.37705  0.33175  1.0000
  C   C4214     1.0  0.84334  0.37809  0.34517  1.0000
  H   H3344     1.0  0.78187  0.32692  0.35163  1.0000
  H   H3345     1.0  0.89236  0.11661  0.31853  1.0000
  C   C4215     1.0  0.72465  0.37545  0.35585  1.0000
  H   H3346     1.0  0.86065  0.09823  0.26392  1.0000
  H   H3347     1.0  0.79255  0.35506  0.34446  1.0000
  H   H3348     1.0  0.87065  0.31875  0.36242  1.0000
  C   C4216     1.0  0.60636  0.43211  0.37219  1.0000
  H   H3349     1.0  0.55346  0.38925  0.33402  1.0000
  C   C4217     1.0  0.92856  0.00987  0.17980  1.0000
  H   H3350     1.0  0.86455  0.17013  0.21748  1.0000
  H   H3351     1.0  0.81465  0.40533  0.34139  1.0000
  H   H3352     1.0  0.79378  0.43089  0.32805  1.0000
  C   C4218     1.0  0.96192  0.42184  0.36323  1.0000
  C   C4219     1.0  0.69316  0.45923  0.37359  1.0000
  H   H3353     1.0  0.68675  0.37864  0.18906  1.0000
  H   H3354     1.0  0.82496  0.34789  0.33614  1.0000
  H   H3355     1.0  0.85169  0.34673  0.31246  1.0000
  H   H3356     1.0  0.87390  0.36468  0.30972  1.0000
  H   H3357     1.0  0.86852  0.38489  0.33054  1.0000
  H   H3358     1.0  0.84123  0.38702  0.35410  1.0000
  H   H3359     1.0  0.95282  0.19696  0.35381  1.0000
  C   C4220     1.0  0.97196  0.34958  0.27712  1.0000
  C   C4221     1.0  0.64504  0.37372  0.22928  1.0000
  H   H3360     1.0  0.67985  0.46741  0.37378  1.0000
  H   H3361     1.0  0.88702  0.05184  0.29644  1.0000
  C   C4222     1.0  0.66267  0.29063  0.19942  1.0000
  C   C4223     1.0  0.90929  0.28382  0.36625  1.0000
  H   H3362     1.0  0.68679  0.37331  0.33034  1.0000
  H   H3363     1.0  0.69728  0.22312  0.18348  1.0000
  C   C4224     1.0  0.63964  0.40464  0.23131  1.0000
  C   C4225     1.0  0.93944  0.25433  0.25776  1.0000
  C   C4226     1.0  0.63919  0.37901  0.21317  1.0000
  H   H3364     1.0  0.71759  0.18142  0.29372  1.0000
  H   H3365     1.0  0.64016  0.41481  0.23789  1.0000
  P   P142      1.0  0.59327  0.40836  0.36094  1.0000
  C   C4227     1.0  0.57824  0.41156  0.34626  1.0000
  H   H3366     1.0  0.68372  0.09103  0.18098  1.0000
  H   H3367     1.0  0.96179  0.07885  0.28543  1.0000
  C   C4228     1.0  0.81375  0.18679  0.28593  1.0000
  H   H3368     1.0  0.65668  0.40002  0.36080  1.0000
  C   C4229     1.0  0.97947  0.09081  0.24547  1.0000
  H   H3369     1.0  0.60443  0.42641  0.30224  1.0000
  C   C4230     1.0  0.96786  0.22531  0.25241  1.0000
  H   H3370     1.0  0.56191  0.46719  0.37467  1.0000
  C   C4231     1.0  0.95190  0.06941  0.33079  1.0000
  C   C4232     1.0  0.75343  0.18848  0.20203  1.0000
  C   C4233     1.0  0.94071  0.21379  0.37326  1.0000
  C   C4234     1.0  0.74156  0.42687  0.18934  1.0000
  C   C4235     1.0  0.98475  0.10925  0.26292  1.0000
  C   C4236     1.0  0.88303  0.11449  0.18527  1.0000
  C   C4237     1.0  0.96159  0.05177  0.33362  1.0000
  C   C4238     1.0  0.96073  0.40643  0.35863  1.0000
  C   C4239     1.0  0.95909  0.12549  0.29615  1.0000
  C   C4240     1.0  0.72473  0.45412  0.36047  1.0000
  H   H3371     1.0  0.94085  0.15319  0.32540  1.0000
  H   H3372     1.0  0.94417  0.24937  0.35922  1.0000
  H   H3373     1.0  0.63574  0.42982  0.29142  1.0000
  C   C4241     1.0  0.81891  0.00416  0.20681  1.0000
  H   H3374     1.0  0.73596  0.44006  0.21103  1.0000
  C   C4242     1.0  0.88657  0.21787  0.37074  1.0000
  C   C4243     1.0  0.73317  0.45904  0.18623  1.0000
  C   C4244     1.0  0.85348  0.10816  0.19650  1.0000
  H   H3375     1.0  0.76064  0.47418  0.20512  1.0000
  C   C4245     1.0  0.77644  0.38922  0.35758  1.0000
  H   H3376     1.0  0.84129  0.03576  0.21849  1.0000
  H   H3377     1.0  0.67591  0.30142  0.35450  1.0000
  C   C4246     1.0  0.92768  0.06445  0.36598  1.0000
  C   C4247     1.0  0.77727  0.21553  0.32820  1.0000
  P   P143      1.0  0.92103  0.27287  0.26155  1.0000
  C   C4248     1.0  0.90002  0.26746  0.26218  1.0000
  C   C4249     1.0  0.92036  0.27756  0.28281  1.0000
  C   C4250     1.0  0.91078  0.26870  0.29859  1.0000
  C   C4251     1.0  0.91118  0.27174  0.31504  1.0000
  C   C4252     1.0  0.92103  0.28361  0.31585  1.0000
  C   C4253     1.0  0.93030  0.29272  0.30023  1.0000
  C   C4254     1.0  0.93023  0.28951  0.28378  1.0000
  C   C4255     1.0  0.88591  0.28077  0.25647  1.0000
  C   C4256     1.0  0.86965  0.27656  0.25711  1.0000
  C   C4257     1.0  0.86735  0.25904  0.26342  1.0000
  C   C4258     1.0  0.88127  0.24577  0.26916  1.0000
  C   C4259     1.0  0.89744  0.24995  0.26879  1.0000
  C   C4260     1.0  0.92435  0.29225  0.24424  1.0000
  C   C4261     1.0  0.93552  0.29048  0.22763  1.0000
  C   C4262     1.0  0.93803  0.30559  0.21432  1.0000
  C   C4263     1.0  0.92939  0.32253  0.21750  1.0000
  C   C4264     1.0  0.91820  0.32439  0.23400  1.0000
  C   C4265     1.0  0.91564  0.30933  0.24730  1.0000
  H   H3378     1.0  0.90320  0.25925  0.29835  1.0000
  H   H3379     1.0  0.90398  0.26475  0.32719  1.0000
  H   H3380     1.0  0.92128  0.28603  0.32856  1.0000
  H   H3381     1.0  0.93759  0.30224  0.30093  1.0000
  H   H3382     1.0  0.93803  0.29627  0.27191  1.0000
  H   H3383     1.0  0.88720  0.29448  0.25182  1.0000
  H   H3384     1.0  0.85869  0.28694  0.25309  1.0000
  H   H3385     1.0  0.85464  0.25583  0.26434  1.0000
  C   C4266     1.0  0.75099  0.15396  0.31339  1.0000
  H   H3386     1.0  0.90773  0.23952  0.27405  1.0000
  H   H3387     1.0  0.93133  0.33422  0.20718  1.0000
  H   H3388     1.0  0.91147  0.33751  0.23651  1.0000
  H   H3389     1.0  0.90685  0.31100  0.26001  1.0000
  C   C4267     1.0  0.96497  0.04625  0.17731  1.0000
  C   C4268     1.0  0.95467  0.25170  0.26482  1.0000
  C   C4269     1.0  0.85293  0.03895  0.22070  1.0000
  C   C4270     1.0  0.61482  0.39961  0.34841  1.0000
  H   H3390     1.0  0.95870  0.35667  0.28230  1.0000
  H   H3391     1.0  0.86604  0.08118  0.29373  1.0000
  C   C4271     1.0  0.85772  0.05523  0.21201  1.0000
  C   C4272     1.0  0.95306  0.22813  0.24481  1.0000
  H   H3392     1.0  0.96295  0.17165  0.28079  1.0000
  C   C4273     1.0  0.89771  0.13011  0.33626  1.0000
  C   C4274     1.0  0.73430  0.16006  0.30868  1.0000
  C   C4275     1.0  0.70806  0.07451  0.18869  1.0000
  H   H3393     1.0  0.62965  0.42388  0.20969  1.0000
  C   C4276     1.0  0.76058  0.18061  0.29467  1.0000
  C   C4277     1.0  0.74366  0.18682  0.29028  1.0000
  C   C4278     1.0  0.71569  0.06413  0.20314  1.0000
  C   C4279     1.0  0.70538  0.06230  0.22047  1.0000
  C   C4280     1.0  0.68739  0.07080  0.22352  1.0000
  C   C4281     1.0  0.67969  0.08114  0.20924  1.0000
  C   C4282     1.0  0.68995  0.08299  0.19190  1.0000
  C   C4283     1.0  0.85491  0.99205  0.19247  1.0000
  C   C4284     1.0  0.92382  0.09946  0.34418  1.0000
  H   H3394     1.0  0.84255  0.10322  0.19504  1.0000
  C   C4285     1.0  0.92058  0.11365  0.35289  1.0000
  C   C4286     1.0  0.76174  0.17530  0.19206  1.0000
  H   H3395     1.0  0.61867  0.42225  0.37204  1.0000
  S   S581      1.0  0.81896  0.03917  0.19276  1.0000
  C   C4287     1.0  0.91194  0.04024  0.37324  1.0000
  H   H3396     1.0  0.94577  0.02521  0.29403  1.0000
  H   H3397     1.0  0.97134  0.13691  0.25740  1.0000
  H   H3398     1.0  0.79145  0.19223  0.31787  1.0000
  S   S582      1.0  0.65686  0.46398  0.35113  1.0000
  C   C4288     1.0  0.78132  0.20426  0.31612  1.0000
  H   H3399     1.0  0.72955  0.05741  0.20118  1.0000
  H   H3400     1.0  0.71132  0.05422  0.23156  1.0000
  H   H3401     1.0  0.67941  0.06934  0.23695  1.0000
  H   H3402     1.0  0.66573  0.08772  0.21160  1.0000
  C   C4289     1.0  0.65478  0.28041  0.17685  1.0000
  Fe  Fe291     1.0  0.67096  0.33795  0.36695  1.0000
  C   C4290     1.0  0.90773  0.12899  0.34876  1.0000
  H   H3403     1.0  0.78462  0.21246  0.33875  1.0000
  H   H3404     1.0  0.98176  0.09449  0.31764  1.0000
  C   C4291     1.0  0.93897  0.24271  0.24728  1.0000
  C   C4292     1.0  0.76379  0.23083  0.32665  1.0000
  C   C4293     1.0  0.75397  0.23459  0.31336  1.0000
  C   C4294     1.0  0.75807  0.22342  0.30123  1.0000
  C   C4295     1.0  0.77231  0.20862  0.30198  1.0000
  P   P144      1.0  0.77709  0.19425  0.28628  1.0000
  C   C4296     1.0  0.77485  0.20685  0.26423  1.0000
  C   C4297     1.0  0.77136  0.19876  0.25208  1.0000
  C   C4298     1.0  0.76942  0.20845  0.23504  1.0000
  C   C4299     1.0  0.77124  0.22616  0.22989  1.0000
  C   C4300     1.0  0.77520  0.23416  0.24171  1.0000
  C   C4301     1.0  0.77688  0.22460  0.25885  1.0000
  C   C4302     1.0  0.79951  0.18083  0.28350  1.0000
  C   C4303     1.0  0.83450  0.16055  0.27760  1.0000
  C   C4304     1.0  0.82053  0.15473  0.27466  1.0000
  C   C4305     1.0  0.80310  0.16483  0.27756  1.0000
  H   H3405     1.0  0.76087  0.23973  0.33581  1.0000
  H   H3406     1.0  0.74315  0.24621  0.31238  1.0000
  H   H3407     1.0  0.75008  0.22635  0.29126  1.0000
  H   H3408     1.0  0.76979  0.18507  0.25585  1.0000
  H   H3409     1.0  0.76602  0.20242  0.22596  1.0000
  H   H3410     1.0  0.76906  0.23386  0.21692  1.0000
  H   H3411     1.0  0.77634  0.24800  0.23778  1.0000
  H   H3412     1.0  0.77933  0.23129  0.26792  1.0000
  H   H3413     1.0  0.84799  0.15268  0.27544  1.0000
  H   H3414     1.0  0.82333  0.14244  0.26996  1.0000
  H   H3415     1.0  0.79250  0.16022  0.27495  1.0000
  H   H3416     1.0  0.98167  0.11481  0.35332  1.0000
  C   C4306     1.0  0.85196  0.11517  0.21157  1.0000
  H   H3417     1.0  0.79356  0.14541  0.19868  1.0000
  C   C4307     1.0  0.81815  0.14035  0.17979  1.0000
  H   H3418     1.0  0.63943  0.36907  0.20594  1.0000
  C   C4308     1.0  0.74026  0.18513  0.21728  1.0000
  C   C4309     1.0  0.73544  0.16855  0.22264  1.0000
  C   C4310     1.0  0.74357  0.15539  0.21260  1.0000
  H   H3419     1.0  0.92016  0.45310  0.36850  1.0000
  H   H3420     1.0  0.98013  0.23485  0.26837  1.0000
  C   C4311     1.0  0.95416  0.20112  0.36527  1.0000
  C   C4312     1.0  0.76174  0.12102  0.19363  1.0000
  H   H3421     1.0  0.80499  0.00875  0.21244  1.0000
  H   H3422     1.0  0.92400  0.98793  0.20206  1.0000
  C   C4313     1.0  0.71104  0.46181  0.22922  1.0000
  H   H3423     1.0  0.94551  0.09294  0.31068  1.0000
  C   C4314     1.0  0.87888  0.34154  0.36483  1.0000
  C   C4315     1.0  0.70750  0.39986  0.37005  1.0000
  C   C4316     1.0  0.77602  0.10728  0.19828  1.0000
  C   C4317     1.0  0.77325  0.09006  0.20614  1.0000
  C   C4318     1.0  0.75623  0.08641  0.20950  1.0000
  C   C4319     1.0  0.74194  0.09999  0.20497  1.0000
  C   C4320     1.0  0.74468  0.11721  0.19700  1.0000
  H   H3424     1.0  0.87809  0.34846  0.35133  1.0000
  H   H3425     1.0  0.88767  0.14196  0.33314  1.0000
  H   H3426     1.0  0.83978  0.11560  0.22165  1.0000
  C   C4321     1.0  0.63361  0.40985  0.21531  1.0000
  C   C4322     1.0  0.97718  0.10231  0.35819  1.0000
  H   H3427     1.0  0.73924  0.14286  0.21676  1.0000
  C   C4323     1.0  0.70769  0.46499  0.36127  1.0000
  H   H3428     1.0  0.73354  0.19553  0.22476  1.0000
  H   H3429     1.0  0.72503  0.16612  0.23435  1.0000
  H   H3430     1.0  0.93863  0.24230  0.32963  1.0000
  C   C4324     1.0  0.96857  0.10554  0.23687  1.0000
  H   H3431     1.0  0.74042  0.19971  0.28166  1.0000
  S   S583      1.0  0.67173  0.33920  0.33804  1.0000
  Fe  Fe292     1.0  0.97037  0.35123  0.33525  1.0000
  C   C4325     1.0  0.86898  0.10800  0.18314  1.0000
  H   H3432     1.0  0.78442  0.07944  0.20936  1.0000
  H   H3433     1.0  0.75422  0.07300  0.21540  1.0000
  H   H3434     1.0  0.72877  0.09711  0.20748  1.0000
  H   H3435     1.0  0.73351  0.12755  0.19336  1.0000
  C   C4326     1.0  0.89172  0.02288  0.18904  1.0000
  C   C4327     1.0  0.96415  0.17280  0.26668  1.0000
  P   P145      1.0  0.76526  0.14312  0.18235  1.0000
  C   C4328     1.0  0.96089  0.98356  0.18949  1.0000
  C   C4329     1.0  0.76406  0.16425  0.30652  1.0000
  H   H3436     1.0  0.88628  0.22482  0.35709  1.0000
  H   H3437     1.0  0.63797  0.36133  0.33452  1.0000
  C   C4330     1.0  0.71024  0.38988  0.35710  1.0000
  H   H3438     1.0  0.77679  0.15951  0.31060  1.0000
  C   C4331     1.0  0.87820  0.03087  0.23511  1.0000
  C   C4332     1.0  0.88336  0.04703  0.22612  1.0000
  C   C4333     1.0  0.87276  0.05934  0.21483  1.0000
  P   P146      1.0  0.90129  0.05328  0.23164  1.0000
  C   C4334     1.0  0.91082  0.06952  0.21389  1.0000
  C   C4335     1.0  0.89102  0.06232  0.25133  1.0000
  C   C4336     1.0  0.87899  0.07879  0.24992  1.0000
  C   C4337     1.0  0.86985  0.08544  0.26518  1.0000
  C   C4338     1.0  0.87284  0.07583  0.28194  1.0000
  C   C4339     1.0  0.88469  0.05934  0.28346  1.0000
  C   C4340     1.0  0.89362  0.05249  0.26824  1.0000
  C   C4341     1.0  0.91329  0.06816  0.19609  1.0000
  H   H3439     1.0  0.77152  0.17832  0.17995  1.0000
  C   C4342     1.0  0.98376  0.24477  0.33774  1.0000
  C   C4343     1.0  0.92562  0.09459  0.20394  1.0000
  C   C4344     1.0  0.91724  0.08268  0.21776  1.0000
  C   C4345     1.0  0.92011  0.03526  0.23499  1.0000
  C   C4346     1.0  0.92285  0.01996  0.22818  1.0000
  C   C4347     1.0  0.93770  0.00626  0.23050  1.0000
  C   C4348     1.0  0.94995  0.00772  0.23965  1.0000
  C   C4349     1.0  0.94760  0.02314  0.24604  1.0000
  C   C4350     1.0  0.93287  0.03700  0.24347  1.0000
  H   H3440     1.0  0.88566  0.02148  0.24451  1.0000
  H   H3441     1.0  0.87588  0.07227  0.20843  1.0000
  H   H3442     1.0  0.87656  0.08646  0.23703  1.0000
  H   H3443     1.0  0.69606  0.41085  0.37098  1.0000
  C   C4351     1.0  0.95736  0.08352  0.35833  1.0000
  H   H3444     1.0  0.87943  0.23226  0.27441  1.0000
  H   H3445     1.0  0.90238  0.03950  0.26981  1.0000
  H   H3446     1.0  0.90875  0.05788  0.19288  1.0000
  H   H3447     1.0  0.65403  0.26601  0.20388  1.0000
  H   H3448     1.0  0.69960  0.44833  0.25521  1.0000
  H   H3449     1.0  0.72647  0.36734  0.34622  1.0000
  H   H3450     1.0  0.91589  0.08372  0.23143  1.0000
  H   H3451     1.0  0.91346  0.01846  0.22126  1.0000
  C   C4352     1.0  0.92770  0.09342  0.18622  1.0000
  C   C4353     1.0  0.63483  0.37513  0.33570  1.0000
  H   H3452     1.0  0.95703  0.02421  0.25325  1.0000
  H   H3453     1.0  0.93125  0.04901  0.24831  1.0000
  H   H3454     1.0  0.57305  0.38491  0.35510  1.0000
  H   H3455     1.0  0.62938  0.40112  0.19345  1.0000
  H   H3456     1.0  0.95494  0.11789  0.28900  1.0000
  C   C4354     1.0  0.69990  0.37334  0.32177  1.0000
  H   H3457     1.0  0.69441  0.40160  0.31136  1.0000
  H   H3458     1.0  0.84970  0.06472  0.20316  1.0000
  S   S584      1.0  0.58335  0.47740  0.31624  1.0000
  H   H3459     1.0  0.92766  0.24478  0.24120  1.0000
  H   H3460     1.0  0.78940  0.10963  0.19563  1.0000
  C   C4355     1.0  0.91322  0.10045  0.33213  1.0000
  C   C4356     1.0  0.90039  0.11581  0.32802  1.0000
  H   H3461     1.0  0.74357  0.41365  0.19765  1.0000
  H   H3462     1.0  0.96249  0.33540  0.26303  1.0000
  H   H3463     1.0  0.81156  0.19933  0.28984  1.0000
  H   H3464     1.0  0.65981  0.30658  0.29106  1.0000
  H   H3465     1.0  0.74714  0.35948  0.36690  1.0000
  C   C4357     1.0  0.70419  0.38922  0.31108  1.0000
  C   C4358     1.0  0.98540  0.08883  0.37052  1.0000
  C   C4359     1.0  0.98140  0.17758  0.23655  1.0000
  H   H3466     1.0  0.54792  0.41801  0.31263  1.0000
  P   P147      1.0  0.92088  0.22427  0.36422  1.0000
  C   C4360     1.0  0.92504  0.22043  0.34192  1.0000
  C   C4361     1.0  0.91630  0.24784  0.36409  1.0000
  C   C4362     1.0  0.89865  0.25765  0.36704  1.0000
  H   H3467     1.0  0.95254  0.21887  0.23712  1.0000
  S   S585      1.0  0.71799  0.38992  0.19089  1.0000
  C   C4363     1.0  0.92165  0.05196  0.36066  1.0000
  H   H3468     1.0  0.98551  0.01130  0.35156  1.0000
  C   C4364     1.0  0.93407  0.23141  0.32759  1.0000
  C   C4365     1.0  0.93749  0.22833  0.31035  1.0000
  C   C4366     1.0  0.93219  0.21416  0.30728  1.0000
  C   C4367     1.0  0.92363  0.20283  0.32156  1.0000
  H   H3469     1.0  0.94651  0.38515  0.36498  1.0000
  C   C4368     1.0  0.96901  0.14507  0.31520  1.0000
  H   H3470     1.0  0.98876  0.24900  0.36168  1.0000
  H   H3471     1.0  0.77135  0.37782  0.36602  1.0000
  C   C4369     1.0  0.98761  0.09263  0.25840  1.0000
  H   H3472     1.0  0.93035  0.10484  0.20702  1.0000
  C   C4370     1.0  0.70697  0.45856  0.24782  1.0000
  H   H3473     1.0  0.96102  0.99672  0.24216  1.0000
  H   H3474     1.0  0.93769  0.28065  0.36216  1.0000
  H   H3475     1.0  0.72057  0.27898  0.36060  1.0000
  H   H3476     1.0  0.73592  0.45851  0.35074  1.0000
  C   C4371     1.0  0.96342  0.09955  0.35187  1.0000
  H   H3477     1.0  0.88154  0.28304  0.36995  1.0000
  C   C4372     1.0  0.79957  0.14297  0.18540  1.0000
  H   H3478     1.0  0.90675  0.29767  0.36701  1.0000
  C   C4373     1.0  0.57433  0.45737  0.37403  1.0000
  H   H3479     1.0  0.70089  0.39310  0.34836  1.0000
  H   H3480     1.0  0.81593  0.28439  0.19464  1.0000
  C   C4374     1.0  0.65558  0.41113  0.36681  1.0000
  H   H3481     1.0  0.56389  0.43909  0.36604  1.0000
  H   H3482     1.0  0.61259  0.46236  0.18726  1.0000
  H   H3483     1.0  0.74037  0.42894  0.37082  1.0000
  S   S586      1.0  0.98788  0.15278  0.35162  1.0000
  H   H3484     1.0  0.90758  0.03048  0.36890  1.0000
  C   C4375     1.0  0.96977  0.19377  0.37192  1.0000
  H   H3485     1.0  0.71157  0.11120  0.17803  1.0000
  S   S587      1.0  0.95924  0.98758  0.35101  1.0000
  C   C4376     1.0  0.72108  0.47465  0.21952  1.0000
  H   H3486     1.0  0.85524  0.01977  0.18079  1.0000
  H   H3487     1.0  0.98509  0.36158  0.29003  1.0000
  C   C4377     1.0  0.71202  0.46873  0.25689  1.0000
  H   H3488     1.0  0.88715  0.36247  0.37128  1.0000
  C   C4378     1.0  0.96572  0.07005  0.37066  1.0000
  Fe  Fe293     1.0  0.98436  0.98334  0.33035  1.0000
  H   H3489     1.0  0.70561  0.47772  0.35213  1.0000
  C   C4379     1.0  0.88402  0.34936  0.37602  1.0000
  H   H3490     1.0  0.82632  0.14098  0.18857  1.0000
  H   H3491     1.0  0.75681  0.20151  0.19769  1.0000
  C   C4380     1.0  0.98686  0.35225  0.28159  1.0000
  C   C4381     1.0  0.97412  0.33756  0.26629  1.0000
  C   C4382     1.0  0.95730  0.03146  0.18051  1.0000
  H   H3492     1.0  0.96068  0.05505  0.18671  1.0000
  H   H3493     1.0  0.98836  0.36406  0.35910  1.0000
  Fe  Fe294     1.0  0.66823  0.44243  0.17711  1.0000
  P   P148      1.0  0.72625  0.47889  0.19549  1.0000
  H   H3494     1.0  0.62199  0.37594  0.17946  1.0000
  H   H3495     1.0  0.96177  0.05731  0.37534  1.0000
  H   H3496     1.0  0.85944  0.21464  0.37603  1.0000
  H   H3497     1.0  0.50763  0.29299  0.50903  1.0000
  C   C4383     1.0  0.89445  0.46701  0.56491  1.0000
  H   H3498     1.0  0.94094  0.26023  0.42680  1.0000
  Fe  Fe295     1.0  0.57967  0.00365  0.56915  1.0000
  S   S588      1.0  0.60259  0.99459  0.54781  1.0000
  S   S589      1.0  0.55204  0.01952  0.56604  1.0000
  H   H3499     1.0  0.50640  0.14846  0.52071  1.0000
  C   C4384     1.0  0.94704  0.40872  0.44349  1.0000
  Fe  Fe296     1.0  0.61926  0.00331  0.56189  1.0000
  S   S590      1.0  0.64059  0.01860  0.54567  1.0000
  H   H3500     1.0  0.79583  0.31412  0.40291  1.0000
  H   H3501     1.0  0.87804  0.42416  0.56191  1.0000
  H   H3502     1.0  0.50630  0.34289  0.52206  1.0000
  C   C4385     1.0  0.83101  0.36477  0.38855  1.0000
  C   C4386     1.0  0.93626  0.27384  0.42043  1.0000
  H   H3503     1.0  0.92739  0.07547  0.38833  1.0000
  H   H3504     1.0  0.94812  0.44735  0.54917  1.0000
  H   H3505     1.0  0.54351  0.99036  0.47587  1.0000
  C   C4387     1.0  0.49940  0.01752  0.42558  1.0000
  C   C4388     1.0  0.94030  0.44071  0.44016  1.0000
  H   H3506     1.0  0.49419  0.01501  0.41534  1.0000
  H   H3507     1.0  0.82810  0.26009  0.42147  1.0000
  Fe  Fe297     1.0  0.90858  0.36456  0.51807  1.0000
  S   S591      1.0  0.89664  0.39336  0.51795  1.0000
  S   S592      1.0  0.90900  0.34384  0.54345  1.0000
  Fe  Fe298     1.0  0.92404  0.37142  0.47811  1.0000
  S   S593      1.0  0.91314  0.40081  0.47487  1.0000
  S   S594      1.0  0.94402  0.35853  0.45674  1.0000
  Fe  Fe299     1.0  0.92240  0.39888  0.49985  1.0000
  S   S595      1.0  0.94124  0.41319  0.50519  1.0000
  Fe  Fe300     1.0  0.88837  0.39262  0.49309  1.0000
  S   S596      1.0  0.86153  0.40820  0.48761  1.0000
  S   S597      1.0  0.93491  0.36993  0.50188  1.0000
  S   S598      1.0  0.89857  0.36328  0.49445  1.0000
  H   H3508     1.0  0.53413  0.11891  0.55022  1.0000
  S   S599      1.0  0.55197  0.31679  0.53272  1.0000
  H   H3509     1.0  0.98430  0.19330  0.39153  1.0000
  S   S600      1.0  0.75304  0.24319  0.52778  1.0000
  S   S601      1.0  0.58640  0.28340  0.52797  1.0000
  Fe  Fe301     1.0  0.58009  0.31277  0.51656  1.0000
  S   S602      1.0  0.58435  0.32721  0.48774  1.0000
  C   C4389     1.0  0.97211  0.19895  0.38655  1.0000
  H   H3510     1.0  0.61618  0.38439  0.38447  1.0000
  H   H3511     1.0  0.87562  0.39985  0.45252  1.0000
  H   H3512     1.0  0.62405  0.06851  0.52910  1.0000
  Fe  Fe302     1.0  0.66170  0.32354  0.40696  1.0000
  S   S603      1.0  0.67347  0.34330  0.41334  1.0000
  S   S604      1.0  0.65221  0.30236  0.43009  1.0000
  C   C4390     1.0  0.51379  0.44799  0.44233  1.0000
  H   H3513     1.0  0.89485  0.41894  0.38717  1.0000
  C   C4391     1.0  0.64963  0.42348  0.39311  1.0000
  Fe  Fe303     1.0  0.69591  0.33719  0.39053  1.0000
  S   S605      1.0  0.72534  0.33331  0.38945  1.0000
  Fe  Fe304     1.0  0.65991  0.36303  0.39264  1.0000
  S   S606      1.0  0.64537  0.38946  0.39951  1.0000
  S   S607      1.0  0.68531  0.31588  0.38541  1.0000
  S   S608      1.0  0.64614  0.34381  0.38794  1.0000
  Fe  Fe305     1.0  0.77654  0.33449  0.45730  1.0000
  S   S609      1.0  0.79649  0.30895  0.45520  1.0000
  S   S610      1.0  0.74723  0.33652  0.45925  1.0000
  Fe  Fe306     1.0  0.80381  0.35338  0.46170  1.0000
  S   S611      1.0  0.82581  0.32919  0.46088  1.0000
  S   S612      1.0  0.80600  0.38126  0.46118  1.0000
  Fe  Fe307     1.0  0.81543  0.32616  0.43835  1.0000
  S   S613      1.0  0.83436  0.32172  0.41279  1.0000
  Fe  Fe308     1.0  0.80488  0.31412  0.47800  1.0000
  S   S614      1.0  0.80967  0.29258  0.50195  1.0000
  S   S615      1.0  0.79460  0.35136  0.43792  1.0000
  S   S616      1.0  0.78378  0.33868  0.48116  1.0000
  S   S617      1.0  0.49171  0.11618  0.48345  1.0000
  S   S618      1.0  0.52467  0.16629  0.53814  1.0000
  Fe  Fe309     1.0  0.51489  0.19305  0.54566  1.0000
  S   S619      1.0  0.51714  0.21841  0.52503  1.0000
  C   C4392     1.0  0.64382  0.05734  0.57005  1.0000
  H   H3514     1.0  0.90130  0.41421  0.44065  1.0000
  C   C4393     1.0  0.49895  0.47626  0.45064  1.0000
  C   C4394     1.0  0.69562  0.44264  0.38514  1.0000
  H   H3515     1.0  0.63503  0.32685  0.52559  1.0000
  C   C4395     1.0  0.51721  0.10538  0.57260  1.0000
  H   H3516     1.0  0.92085  0.47663  0.47956  1.0000
  C   C4396     1.0  0.73079  0.33617  0.40846  1.0000
  C   C4397     1.0  0.74806  0.33819  0.40764  1.0000
  C   C4398     1.0  0.75321  0.33873  0.42309  1.0000
  C   C4399     1.0  0.74096  0.33750  0.43936  1.0000
  C   C4400     1.0  0.72352  0.33623  0.44002  1.0000
  C   C4401     1.0  0.71848  0.33544  0.42464  1.0000
  H   H3517     1.0  0.75755  0.33892  0.39511  1.0000
  H   H3518     1.0  0.76672  0.33972  0.42250  1.0000
  H   H3519     1.0  0.71406  0.33529  0.45255  1.0000
  H   H3520     1.0  0.70527  0.33361  0.42551  1.0000
  C   C4402     1.0  0.58151  0.36913  0.41441  1.0000
  C   C4403     1.0  0.83094  0.27198  0.41197  1.0000
  C   C4404     1.0  0.82985  0.28745  0.41797  1.0000
  C   C4405     1.0  0.83409  0.30266  0.40574  1.0000
  C   C4406     1.0  0.67719  0.20693  0.55730  1.0000
  H   H3521     1.0  0.82628  0.28746  0.43206  1.0000
  C   C4407     1.0  0.71921  0.39553  0.38184  1.0000
  C   C4408     1.0  0.76826  0.25742  0.52110  1.0000
  C   C4409     1.0  0.76890  0.26940  0.50471  1.0000
  C   C4410     1.0  0.78079  0.28101  0.49937  1.0000
  C   C4411     1.0  0.79286  0.28001  0.50987  1.0000
  C   C4412     1.0  0.79216  0.26809  0.52635  1.0000
  C   C4413     1.0  0.77962  0.25707  0.53213  1.0000
  H   H3522     1.0  0.76000  0.26995  0.49625  1.0000
  H   H3523     1.0  0.78091  0.29033  0.48686  1.0000
  H   H3524     1.0  0.80127  0.26742  0.53468  1.0000
  H   H3525     1.0  0.77903  0.24800  0.54495  1.0000
  C   C4414     1.0  0.63347  0.30941  0.44615  1.0000
  C   C4415     1.0  0.62946  0.29799  0.46271  1.0000
  C   C4416     1.0  0.61477  0.30350  0.47586  1.0000
  C   C4417     1.0  0.60368  0.32026  0.47224  1.0000
  C   C4418     1.0  0.60772  0.33168  0.45570  1.0000
  C   C4419     1.0  0.62270  0.32636  0.44276  1.0000
  H   H3526     1.0  0.63785  0.28492  0.46541  1.0000
  H   H3527     1.0  0.61187  0.29469  0.48863  1.0000
  H   H3528     1.0  0.59923  0.34468  0.45286  1.0000
  H   H3529     1.0  0.62580  0.33525  0.43007  1.0000
  C   C4420     1.0  0.94312  0.21883  0.38806  1.0000
  S   S620      1.0  0.61874  0.27130  0.55927  1.0000
  C   C4421     1.0  0.53046  0.24783  0.52299  1.0000
  C   C4422     1.0  0.53582  0.25937  0.53046  1.0000
  H   H3530     1.0  0.53301  0.24930  0.50870  1.0000
  H   H3531     1.0  0.54264  0.26963  0.52195  1.0000
  C   C4423     1.0  0.51156  0.37081  0.53899  1.0000
  C   C4424     1.0  0.52728  0.36014  0.54410  1.0000
  C   C4425     1.0  0.81519  0.37431  0.38290  1.0000
  C   C4426     1.0  0.49988  0.44887  0.43411  1.0000
  H   H3532     1.0  0.51061  0.37403  0.52512  1.0000
  H   H3533     1.0  0.53836  0.35521  0.53417  1.0000
  C   C4427     1.0  0.93687  0.35905  0.43742  1.0000
  C   C4428     1.0  0.94874  0.35087  0.42398  1.0000
  C   C4429     1.0  0.94345  0.35147  0.40824  1.0000
  C   C4430     1.0  0.92620  0.36014  0.40596  1.0000
  C   C4431     1.0  0.91426  0.36801  0.41954  1.0000
  C   C4432     1.0  0.91961  0.36762  0.43519  1.0000
  H   H3534     1.0  0.96206  0.34405  0.42576  1.0000
  H   H3535     1.0  0.95272  0.34533  0.39790  1.0000
  H   H3536     1.0  0.90083  0.37441  0.41794  1.0000
  H   H3537     1.0  0.91036  0.37379  0.44558  1.0000
  C   C4433     1.0  0.93937  0.43631  0.50222  1.0000
  C   C4434     1.0  0.92902  0.44875  0.49093  1.0000
  C   C4435     1.0  0.92859  0.46704  0.48855  1.0000
  C   C4436     1.0  0.93803  0.47299  0.49785  1.0000
  H   H3538     1.0  0.91867  0.37750  0.54517  1.0000
  C   C4437     1.0  0.71164  0.17420  0.57358  1.0000
  H   H3539     1.0  0.92161  0.44427  0.48385  1.0000
  C   C4438     1.0  0.63303  0.37579  0.54792  1.0000
  C   C4439     1.0  0.58917  0.46082  0.37787  1.0000
  C   C4440     1.0  0.84662  0.39943  0.48084  1.0000
  C   C4441     1.0  0.84724  0.38113  0.48363  1.0000
  C   C4442     1.0  0.83479  0.37507  0.47789  1.0000
  C   C4443     1.0  0.82193  0.38738  0.46916  1.0000
  C   C4444     1.0  0.82149  0.40556  0.46644  1.0000
  C   C4445     1.0  0.83364  0.41153  0.47231  1.0000
  H   H3540     1.0  0.85703  0.37175  0.49052  1.0000
  H   H3541     1.0  0.83504  0.36099  0.48032  1.0000
  H   H3542     1.0  0.81158  0.41516  0.45982  1.0000
  H   H3543     1.0  0.83302  0.42567  0.47015  1.0000
  C   C4446     1.0  0.54939  0.09984  0.56829  1.0000
  C   C4447     1.0  0.88817  0.34395  0.55814  1.0000
  C   C4448     1.0  0.87328  0.35709  0.55443  1.0000
  H   H3544     1.0  0.90035  0.03205  0.40096  1.0000
  C   C4449     1.0  0.79512  0.32309  0.39012  1.0000
  H   H3545     1.0  0.87444  0.36721  0.54237  1.0000
  C   C4450     1.0  0.90171  0.20637  0.39553  1.0000
  H   H3546     1.0  0.85895  0.39526  0.43224  1.0000
  C   C4451     1.0  0.93059  0.42722  0.42104  1.0000
  S   S621      1.0  0.54888  0.34391  0.56839  1.0000
  H   H3547     1.0  0.78394  0.30621  0.38064  1.0000
  C   C4452     1.0  0.89465  0.41195  0.43141  1.0000
  C   C4453     1.0  0.91384  0.44026  0.54641  1.0000
  C   C4454     1.0  0.65929  0.04468  0.53857  1.0000
  H   H3548     1.0  0.51351  0.39901  0.57386  1.0000
  C   C4455     1.0  0.52231  0.23401  0.53406  1.0000
  C   C4456     1.0  0.54334  0.02092  0.54726  1.0000
  C   C4457     1.0  0.55365  0.01357  0.53273  1.0000
  C   C4458     1.0  0.54678  0.01653  0.51731  1.0000
  C   C4459     1.0  0.52952  0.02663  0.51640  1.0000
  C   C4460     1.0  0.51900  0.03340  0.53118  1.0000
  C   C4461     1.0  0.52583  0.03034  0.54662  1.0000
  H   H3549     1.0  0.56699  0.00588  0.53325  1.0000
  H   H3550     1.0  0.97955  0.42653  0.47266  1.0000
  H   H3551     1.0  0.50558  0.04091  0.53079  1.0000
  H   H3552     1.0  0.51754  0.03543  0.55808  1.0000
  C   C4462     1.0  0.64647  0.03635  0.55116  1.0000
  H   H3553     1.0  0.83745  0.25136  0.57060  1.0000
  Fe  Fe310     1.0  0.59620  0.29145  0.54829  1.0000
  C   C4463     1.0  0.51333  0.46170  0.45056  1.0000
  C   C4464     1.0  0.92327  0.06558  0.38402  1.0000
  C   C4465     1.0  0.83981  0.28721  0.38151  1.0000
  H   H3554     1.0  0.52417  0.46108  0.45681  1.0000
  C   C4466     1.0  0.89345  0.46871  0.54724  1.0000
  C   C4467     1.0  0.97932  0.38592  0.41050  1.0000
  H   H3555     1.0  0.82046  0.27865  0.55463  1.0000
  C   C4468     1.0  0.51278  0.03673  0.43508  1.0000
  C   C4469     1.0  0.48949  0.12279  0.50351  1.0000
  H   H3556     1.0  0.60966  0.38514  0.49094  1.0000
  H   H3557     1.0  0.84749  0.36049  0.40752  1.0000
  C   C4470     1.0  0.65409  0.26112  0.49562  1.0000
  C   C4471     1.0  0.64008  0.26809  0.50838  1.0000
  C   C4472     1.0  0.64020  0.28385  0.51300  1.0000
  C   C4473     1.0  0.65434  0.29259  0.50498  1.0000
  C   C4474     1.0  0.66837  0.28581  0.49200  1.0000
  C   C4475     1.0  0.66820  0.26995  0.48740  1.0000
  P   P149      1.0  0.68607  0.29783  0.48132  1.0000
  C   C4476     1.0  0.67544  0.32093  0.47520  1.0000
  C   C4477     1.0  0.70113  0.29493  0.49595  1.0000
  C   C4478     1.0  0.71745  0.30051  0.48904  1.0000
  C   C4479     1.0  0.90790  0.04115  0.39123  1.0000
  C   C4480     1.0  0.72522  0.29004  0.51806  1.0000
  C   C4481     1.0  0.70911  0.28430  0.52500  1.0000
  C   C4482     1.0  0.69703  0.28679  0.51405  1.0000
  C   C4483     1.0  0.66004  0.32522  0.46809  1.0000
  C   C4484     1.0  0.56562  0.22037  0.55770  1.0000
  C   C4485     1.0  0.69891  0.28980  0.46153  1.0000
  C   C4486     1.0  0.69495  0.29814  0.44471  1.0000
  C   C4487     1.0  0.70511  0.29186  0.42952  1.0000
  C   C4488     1.0  0.71911  0.27707  0.43098  1.0000
  C   C4489     1.0  0.72305  0.26859  0.44766  1.0000
  C   C4490     1.0  0.71304  0.27491  0.46289  1.0000
  H   H3558     1.0  0.65391  0.24899  0.49195  1.0000
  C   C4491     1.0  0.92394  0.39638  0.55736  1.0000
  H   H3559     1.0  0.62935  0.28924  0.52289  1.0000
  H   H3560     1.0  0.65435  0.30468  0.50883  1.0000
  H   H3561     1.0  0.67875  0.26450  0.47734  1.0000
  H   H3562     1.0  0.73463  0.28789  0.52654  1.0000
  H   H3563     1.0  0.70602  0.27788  0.53894  1.0000
  H   H3564     1.0  0.68465  0.28225  0.51984  1.0000
  H   H3565     1.0  0.65478  0.31482  0.46601  1.0000
  H   H3566     1.0  0.95719  0.43268  0.51986  1.0000
  H   H3567     1.0  0.68406  0.30947  0.44312  1.0000
  H   H3568     1.0  0.70207  0.29850  0.41659  1.0000
  H   H3569     1.0  0.72693  0.27228  0.41914  1.0000
  H   H3570     1.0  0.73398  0.25723  0.44875  1.0000
  H   H3571     1.0  0.71634  0.26819  0.47571  1.0000
  H   H3572     1.0  0.82745  0.18609  0.41571  1.0000
  C   C4492     1.0  0.51204  0.33293  0.51392  1.0000
  C   C4493     1.0  0.87983  0.40399  0.43826  1.0000
  H   H3573     1.0  0.62404  0.42288  0.55842  1.0000
  Fe  Fe311     1.0  0.49984  0.15910  0.55679  1.0000
  H   H3574     1.0  0.56192  0.10304  0.56042  1.0000
  C   C4494     1.0  0.93447  0.40397  0.38213  1.0000
  H   H3575     1.0  0.60842  0.37306  0.56728  1.0000
  C   C4495     1.0  0.50820  0.08088  0.53638  1.0000
  C   C4496     1.0  0.51107  0.07263  0.55345  1.0000
  C   C4497     1.0  0.52844  0.06716  0.55648  1.0000
  C   C4498     1.0  0.54296  0.07002  0.54249  1.0000
  C   C4499     1.0  0.54016  0.07814  0.52525  1.0000
  C   C4500     1.0  0.52263  0.08384  0.52233  1.0000
  P   P150      1.0  0.55859  0.08361  0.50761  1.0000
  C   C4501     1.0  0.56117  0.10455  0.51028  1.0000
  C   C4502     1.0  0.57858  0.06654  0.50843  1.0000
  C   C4503     1.0  0.59544  0.07075  0.50077  1.0000
  C   C4504     1.0  0.61086  0.05727  0.50028  1.0000
  C   C4505     1.0  0.60948  0.03949  0.50693  1.0000
  C   C4506     1.0  0.59268  0.03522  0.51397  1.0000
  C   C4507     1.0  0.57731  0.04868  0.51481  1.0000
  C   C4508     1.0  0.54936  0.12032  0.50460  1.0000
  C   C4509     1.0  0.55046  0.13645  0.50781  1.0000
  C   C4510     1.0  0.56317  0.13687  0.51697  1.0000
  C   C4511     1.0  0.57464  0.12115  0.52309  1.0000
  C   C4512     1.0  0.57351  0.10500  0.51997  1.0000
  C   C4513     1.0  0.55352  0.08413  0.48661  1.0000
  C   C4514     1.0  0.54724  0.06988  0.48475  1.0000
  C   C4515     1.0  0.54410  0.06946  0.46837  1.0000
  C   C4516     1.0  0.54691  0.08340  0.45378  1.0000
  C   C4517     1.0  0.55337  0.09754  0.45546  1.0000
  C   C4518     1.0  0.55692  0.09780  0.47176  1.0000
  H   H3576     1.0  0.49476  0.08491  0.53403  1.0000
  H   H3577     1.0  0.49987  0.07022  0.56427  1.0000
  H   H3578     1.0  0.53061  0.06037  0.56962  1.0000
  H   H3579     1.0  0.55631  0.06583  0.54514  1.0000
  H   H3580     1.0  0.52002  0.09063  0.50926  1.0000
  H   H3581     1.0  0.59670  0.08440  0.49507  1.0000
  H   H3582     1.0  0.62388  0.06056  0.49475  1.0000
  H   H3583     1.0  0.62142  0.02904  0.50679  1.0000
  H   H3584     1.0  0.59154  0.02147  0.51879  1.0000
  H   H3585     1.0  0.56440  0.04514  0.52018  1.0000
  H   H3586     1.0  0.53902  0.12004  0.49809  1.0000
  H   H3587     1.0  0.54114  0.14853  0.50362  1.0000
  H   H3588     1.0  0.56378  0.14925  0.51992  1.0000
  H   H3589     1.0  0.58399  0.12142  0.53082  1.0000
  H   H3590     1.0  0.58190  0.09288  0.52561  1.0000
  H   H3591     1.0  0.54475  0.05903  0.49596  1.0000
  H   H3592     1.0  0.53923  0.05838  0.46714  1.0000
  H   H3593     1.0  0.54402  0.08325  0.44121  1.0000
  H   H3594     1.0  0.55561  0.10829  0.44411  1.0000
  H   H3595     1.0  0.56235  0.10860  0.47268  1.0000
  H   H3596     1.0  0.74267  0.37702  0.38963  1.0000
  C   C4519     1.0  0.94815  0.46051  0.50929  1.0000
  C   C4520     1.0  0.88609  0.47808  0.40328  1.0000
  C   C4521     1.0  0.93859  0.41037  0.42956  1.0000
  C   C4522     1.0  0.94660  0.37342  0.54486  1.0000
  C   C4523     1.0  0.60192  0.05797  0.54684  1.0000
  H   H3597     1.0  0.62914  0.26130  0.51479  1.0000
  C   C4524     1.0  0.81923  0.21401  0.41626  1.0000
  C   C4525     1.0  0.81878  0.19603  0.42294  1.0000
  C   C4526     1.0  0.80725  0.19088  0.43903  1.0000
  C   C4527     1.0  0.79590  0.20374  0.44825  1.0000
  C   C4528     1.0  0.79580  0.22189  0.44124  1.0000
  C   C4529     1.0  0.80803  0.22687  0.42552  1.0000
  P   P151      1.0  0.78143  0.23850  0.45324  1.0000
  C   C4530     1.0  0.76144  0.23121  0.46658  1.0000
  C   C4531     1.0  0.79453  0.24240  0.46679  1.0000
  C   C4532     1.0  0.80312  0.25688  0.46102  1.0000
  C   C4533     1.0  0.81301  0.25996  0.47173  1.0000
  C   C4534     1.0  0.81485  0.24839  0.48800  1.0000
  C   C4535     1.0  0.80666  0.23375  0.49366  1.0000
  C   C4536     1.0  0.79665  0.23066  0.48304  1.0000
  C   C4537     1.0  0.75270  0.22192  0.45983  1.0000
  C   C4538     1.0  0.73676  0.21696  0.46982  1.0000
  H   H3598     1.0  0.65087  0.41290  0.53624  1.0000
  C   C4539     1.0  0.88647  0.20042  0.40615  1.0000
  C   C4540     1.0  0.75367  0.23594  0.48317  1.0000
  C   C4541     1.0  0.77329  0.25872  0.43849  1.0000
  C   C4542     1.0  0.76636  0.27452  0.44495  1.0000
  C   C4543     1.0  0.75942  0.29014  0.43388  1.0000
  C   C4544     1.0  0.75921  0.29011  0.41634  1.0000
  C   C4545     1.0  0.76578  0.27439  0.40990  1.0000
  C   C4546     1.0  0.77255  0.25867  0.42100  1.0000
  H   H3599     1.0  0.82825  0.21810  0.40386  1.0000
  H   H3600     1.0  0.97361  0.38074  0.40237  1.0000
  H   H3601     1.0  0.80711  0.17692  0.44439  1.0000
  H   H3602     1.0  0.78728  0.19950  0.46085  1.0000
  H   H3603     1.0  0.80884  0.24071  0.42024  1.0000
  H   H3604     1.0  0.80199  0.26599  0.44842  1.0000
  H   H3605     1.0  0.81874  0.27170  0.46772  1.0000
  H   H3606     1.0  0.82206  0.25118  0.49651  1.0000
  H   H3607     1.0  0.80762  0.22511  0.50654  1.0000
  H   H3608     1.0  0.79025  0.21934  0.48772  1.0000
  H   H3609     1.0  0.75813  0.21866  0.44680  1.0000
  H   H3610     1.0  0.73014  0.20967  0.46463  1.0000
  H   H3611     1.0  0.98857  0.29699  0.39295  1.0000
  C   C4547     1.0  0.62534  0.33981  0.56116  1.0000
  H   H3612     1.0  0.75984  0.24347  0.48852  1.0000
  H   H3613     1.0  0.76621  0.27479  0.45858  1.0000
  H   H3614     1.0  0.75405  0.30221  0.43901  1.0000
  S   S622      1.0  0.56419  0.14164  0.55983  1.0000
  H   H3615     1.0  0.97467  0.45849  0.54863  1.0000
  H   H3616     1.0  0.77706  0.24655  0.41588  1.0000
  C   C4548     1.0  0.50669  0.03263  0.42190  1.0000
  C   C4549     1.0  0.93194  0.44244  0.42610  1.0000
  C   C4550     1.0  0.56499  0.00405  0.47002  1.0000
  C   C4551     1.0  0.58114  0.00430  0.47391  1.0000
  H   H3617     1.0  0.66501  0.33721  0.51534  1.0000
  C   C4552     1.0  0.58843  0.05951  0.56200  1.0000
  C   C4553     1.0  0.66137  0.34543  0.54031  1.0000
  H   H3618     1.0  0.54917  0.42215  0.52881  1.0000
  H   H3619     1.0  0.96704  0.45803  0.47266  1.0000
  C   C4554     1.0  0.55602  0.99026  0.47904  1.0000
  S   S623      1.0  0.52137  0.03007  0.49682  1.0000
  C   C4555     1.0  0.97043  0.44796  0.55944  1.0000
  H   H3620     1.0  0.55923  0.01471  0.46022  1.0000
  H   H3621     1.0  0.58798  0.01508  0.46702  1.0000
  C   C4556     1.0  0.63865  0.04272  0.56699  1.0000
  C   C4557     1.0  0.78840  0.31865  0.37760  1.0000
  H   H3622     1.0  0.89188  0.45414  0.42273  1.0000
  C   C4558     1.0  0.72934  0.22140  0.48651  1.0000
  C   C4559     1.0  0.49811  0.13989  0.52011  1.0000
  H   H3623     1.0  0.60035  0.12536  0.56126  1.0000
  C   C4560     1.0  0.90775  0.45156  0.39650  1.0000
  C   C4561     1.0  0.53362  0.10897  0.56251  1.0000
  H   H3624     1.0  0.51775  0.04883  0.43239  1.0000
  H   H3625     1.0  0.75368  0.30218  0.40780  1.0000
  C   C4562     1.0  0.65842  0.29531  0.55849  1.0000
  C   C4563     1.0  0.98013  0.46713  0.44569  1.0000
  H   H3626     1.0  0.87368  0.30220  0.39261  1.0000
  H   H3627     1.0  0.61047  0.16419  0.55574  1.0000
  H   H3628     1.0  0.55492  0.01111  0.50601  1.0000
  C   C4564     1.0  0.80200  0.34968  0.56626  1.0000
  P   P152      1.0  0.91861  0.42886  0.40399  1.0000
  H   H3629     1.0  0.62250  0.32816  0.49969  1.0000
  C   C4565     1.0  0.65594  0.17687  0.55009  1.0000
  C   C4566     1.0  0.65493  0.16334  0.54233  1.0000
  C   C4567     1.0  0.63847  0.15907  0.54402  1.0000
  C   C4568     1.0  0.65119  0.40905  0.38542  1.0000
  C   C4569     1.0  0.58856  0.39273  0.38161  1.0000
  C   C4570     1.0  0.65558  0.23270  0.54695  1.0000
  C   C4571     1.0  0.66939  0.24175  0.53812  1.0000
  C   C4572     1.0  0.68708  0.23339  0.53879  1.0000
  C   C4573     1.0  0.69098  0.21594  0.54829  1.0000
  C   C4574     1.0  0.64909  0.26227  0.57260  1.0000
  H   H3630     1.0  0.68036  0.19364  0.56513  1.0000
  C   C4575     1.0  0.87688  0.31519  0.38816  1.0000
  C   C4576     1.0  0.64040  0.18657  0.55924  1.0000
  C   C4577     1.0  0.65212  0.43999  0.38239  1.0000
  H   H3631     1.0  0.88637  0.19373  0.41991  1.0000
  H   H3632     1.0  0.79894  0.39965  0.41464  1.0000
  C   C4578     1.0  0.51268  0.30495  0.50670  1.0000
  C   C4579     1.0  0.61321  0.07011  0.54050  1.0000
  C   C4580     1.0  0.83882  0.30257  0.38752  1.0000
  C   C4581     1.0  0.62972  0.35532  0.52303  1.0000
  C   C4582     1.0  0.68957  0.33084  0.52427  1.0000
  H   H3633     1.0  0.66896  0.17930  0.54925  1.0000
  H   H3634     1.0  0.66706  0.15558  0.53576  1.0000
  H   H3635     1.0  0.63783  0.14807  0.53866  1.0000
  C   C4583     1.0  0.95877  0.21146  0.39464  1.0000
  Fe  Fe312     1.0  0.49630  0.05099  0.49292  1.0000
  H   H3636     1.0  0.64203  0.23979  0.54669  1.0000
  H   H3637     1.0  0.66627  0.25551  0.53136  1.0000
  H   H3638     1.0  0.69773  0.24058  0.53237  1.0000
  H   H3639     1.0  0.70467  0.20956  0.54913  1.0000
  C   C4584     1.0  0.66424  0.05920  0.54148  1.0000
  C   C4585     1.0  0.51168  0.31425  0.57239  1.0000
  H   H3640     1.0  0.91006  0.40297  0.56023  1.0000
  C   C4586     1.0  0.64160  0.40418  0.54293  1.0000
  H   H3641     1.0  0.96743  0.99442  0.38758  1.0000
  H   H3642     1.0  0.61890  0.22370  0.54449  1.0000
  H   H3643     1.0  0.93786  0.39844  0.42579  1.0000
  H   H3644     1.0  0.55389  0.37785  0.41238  1.0000
  C   C4587     1.0  0.85456  0.41269  0.56833  1.0000
  C   C4588     1.0  0.80794  0.39012  0.40712  1.0000
  H   H3645     1.0  0.92161  0.43038  0.53876  1.0000
  H   H3646     1.0  0.95178  0.30858  0.39107  1.0000
  C   C4589     1.0  0.49994  0.13425  0.50424  1.0000
  C   C4590     1.0  0.98253  0.37575  0.42698  1.0000
  C   C4591     1.0  0.67127  0.33789  0.52564  1.0000
  H   H3647     1.0  0.91021  0.05468  0.41054  1.0000
  C   C4592     1.0  0.69810  0.33116  0.53748  1.0000
  H   H3648     1.0  0.90267  0.45678  0.52416  1.0000
  H   H3649     1.0  0.59056  0.24590  0.54741  1.0000
  C   C4593     1.0  0.92875  0.38202  0.54881  1.0000
  H   H3650     1.0  0.50504  0.11235  0.56799  1.0000
  H   H3651     1.0  0.50031  0.43831  0.42760  1.0000
  C   C4594     1.0  0.61781  0.38157  0.56037  1.0000
  C   C4595     1.0  0.61101  0.08383  0.54937  1.0000
  S   S624      1.0  0.71291  0.23882  0.56872  1.0000
  C   C4596     1.0  0.95541  0.44162  0.55982  1.0000
  C   C4597     1.0  0.98311  0.43614  0.46066  1.0000
  C   C4598     1.0  0.53788  0.42377  0.53982  1.0000
  H   H3652     1.0  0.66536  0.04001  0.52629  1.0000
  H   H3653     1.0  0.96232  0.27723  0.40489  1.0000
  C   C4599     1.0  0.85672  0.35696  0.56623  1.0000
  C   C4600     1.0  0.94758  0.42385  0.44903  1.0000
  H   H3654     1.0  0.98557  0.32400  0.40460  1.0000
  C   C4601     1.0  0.59628  0.23937  0.55897  1.0000
  H   H3655     1.0  0.97369  0.39657  0.47140  1.0000
  H   H3656     1.0  0.65064  0.45110  0.38852  1.0000
  C   C4602     1.0  0.58056  0.27163  0.48909  1.0000
  C   C4603     1.0  0.56885  0.27533  0.47757  1.0000
  C   C4604     1.0  0.56187  0.26171  0.47555  1.0000
  C   C4605     1.0  0.56704  0.24425  0.48464  1.0000
  C   C4606     1.0  0.57922  0.24032  0.49590  1.0000
  C   C4607     1.0  0.58572  0.25421  0.49827  1.0000
  P   P153      1.0  0.58829  0.21758  0.50554  1.0000
  C   C4608     1.0  0.58031  0.21196  0.52932  1.0000
  C   C4609     1.0  0.58167  0.20233  0.49635  1.0000
  C   C4610     1.0  0.56423  0.19927  0.50236  1.0000
  C   C4611     1.0  0.55884  0.18723  0.49583  1.0000
  C   C4612     1.0  0.57087  0.17804  0.48332  1.0000
  C   C4613     1.0  0.58829  0.18095  0.47730  1.0000
  C   C4614     1.0  0.59371  0.19307  0.48378  1.0000
  C   C4615     1.0  0.58233  0.19399  0.53799  1.0000
  C   C4616     1.0  0.57604  0.18933  0.55633  1.0000
  C   C4617     1.0  0.87598  0.40676  0.40837  1.0000
  C   C4618     1.0  0.57175  0.22513  0.53928  1.0000
  C   C4619     1.0  0.61225  0.21533  0.50003  1.0000
  C   C4620     1.0  0.62272  0.20660  0.51280  1.0000
  C   C4621     1.0  0.64116  0.20567  0.50846  1.0000
  C   C4622     1.0  0.64929  0.21335  0.49138  1.0000
  C   C4623     1.0  0.63897  0.22213  0.47862  1.0000
  C   C4624     1.0  0.62052  0.22313  0.48291  1.0000
  H   H3657     1.0  0.58582  0.28231  0.49066  1.0000
  H   H3658     1.0  0.56527  0.28879  0.47017  1.0000
  H   H3659     1.0  0.55262  0.26462  0.46673  1.0000
  H   H3660     1.0  0.56167  0.23390  0.48261  1.0000
  H   H3661     1.0  0.59515  0.25150  0.50685  1.0000
  H   H3662     1.0  0.55477  0.20618  0.51218  1.0000
  H   H3663     1.0  0.54531  0.18505  0.50059  1.0000
  H   H3664     1.0  0.56672  0.16862  0.47834  1.0000
  H   H3665     1.0  0.59764  0.17376  0.46766  1.0000
  H   H3666     1.0  0.60728  0.19500  0.47904  1.0000
  H   H3667     1.0  0.58864  0.18351  0.53059  1.0000
  H   H3668     1.0  0.69508  0.33907  0.56221  1.0000
  H   H3669     1.0  0.56973  0.23905  0.53295  1.0000
  H   H3670     1.0  0.61673  0.20060  0.52611  1.0000
  H   H3671     1.0  0.64919  0.19897  0.51834  1.0000
  H   H3672     1.0  0.66360  0.21253  0.48807  1.0000
  H   H3673     1.0  0.64523  0.22822  0.46539  1.0000
  H   H3674     1.0  0.61269  0.23008  0.47289  1.0000
  C   C4625     1.0  0.67128  0.39105  0.42819  1.0000
  C   C4626     1.0  0.66464  0.40242  0.44026  1.0000
  C   C4627     1.0  0.67385  0.41536  0.43982  1.0000
  C   C4628     1.0  0.68951  0.41717  0.42705  1.0000
  C   C4629     1.0  0.69589  0.40623  0.41447  1.0000
  C   C4630     1.0  0.68685  0.39290  0.41532  1.0000
  P   P154      1.0  0.71573  0.40932  0.39776  1.0000
  H   H3675     1.0  0.62220  0.38413  0.51664  1.0000
  C   C4631     1.0  0.73371  0.40391  0.40964  1.0000
  C   C4632     1.0  0.74323  0.41673  0.40924  1.0000
  C   C4633     1.0  0.75655  0.41248  0.41918  1.0000
  C   C4634     1.0  0.76026  0.39555  0.42984  1.0000
  C   C4635     1.0  0.75060  0.38290  0.43061  1.0000
  C   C4636     1.0  0.73729  0.38705  0.42070  1.0000
  H   H3676     1.0  0.78883  0.29118  0.57518  1.0000
  H   H3677     1.0  0.53366  0.34598  0.49908  1.0000
  C   C4637     1.0  0.62273  0.34034  0.50334  1.0000
  C   C4638     1.0  0.95489  0.39341  0.55830  1.0000
  H   H3678     1.0  0.95244  0.39559  0.45052  1.0000
  H   H3679     1.0  0.92424  0.39660  0.38947  1.0000
  H   H3680     1.0  0.55914  0.23058  0.56540  1.0000
  C   C4639     1.0  0.90309  0.45529  0.53801  1.0000
  H   H3681     1.0  0.98612  0.06229  0.38620  1.0000
  C   C4640     1.0  0.97988  0.44101  0.57315  1.0000
  H   H3682     1.0  0.66417  0.38100  0.42847  1.0000
  H   H3683     1.0  0.65228  0.40130  0.44986  1.0000
  H   H3684     1.0  0.66879  0.42408  0.44927  1.0000
  H   H3685     1.0  0.69653  0.42729  0.42679  1.0000
  H   H3686     1.0  0.69156  0.38401  0.40602  1.0000
  H   H3687     1.0  0.74017  0.43014  0.40169  1.0000
  H   H3688     1.0  0.76379  0.42241  0.41893  1.0000
  H   H3689     1.0  0.77040  0.39226  0.43778  1.0000
  H   H3690     1.0  0.75329  0.36991  0.43915  1.0000
  H   H3691     1.0  0.72970  0.37711  0.42182  1.0000
  H   H3692     1.0  0.60401  0.04695  0.54039  1.0000
  H   H3693     1.0  0.80641  0.34202  0.39604  1.0000
  C   C4641     1.0  0.87046  0.40140  0.42679  1.0000
  C   C4642     1.0  0.66918  0.28198  0.56880  1.0000
  C   C4643     1.0  0.52888  0.35646  0.56188  1.0000
  C   C4644     1.0  0.62303  0.16820  0.55363  1.0000
  H   H3694     1.0  0.65883  0.98253  0.53547  1.0000
  C   C4645     1.0  0.53570  0.32163  0.49089  1.0000
  C   C4646     1.0  0.52819  0.30679  0.49374  1.0000
  H   H3695     1.0  0.54804  0.32282  0.48121  1.0000
  H   H3696     1.0  0.53451  0.29651  0.48618  1.0000
  C   C4647     1.0  0.49708  0.37733  0.55169  1.0000
  S   S625      1.0  0.91929  0.36210  0.38608  1.0000
  C   C4648     1.0  0.94833  0.28344  0.40825  1.0000
  H   H3697     1.0  0.88739  0.27715  0.40965  1.0000
  H   H3698     1.0  0.83312  0.41005  0.53721  1.0000
  C   C4649     1.0  0.61535  0.35673  0.49370  1.0000
  C   C4650     1.0  0.93511  0.41983  0.38638  1.0000
  C   C4651     1.0  0.83593  0.27187  0.39372  1.0000
  H   H3699     1.0  0.76546  0.27437  0.39633  1.0000
  H   H3700     1.0  0.91323  0.20414  0.40132  1.0000
  H   H3701     1.0  0.86877  0.40469  0.39946  1.0000
  H   H3702     1.0  0.85650  0.42548  0.51719  1.0000
  C   C4652     1.0  0.84268  0.41336  0.54277  1.0000
  H   H3703     1.0  0.57886  0.35993  0.42703  1.0000
  C   C4653     1.0  0.61239  0.22693  0.55736  1.0000
  H   H3704     1.0  0.71708  0.21745  0.49434  1.0000
  C   C4654     1.0  0.83634  0.26401  0.57396  1.0000
  C   C4655     1.0  0.90053  0.41702  0.41293  1.0000
  H   H3705     1.0  0.72102  0.30667  0.47509  1.0000
  C   C4656     1.0  0.85504  0.27880  0.45541  1.0000
  C   C4657     1.0  0.85748  0.26455  0.44714  1.0000
  C   C4658     1.0  0.86896  0.26418  0.43053  1.0000
  C   C4659     1.0  0.87813  0.27795  0.42225  1.0000
  C   C4660     1.0  0.87561  0.29244  0.43036  1.0000
  C   C4661     1.0  0.86401  0.29270  0.44704  1.0000
  P   P155      1.0  0.88847  0.30960  0.42017  1.0000
  C   C4662     1.0  0.88458  0.32491  0.43474  1.0000
  C   C4663     1.0  0.91195  0.29939  0.41589  1.0000
  C   C4664     1.0  0.92428  0.30910  0.40416  1.0000
  C   C4665     1.0  0.94237  0.30111  0.40034  1.0000
  C   C4666     1.0  0.91816  0.28182  0.42439  1.0000
  C   C4667     1.0  0.86834  0.33729  0.43674  1.0000
  C   C4668     1.0  0.86543  0.34996  0.44710  1.0000
  C   C4669     1.0  0.87863  0.35018  0.45575  1.0000
  C   C4670     1.0  0.89466  0.33761  0.45418  1.0000
  C   C4671     1.0  0.89772  0.32507  0.44362  1.0000
  C   C4672     1.0  0.62649  0.40980  0.55543  1.0000
  H   H3706     1.0  0.57970  0.05011  0.56646  1.0000
  H   H3707     1.0  0.84148  0.31451  0.37801  1.0000
  H   H3708     1.0  0.53936  0.39554  0.54944  1.0000
  H   H3709     1.0  0.67880  0.36300  0.47454  1.0000
  H   H3710     1.0  0.50692  0.04163  0.40905  1.0000
  H   H3711     1.0  0.84619  0.27916  0.46833  1.0000
  H   H3712     1.0  0.85040  0.25386  0.45354  1.0000
  C   C4673     1.0  0.51161  0.02570  0.45199  1.0000
  H   H3713     1.0  0.52496  0.43673  0.44221  1.0000
  H   H3714     1.0  0.86197  0.30346  0.45381  1.0000
  H   H3715     1.0  0.91999  0.32285  0.39793  1.0000
  P   P156      1.0  0.93036  0.41996  0.57447  1.0000
  H   H3716     1.0  0.90911  0.27424  0.43409  1.0000
  H   H3717     1.0  0.85798  0.33711  0.43021  1.0000
  H   H3718     1.0  0.85294  0.35961  0.44836  1.0000
  H   H3719     1.0  0.87652  0.36014  0.46358  1.0000
  H   H3720     1.0  0.90494  0.33787  0.46081  1.0000
  H   H3721     1.0  0.91041  0.31576  0.44227  1.0000
  C   C4674     1.0  0.64277  0.29230  0.55560  1.0000
  C   C4675     1.0  0.63804  0.27580  0.56274  1.0000
  H   H3722     1.0  0.95322  0.42251  0.46046  1.0000
  C   C4676     1.0  0.73778  0.23094  0.49313  1.0000
  H   H3723     1.0  0.67406  0.06553  0.53142  1.0000
  C   C4677     1.0  0.93695  0.40219  0.56223  1.0000
  H   H3724     1.0  0.96522  0.39755  0.56190  1.0000
  H   H3725     1.0  0.82702  0.38298  0.42413  1.0000
  H   H3726     1.0  0.60086  0.99088  0.48988  1.0000
  H   H3727     1.0  0.62006  0.09298  0.54475  1.0000
  H   H3728     1.0  0.65664  0.38309  0.52944  1.0000
  H   H3729     1.0  0.49570  0.00414  0.51376  1.0000
  H   H3730     1.0  0.73211  0.23442  0.50609  1.0000
  H   H3731     1.0  0.87065  0.25327  0.42400  1.0000
  C   C4678     1.0  0.86851  0.42603  0.53845  1.0000
  S   S626      1.0  0.56958  0.29454  0.56690  1.0000
  C   C4679     1.0  0.51771  0.41082  0.56550  1.0000
  H   H3732     1.0  0.51179  0.22224  0.56110  1.0000
  P   P157      1.0  0.81271  0.31597  0.55765  1.0000
  C   C4680     1.0  0.91349  0.05388  0.39661  1.0000
  C   C4681     1.0  0.82911  0.32384  0.53876  1.0000
  C   C4682     1.0  0.84087  0.33331  0.54083  1.0000
  C   C4683     1.0  0.85426  0.33856  0.52646  1.0000
  C   C4684     1.0  0.85618  0.33415  0.51003  1.0000
  C   C4685     1.0  0.84481  0.32434  0.50799  1.0000
  C   C4686     1.0  0.83151  0.31898  0.52237  1.0000
  C   C4687     1.0  0.80256  0.33137  0.57236  1.0000
  H   H3733     1.0  0.98189  0.41024  0.39136  1.0000
  H   H3734     1.0  0.53246  0.45240  0.53287  1.0000
  S   S627      1.0  0.73730  0.26781  0.56528  1.0000
  C   C4688     1.0  0.61545  0.37246  0.49842  1.0000
  C   C4689     1.0  0.79408  0.31163  0.55157  1.0000
  C   C4690     1.0  0.78485  0.29872  0.56288  1.0000
  C   C4691     1.0  0.77033  0.29534  0.55840  1.0000
  C   C4692     1.0  0.76471  0.30493  0.54274  1.0000
  C   C4693     1.0  0.77340  0.31826  0.53172  1.0000
  C   C4694     1.0  0.78792  0.32177  0.53621  1.0000
  H   H3735     1.0  0.92637  0.45564  0.41949  1.0000
  C   C4695     1.0  0.53244  0.40880  0.55146  1.0000
  H   H3736     1.0  0.94079  0.45241  0.44448  1.0000
  C   C4696     1.0  0.59768  0.08523  0.56470  1.0000
  S   S628      1.0  0.54056  0.26964  0.55952  1.0000
  H   H3737     1.0  0.83987  0.33638  0.55363  1.0000
  H   H3738     1.0  0.86331  0.34585  0.52812  1.0000
  H   H3739     1.0  0.86663  0.33813  0.49896  1.0000
  H   H3740     1.0  0.84640  0.32068  0.49535  1.0000
  H   H3741     1.0  0.82331  0.31079  0.52072  1.0000
  H   H3742     1.0  0.80792  0.35491  0.55263  1.0000
  H   H3743     1.0  0.69717  0.32482  0.51314  1.0000
  H   H3744     1.0  0.51572  0.30122  0.55074  1.0000
  C   C4697     1.0  0.71272  0.43169  0.38456  1.0000
  C   C4698     1.0  0.65935  0.21519  0.55674  1.0000
  H   H3745     1.0  0.75371  0.30195  0.53911  1.0000
  H   H3746     1.0  0.76903  0.32571  0.51959  1.0000
  H   H3747     1.0  0.79437  0.33226  0.52759  1.0000
  C   C4699     1.0  0.50427  0.01063  0.45576  1.0000
  C   C4700     1.0  0.68846  0.33900  0.55188  1.0000
  C   C4701     1.0  0.88588  0.33997  0.39317  1.0000
  C   C4702     1.0  0.91100  0.45999  0.37844  1.0000
  H   H3748     1.0  0.87891  0.43252  0.52959  1.0000
  C   C4703     1.0  0.62261  0.37180  0.51303  1.0000
  H   H3749     1.0  0.95021  0.36235  0.53811  1.0000
  Fe  Fe313     1.0  0.74097  0.24233  0.55672  1.0000
  H   H3750     1.0  0.50950  0.13870  0.49252  1.0000
  C   C4704     1.0  0.87133  0.21204  0.38142  1.0000
  C   C4705     1.0  0.88287  0.32257  0.39922  1.0000
  C   C4706     1.0  0.59463  0.13135  0.57280  1.0000
  P   P158      1.0  0.63752  0.35394  0.54297  1.0000
  C   C4707     1.0  0.52373  0.24398  0.55993  1.0000
  Fe  Fe314     1.0  0.55939  0.28822  0.54595  1.0000
  H   H3751     1.0  0.97049  0.37974  0.50227  1.0000
  C   C4708     1.0  0.85589  0.42206  0.53145  1.0000
  H   H3752     1.0  0.95567  0.46490  0.51631  1.0000
  C   C4709     1.0  0.52847  0.44079  0.54214  1.0000
  S   S629      1.0  0.50034  0.07250  0.46860  1.0000
  H   H3753     1.0  0.60943  0.35714  0.48267  1.0000
  H   H3754     1.0  0.93297  0.22865  0.39436  1.0000
  C   C4710     1.0  0.89498  0.46062  0.40882  1.0000
  H   H3755     1.0  0.74179  0.30284  0.49472  1.0000
  C   C4711     1.0  0.82470  0.29591  0.56958  1.0000
  C   C4712     1.0  0.67023  0.34632  0.55318  1.0000
  S   S630      1.0  0.59187  0.32059  0.53557  1.0000
  H   H3756     1.0  0.71217  0.32519  0.53664  1.0000
  S   S631      1.0  0.66344  0.08472  0.55887  1.0000
  H   H3757     1.0  0.64616  0.42197  0.40745  1.0000
  H   H3758     1.0  0.71626  0.17502  0.55938  1.0000
  H   H3759     1.0  0.98001  0.47982  0.49516  1.0000
  H   H3760     1.0  0.65129  0.37018  0.46231  1.0000
  C   C4713     1.0  0.95968  0.37914  0.54956  1.0000
  H   H3761     1.0  0.69412  0.33191  0.48268  1.0000
  C   C4714     1.0  0.50433  0.31812  0.51678  1.0000
  S   S632      1.0  0.52849  0.18573  0.56888  1.0000
  H   H3762     1.0  0.49071  0.20723  0.51340  1.0000
  C   C4715     1.0  0.62981  0.33964  0.51797  1.0000
  H   H3763     1.0  0.89025  0.34611  0.40150  1.0000
  C   C4716     1.0  0.52757  0.33473  0.50093  1.0000
  C   C4717     1.0  0.83536  0.36808  0.40319  1.0000
  H   H3764     1.0  0.84514  0.36693  0.56312  1.0000
  C   C4718     1.0  0.82384  0.38073  0.41249  1.0000
  H   H3765     1.0  0.63419  0.30273  0.54818  1.0000
  C   C4719     1.0  0.68214  0.33470  0.47752  1.0000
  C   C4720     1.0  0.98543  0.39148  0.47719  1.0000
  C   C4721     1.0  0.65152  0.34292  0.46326  1.0000
  H   H3766     1.0  0.63979  0.34605  0.45752  1.0000
  C   C4722     1.0  0.94908  0.44226  0.51119  1.0000
  C   C4723     1.0  0.64485  0.38726  0.53915  1.0000
  C   C4724     1.0  0.67346  0.35243  0.47288  1.0000
  C   C4725     1.0  0.65672  0.06562  0.55720  1.0000
  C   C4726     1.0  0.51867  0.23238  0.55250  1.0000
  C   C4727     1.0  0.72931  0.29831  0.50012  1.0000
  C   C4728     1.0  0.84191  0.40878  0.56116  1.0000
  C   C4729     1.0  0.59901  0.37107  0.40650  1.0000
  C   C4730     1.0  0.65810  0.35652  0.46585  1.0000
  H   H3767     1.0  0.57742  0.17549  0.56284  1.0000
  H   H3768     1.0  0.50300  0.00253  0.46910  1.0000
  H   H3769     1.0  0.68403  0.43822  0.39401  1.0000
  C   C4731     1.0  0.53271  0.25717  0.54901  1.0000
  C   C4732     1.0  0.82658  0.27950  0.56504  1.0000
  C   C4733     1.0  0.86797  0.42122  0.55677  1.0000
  H   H3770     1.0  0.51590  0.02915  0.46234  1.0000
  C   C4734     1.0  0.98357  0.38182  0.49474  1.0000
  H   H3771     1.0  0.95035  0.44035  0.38067  1.0000
  C   C4735     1.0  0.60744  0.34005  0.56158  1.0000
  H   H3772     1.0  0.60992  0.36354  0.41301  1.0000
  C   C4736     1.0  0.90188  0.21515  0.37772  1.0000
  Fe  Fe315     1.0  0.53643  0.15848  0.56265  1.0000
  C   C4737     1.0  0.91499  0.43845  0.56419  1.0000
  H   H3773     1.0  0.55993  0.39909  0.38374  1.0000
  H   H3774     1.0  0.88580  0.38759  0.56995  1.0000
  C   C4738     1.0  0.60253  0.38287  0.39022  1.0000
  C   C4739     1.0  0.56777  0.20249  0.56623  1.0000
  S   S633      1.0  0.69414  0.14927  0.57210  1.0000
  H   H3775     1.0  0.66209  0.30807  0.55299  1.0000
  C   C4740     1.0  0.56748  0.37920  0.40611  1.0000
  Fe  Fe316     1.0  0.56403  0.32284  0.55238  1.0000
  H   H3776     1.0  0.88552  0.48060  0.54058  1.0000
  H   H3777     1.0  0.79105  0.39411  0.38862  1.0000
  H   H3778     1.0  0.96062  0.21558  0.40591  1.0000
  C   C4741     1.0  0.89086  0.41467  0.40146  1.0000
  C   C4742     1.0  0.80355  0.38691  0.39240  1.0000
  C   C4743     1.0  0.50671  0.31080  0.55819  1.0000
  C   C4744     1.0  0.49824  0.00632  0.44253  1.0000
  C   C4745     1.0  0.98368  0.40268  0.40445  1.0000
  C   C4746     1.0  0.90519  0.45201  0.57337  1.0000
  H   H3779     1.0  0.76360  0.28512  0.56711  1.0000
  C   C4747     1.0  0.62394  0.18195  0.56116  1.0000
  S   S634      1.0  0.83736  0.25257  0.38617  1.0000
  C   C4748     1.0  0.61459  0.39851  0.56410  1.0000
  C   C4749     1.0  0.51364  0.44283  0.55613  1.0000
  H   H3780     1.0  0.49007  0.17714  0.51070  1.0000
  H   H3781     1.0  0.61185  0.18855  0.56893  1.0000
  C   C4750     1.0  0.94981  0.42813  0.57393  1.0000
  H   H3782     1.0  0.60069  0.34886  0.55136  1.0000
  C   C4751     1.0  0.58660  0.07278  0.57142  1.0000
  C   C4752     1.0  0.97960  0.07278  0.37679  1.0000
  H   H3783     1.0  0.58829  0.47334  0.38142  1.0000
  H   H3784     1.0  0.66295  0.35223  0.56452  1.0000
  H   H3785     1.0  0.79389  0.37544  0.57328  1.0000
  H   H3786     1.0  0.83149  0.40216  0.56958  1.0000
  S   S635      1.0  0.68751  0.28681  0.57394  1.0000
  C   C4753     1.0  0.49851  0.37340  0.56954  1.0000
  H   H3787     1.0  0.97352  0.37249  0.54645  1.0000
  C   C4754     1.0  0.73357  0.38091  0.38062  1.0000
  C   C4755     1.0  0.97592  0.45414  0.46079  1.0000
  H   H3788     1.0  0.88725  0.47759  0.57196  1.0000
  C   C4756     1.0  0.80123  0.33895  0.38612  1.0000
  H   H3789     1.0  0.97924  0.36270  0.43169  1.0000
  H   H3790     1.0  0.85939  0.19898  0.40745  1.0000
  C   C4757     1.0  0.49034  0.31975  0.55346  1.0000
  P   P159      1.0  0.64162  0.20377  0.56975  1.0000
  C   C4758     1.0  0.57095  0.39110  0.38983  1.0000
  H   H3791     1.0  0.61659  0.45077  0.38019  1.0000
  H   H3792     1.0  0.83988  0.35449  0.38187  1.0000
  H   H3793     1.0  0.59621  0.09587  0.57144  1.0000
  C   C4759     1.0  0.88653  0.33093  0.57388  1.0000
  C   C4760     1.0  0.50158  0.99125  0.51023  1.0000
  C   C4761     1.0  0.87127  0.20333  0.39913  1.0000
  H   H3794     1.0  0.72421  0.19514  0.57406  1.0000
  H   H3795     1.0  0.52111  0.24242  0.57425  1.0000
  C   C4762     1.0  0.51454  0.36333  0.57455  1.0000
  C   C4763     1.0  0.50831  0.42784  0.56813  1.0000
  C   C4764     1.0  0.58834  0.99074  0.48683  1.0000
  H   H3796     1.0  0.50610  0.45607  0.55741  1.0000
  C   C4765     1.0  0.60513  0.44814  0.37708  1.0000
  C   C4766     1.0  0.94923  0.42845  0.37716  1.0000
  C   C4767     1.0  0.51970  0.98408  0.50993  1.0000
  C   C4768     1.0  0.59809  0.32868  0.57513  1.0000
  C   C4769     1.0  0.49119  0.98201  0.50577  1.0000
  H   H3797     1.0  0.64721  0.32764  0.57508  1.0000
  H   H3798     1.0  0.52748  0.99177  0.51299  1.0000
  H   H3799     1.0  0.52445  0.30734  0.57580  1.0000
  C   C4770     1.0  0.63347  0.32838  0.57489  1.0000
  H   H3800     1.0  0.60289  0.40285  0.57382  1.0000
  H   H3801     1.0  0.58438  0.32874  0.57524  1.0000
  C   C4771     1.0  0.62036  0.21922  0.57217  1.0000
  C   C4772     1.0  0.57676  0.14025  0.57557  1.0000
  C   C4773     1.0  0.58763  0.24371  0.57547  1.0000
  C   C4774     1.0  0.66465  0.26532  0.57558  1.0000
  S   S636      1.0  0.85117  0.16844  0.75932  1.0000
  S   S637      1.0  0.64770  0.09321  0.60926  1.0000
  S   S638      1.0  0.66283  0.12599  0.61556  1.0000
  Fe  Fe317     1.0  0.67194  0.09662  0.61683  1.0000
  S   S639      1.0  0.68500  0.07770  0.63862  1.0000
  Fe  Fe318     1.0  0.64000  0.12299  0.60544  1.0000
  S   S640      1.0  0.61180  0.13751  0.61419  1.0000
  Fe  Fe319     1.0  0.81625  0.33603  0.66099  1.0000
  S   S641      1.0  0.84400  0.32965  0.64495  1.0000
  S   S642      1.0  0.80632  0.35735  0.67745  1.0000
  Fe  Fe320     1.0  0.80354  0.30749  0.64983  1.0000
  S   S643      1.0  0.83050  0.29889  0.63314  1.0000
  S   S644      1.0  0.77881  0.29639  0.65304  1.0000
  Fe  Fe321     1.0  0.84133  0.30115  0.65595  1.0000
  S   S645      1.0  0.86283  0.27989  0.66754  1.0000
  Fe  Fe322     1.0  0.83046  0.32812  0.62391  1.0000
  S   S646      1.0  0.83379  0.34356  0.59556  1.0000
  S   S647      1.0  0.81435  0.30761  0.67339  1.0000
  S   S648      1.0  0.80276  0.33659  0.63927  1.0000
  Fe  Fe323     1.0  0.70421  0.08381  0.72617  1.0000
  S   S649      1.0  0.73244  0.07693  0.71142  1.0000
  S   S650      1.0  0.68171  0.09788  0.71163  1.0000
  Fe  Fe324     1.0  0.71423  0.06911  0.76263  1.0000
  S   S651      1.0  0.74317  0.06068  0.75046  1.0000
  Fe  Fe325     1.0  0.73987  0.08721  0.73184  1.0000
  S   S652      1.0  0.75783  0.10716  0.72548  1.0000
  Fe  Fe326     1.0  0.73300  0.05103  0.73140  1.0000
  S   S653      1.0  0.74735  0.02440  0.72450  1.0000
  S   S654      1.0  0.71137  0.09633  0.74505  1.0000
  S   S655      1.0  0.70437  0.05731  0.74508  1.0000
  C   C4775     1.0  0.62414  0.31688  0.58828  1.0000
  H   H3802     1.0  0.53150  0.07423  0.60704  1.0000
  Fe  Fe327     1.0  0.72371  0.22421  0.59324  1.0000
  H   H3803     1.0  0.83634  0.34474  0.71688  1.0000
  S   S656      1.0  0.71523  0.19916  0.61089  1.0000
  Fe  Fe328     1.0  0.74673  0.25100  0.58981  1.0000
  S   S657      1.0  0.59925  0.98215  0.62826  1.0000
  S   S658      1.0  0.77092  0.25610  0.59667  1.0000
  C   C4776     1.0  0.85950  0.42459  0.59847  1.0000
  C   C4777     1.0  0.50407  0.45051  0.59875  1.0000
  C   C4778     1.0  0.98388  0.44322  0.72871  1.0000
  H   H3804     1.0  0.50951  0.40181  0.60632  1.0000
  S   S659      1.0  0.71884  0.24862  0.60481  1.0000
  C   C4779     1.0  0.92211  0.46314  0.73142  1.0000
  S   S660      1.0  0.82897  0.09342  0.75412  1.0000
  C   C4780     1.0  0.63372  0.98713  0.61978  1.0000
  H   H3805     1.0  0.85323  0.46474  0.74182  1.0000
  S   S661      1.0  0.87500  0.29278  0.73874  1.0000
  Fe  Fe329     1.0  0.85593  0.43293  0.67369  1.0000
  S   S662      1.0  0.88446  0.41952  0.67355  1.0000
  S   S663      1.0  0.84066  0.42525  0.65746  1.0000
  Fe  Fe330     1.0  0.85717  0.45916  0.69548  1.0000
  S   S664      1.0  0.88587  0.44767  0.69704  1.0000
  Fe  Fe331     1.0  0.88967  0.44699  0.66809  1.0000
  S   S665      1.0  0.91448  0.45255  0.64771  1.0000
  Fe  Fe332     1.0  0.87796  0.42145  0.70223  1.0000
  S   S666      1.0  0.88460  0.39859  0.72439  1.0000
  S   S667      1.0  0.86143  0.46048  0.66614  1.0000
  S   S668      1.0  0.84887  0.43282  0.70288  1.0000
  H   H3806     1.0  0.89806  0.32080  0.57682  1.0000
  C   C4781     1.0  0.82588  0.44385  0.74765  1.0000
  H   H3807     1.0  0.55814  0.11879  0.62890  1.0000
  P   P160      1.0  0.97703  0.29577  0.74089  1.0000
  C   C4782     1.0  0.74345  0.15962  0.64085  1.0000
  H   H3808     1.0  0.85395  0.46987  0.58807  1.0000
  C   C4783     1.0  0.90645  0.17177  0.76388  1.0000
  C   C4784     1.0  0.65216  0.98111  0.64169  1.0000
  H   H3809     1.0  0.95753  0.03483  0.73363  1.0000
  C   C4785     1.0  0.97587  0.31918  0.73111  1.0000
  C   C4786     1.0  0.90597  0.39503  0.72874  1.0000
  C   C4787     1.0  0.91894  0.40401  0.71722  1.0000
  C   C4788     1.0  0.93577  0.40118  0.72144  1.0000
  H   H3810     1.0  0.85020  0.28211  0.60114  1.0000
  H   H3811     1.0  0.91598  0.41314  0.70516  1.0000
  H   H3812     1.0  0.86599  0.20006  0.74633  1.0000
  C   C4789     1.0  0.61934  0.98273  0.63333  1.0000
  H   H3813     1.0  0.87528  0.43283  0.63098  1.0000
  C   C4790     1.0  0.71612  0.18563  0.58186  1.0000
  C   C4791     1.0  0.54886  0.08692  0.58417  1.0000
  C   C4792     1.0  0.60650  0.31694  0.58834  1.0000
  C   C4793     1.0  0.51546  0.21128  0.62265  1.0000
  H   H3814     1.0  0.57512  0.25337  0.57662  1.0000
  Fe  Fe333     1.0  0.95409  0.37935  0.77367  1.0000
  C   C4794     1.0  0.97458  0.42738  0.58708  1.0000
  C   C4795     1.0  0.96828  0.28559  0.72806  1.0000
  C   C4796     1.0  0.78590  0.35495  0.59550  1.0000
  H   H3815     1.0  0.97529  0.45256  0.72033  1.0000
  C   C4797     1.0  0.85671  0.46851  0.75246  1.0000
  H   H3816     1.0  0.98694  0.35573  0.73686  1.0000
  C   C4798     1.0  0.51153  0.21428  0.63997  1.0000
  H   H3817     1.0  0.92830  0.35677  0.70965  1.0000
  C   C4799     1.0  0.87905  0.46958  0.76765  1.0000
  H   H3818     1.0  0.96107  0.26607  0.76305  1.0000
  H   H3819     1.0  0.60297  0.07164  0.60177  1.0000
  H   H3820     1.0  0.71710  0.11819  0.59030  1.0000
  C   C4800     1.0  0.85457  0.44227  0.58950  1.0000
  Fe  Fe334     1.0  0.67743  0.12861  0.58705  1.0000
  C   C4801     1.0  0.65814  0.19359  0.61683  1.0000
  C   C4802     1.0  0.77615  0.10170  0.73617  1.0000
  C   C4803     1.0  0.77832  0.11357  0.74548  1.0000
  C   C4804     1.0  0.79419  0.11084  0.75166  1.0000
  C   C4805     1.0  0.80814  0.09646  0.74823  1.0000
  C   C4806     1.0  0.80582  0.08445  0.73919  1.0000
  C   C4807     1.0  0.78986  0.08695  0.73334  1.0000
  H   H3821     1.0  0.76782  0.12503  0.74764  1.0000
  H   H3822     1.0  0.61885  0.12283  0.58279  1.0000
  C   C4808     1.0  0.53227  0.08378  0.59452  1.0000
  H   H3823     1.0  0.78846  0.07781  0.72603  1.0000
  C   C4809     1.0  0.73931  0.00743  0.72019  1.0000
  H   H3824     1.0  0.91533  0.38790  0.59281  1.0000
  H   H3825     1.0  0.51574  0.36064  0.58830  1.0000
  C   C4810     1.0  0.72190  0.00929  0.71773  1.0000
  C   C4811     1.0  0.94978  0.28893  0.72925  1.0000
  H   H3826     1.0  0.71238  0.02170  0.71868  1.0000
  C   C4812     1.0  0.89366  0.47630  0.62556  1.0000
  H   H3827     1.0  0.77196  0.20427  0.74314  1.0000
  C   C4813     1.0  0.86550  0.28272  0.68796  1.0000
  C   C4814     1.0  0.85550  0.29750  0.69503  1.0000
  C   C4815     1.0  0.85826  0.30009  0.71086  1.0000
  C   C4816     1.0  0.87115  0.28808  0.71967  1.0000
  C   C4817     1.0  0.88093  0.27305  0.71283  1.0000
  C   C4818     1.0  0.87806  0.27035  0.69703  1.0000
  H   H3828     1.0  0.84580  0.30712  0.68820  1.0000
  H   H3829     1.0  0.85033  0.31149  0.71627  1.0000
  H   H3830     1.0  0.89090  0.26371  0.71953  1.0000
  H   H3831     1.0  0.88585  0.25888  0.69164  1.0000
  C   C4819     1.0  0.77657  0.28567  0.63699  1.0000
  C   C4820     1.0  0.79116  0.28017  0.62395  1.0000
  C   C4821     1.0  0.78912  0.27113  0.61177  1.0000
  C   C4822     1.0  0.77244  0.26772  0.61230  1.0000
  C   C4823     1.0  0.75779  0.27323  0.62531  1.0000
  C   C4824     1.0  0.75990  0.28208  0.63768  1.0000
  H   H3832     1.0  0.80407  0.28278  0.62328  1.0000
  H   H3833     1.0  0.80054  0.26683  0.60180  1.0000
  H   H3834     1.0  0.74490  0.27062  0.62587  1.0000
  H   H3835     1.0  0.74854  0.28628  0.64775  1.0000
  H   H3836     1.0  0.84233  0.36849  0.74396  1.0000
  C   C4825     1.0  0.87453  0.46489  0.75385  1.0000
  H   H3837     1.0  0.86869  0.32078  0.59786  1.0000
  H   H3838     1.0  0.86852  0.18692  0.70645  1.0000
  C   C4826     1.0  0.81704  0.37541  0.67274  1.0000
  C   C4827     1.0  0.83416  0.37522  0.66202  1.0000
  C   C4828     1.0  0.84199  0.39014  0.65833  1.0000
  C   C4829     1.0  0.83270  0.40531  0.66521  1.0000
  C   C4830     1.0  0.81576  0.40535  0.67616  1.0000
  C   C4831     1.0  0.80802  0.39042  0.67999  1.0000
  H   H3839     1.0  0.84126  0.36366  0.65650  1.0000
  H   H3840     1.0  0.85506  0.39011  0.64985  1.0000
  H   H3841     1.0  0.80835  0.41713  0.68122  1.0000
  H   H3842     1.0  0.79481  0.39066  0.68829  1.0000
  C   C4832     1.0  0.88414  0.38005  0.58348  1.0000
  C   C4833     1.0  0.69509  0.16096  0.60186  1.0000
  C   C4834     1.0  0.69997  0.17208  0.61021  1.0000
  C   C4835     1.0  0.71017  0.18470  0.60019  1.0000
  H   H3843     1.0  0.81652  0.07324  0.73653  1.0000
  C   C4836     1.0  0.92570  0.38957  0.67231  1.0000
  H   H3844     1.0  0.68682  0.15164  0.60962  1.0000
  H   H3845     1.0  0.69533  0.17131  0.62438  1.0000
  S   S669      1.0  0.59610  0.01426  0.58169  1.0000
  C   C4837     1.0  0.91102  0.41509  0.62826  1.0000
  C   C4838     1.0  0.68562  0.08539  0.65737  1.0000
  C   C4839     1.0  0.67290  0.09978  0.66295  1.0000
  C   C4840     1.0  0.67216  0.10391  0.67937  1.0000
  C   C4841     1.0  0.68425  0.09381  0.69018  1.0000
  C   C4842     1.0  0.69765  0.08012  0.68405  1.0000
  C   C4843     1.0  0.69840  0.07605  0.66763  1.0000
  H   H3846     1.0  0.66318  0.10722  0.65498  1.0000
  H   H3847     1.0  0.66189  0.11465  0.68394  1.0000
  H   H3848     1.0  0.70710  0.07228  0.69219  1.0000
  H   H3849     1.0  0.70863  0.06530  0.66305  1.0000
  C   C4844     1.0  0.91074  0.46656  0.62727  1.0000
  S   S670      1.0  0.68813  0.09925  0.58881  1.0000
  H   H3850     1.0  0.50742  0.21853  0.59742  1.0000
  C   C4845     1.0  0.79421  0.32506  0.58995  1.0000
  H   H3851     1.0  0.52663  0.20094  0.61859  1.0000
  C   C4846     1.0  0.86997  0.33093  0.58582  1.0000
  C   C4847     1.0  0.85503  0.34386  0.58187  1.0000
  C   C4848     1.0  0.87637  0.35778  0.70168  1.0000
  H   H3852     1.0  0.63227  0.99117  0.60608  1.0000
  S   S671      1.0  0.75223  0.22543  0.58015  1.0000
  H   H3853     1.0  0.50406  0.37289  0.62501  1.0000
  C   C4849     1.0  0.92744  0.34177  0.73611  1.0000
  C   C4850     1.0  0.55666  0.04319  0.59898  1.0000
  H   H3854     1.0  0.82931  0.44862  0.73338  1.0000
  H   H3855     1.0  0.55576  0.15531  0.59247  1.0000
  H   H3856     1.0  0.81706  0.16462  0.66589  1.0000
  Fe  Fe335     1.0  0.66303  0.09814  0.58115  1.0000
  C   C4851     1.0  0.81113  0.15318  0.67228  1.0000
  C   C4852     1.0  0.70797  0.01362  0.76871  1.0000
  H   H3857     1.0  0.94578  0.40818  0.71261  1.0000
  C   C4853     1.0  0.56696  0.05247  0.60375  1.0000
  H   H3858     1.0  0.61756  0.21819  0.60034  1.0000
  H   H3859     1.0  0.54948  0.10355  0.61009  1.0000
  C   C4854     1.0  0.81520  0.20570  0.75643  1.0000
  C   C4855     1.0  0.80959  0.21824  0.74187  1.0000
  C   C4856     1.0  0.59295  0.08172  0.60783  1.0000
  C   C4857     1.0  0.84154  0.22627  0.71454  1.0000
  C   C4858     1.0  0.87155  0.21270  0.69032  1.0000
  C   C4859     1.0  0.86496  0.23104  0.68818  1.0000
  C   C4860     1.0  0.85009  0.23782  0.70027  1.0000
  C   C4861     1.0  0.80810  0.25357  0.71821  1.0000
  C   C4862     1.0  0.80749  0.25396  0.70060  1.0000
  C   C4863     1.0  0.79635  0.26795  0.69145  1.0000
  C   C4864     1.0  0.78558  0.28160  0.69986  1.0000
  C   C4865     1.0  0.78606  0.28131  0.71741  1.0000
  C   C4866     1.0  0.79725  0.26733  0.72659  1.0000
  H   H3860     1.0  0.64548  0.24944  0.57816  1.0000
  C   C4867     1.0  0.49689  0.39819  0.60768  1.0000
  C   C4868     1.0  0.91330  0.36288  0.68040  1.0000
  H   H3861     1.0  0.66124  0.98959  0.61342  1.0000
  H   H3862     1.0  0.88326  0.20751  0.68109  1.0000
  H   H3863     1.0  0.87147  0.24013  0.67727  1.0000
  H   H3864     1.0  0.84537  0.25213  0.69852  1.0000
  H   H3865     1.0  0.79639  0.26849  0.67766  1.0000
  H   H3866     1.0  0.77724  0.29265  0.69256  1.0000
  H   H3867     1.0  0.77802  0.29215  0.72374  1.0000
  H   H3868     1.0  0.79753  0.26746  0.74011  1.0000
  H   H3869     1.0  0.79957  0.11959  0.66130  1.0000
  C   C4869     1.0  0.87013  0.38607  0.59690  1.0000
  C   C4870     1.0  0.78028  0.15610  0.75572  1.0000
  C   C4871     1.0  0.66859  0.03793  0.75483  1.0000
  H   H3870     1.0  0.89606  0.13164  0.76857  1.0000
  C   C4872     1.0  0.59959  0.99549  0.69261  1.0000
  C   C4873     1.0  0.78595  0.33680  0.60148  1.0000
  C   C4874     1.0  0.50466  0.22128  0.61066  1.0000
  C   C4875     1.0  0.75468  0.15594  0.68620  1.0000
  C   C4876     1.0  0.73985  0.15459  0.70014  1.0000
  C   C4877     1.0  0.72783  0.16997  0.70423  1.0000
  C   C4878     1.0  0.73078  0.18671  0.69455  1.0000
  C   C4879     1.0  0.74593  0.18821  0.68080  1.0000
  C   C4880     1.0  0.75776  0.17263  0.67653  1.0000
  P   P161      1.0  0.74893  0.21001  0.66790  1.0000
  C   C4881     1.0  0.76791  0.20824  0.64960  1.0000
  C   C4882     1.0  0.72868  0.22062  0.65966  1.0000
  C   C4883     1.0  0.71934  0.21032  0.65494  1.0000
  C   C4884     1.0  0.70349  0.21826  0.64888  1.0000
  C   C4885     1.0  0.69686  0.23653  0.64737  1.0000
  C   C4886     1.0  0.70615  0.24693  0.65183  1.0000
  C   C4887     1.0  0.72201  0.23904  0.65792  1.0000
  C   C4888     1.0  0.78516  0.20203  0.65319  1.0000
  C   C4889     1.0  0.80013  0.20148  0.63924  1.0000
  C   C4890     1.0  0.79797  0.20712  0.62160  1.0000
  C   C4891     1.0  0.78086  0.21320  0.61793  1.0000
  C   C4892     1.0  0.76584  0.21391  0.63184  1.0000
  C   C4893     1.0  0.75337  0.22349  0.68084  1.0000
  C   C4894     1.0  0.75035  0.21888  0.69953  1.0000
  C   C4895     1.0  0.75306  0.23005  0.70922  1.0000
  C   C4896     1.0  0.75882  0.24584  0.70034  1.0000
  C   C4897     1.0  0.76221  0.25031  0.68175  1.0000
  C   C4898     1.0  0.75974  0.23910  0.67202  1.0000
  H   H3871     1.0  0.76368  0.14396  0.68283  1.0000
  H   H3872     1.0  0.71610  0.16884  0.71479  1.0000
  H   H3873     1.0  0.72110  0.19850  0.69761  1.0000
  H   H3874     1.0  0.76917  0.17319  0.66561  1.0000
  H   H3875     1.0  0.72429  0.19616  0.65580  1.0000
  H   H3876     1.0  0.69655  0.21028  0.64493  1.0000
  H   H3877     1.0  0.68479  0.24271  0.64226  1.0000
  H   H3878     1.0  0.70121  0.26118  0.65024  1.0000
  H   H3879     1.0  0.72894  0.24747  0.66109  1.0000
  H   H3880     1.0  0.78699  0.19783  0.66680  1.0000
  H   H3881     1.0  0.81341  0.19703  0.64208  1.0000
  H   H3882     1.0  0.80952  0.20711  0.61071  1.0000
  H   H3883     1.0  0.77923  0.21785  0.60424  1.0000
  H   H3884     1.0  0.75277  0.21920  0.62857  1.0000
  H   H3885     1.0  0.74577  0.20684  0.70673  1.0000
  H   H3886     1.0  0.75038  0.22664  0.72364  1.0000
  H   H3887     1.0  0.76065  0.25464  0.70782  1.0000
  H   H3888     1.0  0.76663  0.26259  0.67481  1.0000
  H   H3889     1.0  0.76239  0.24288  0.65758  1.0000
  C   C4899     1.0  0.49673  0.22723  0.64534  1.0000
  C   C4900     1.0  0.77216  0.16763  0.62743  1.0000
  H   H3890     1.0  0.96385  0.31773  0.76907  1.0000
  H   H3891     1.0  0.58879  0.23954  0.60304  1.0000
  H   H3892     1.0  0.78131  0.18343  0.76986  1.0000
  H   H3893     1.0  0.90628  0.35887  0.57672  1.0000
  C   C4901     1.0  0.49383  0.38184  0.61833  1.0000
  H   H3894     1.0  0.86318  0.25866  0.75141  1.0000
  H   H3895     1.0  0.72905  0.16372  0.64388  1.0000
  H   H3896     1.0  0.96309  0.05420  0.75047  1.0000
  H   H3897     1.0  0.51523  0.44914  0.58764  1.0000
  C   C4902     1.0  0.93486  0.45052  0.76300  1.0000
  H   H3898     1.0  0.57492  0.15408  0.61336  1.0000
  H   H3899     1.0  0.92640  0.40188  0.67535  1.0000
  C   C4903     1.0  0.97246  0.23073  0.75645  1.0000
  C   C4904     1.0  0.64243  0.17064  0.61863  1.0000
  H   H3900     1.0  0.69880  0.99778  0.65840  1.0000
  C   C4905     1.0  0.86322  0.20111  0.70456  1.0000
  H   H3901     1.0  0.88114  0.34240  0.67201  1.0000
  H   H3902     1.0  0.80578  0.23876  0.76694  1.0000
  C   C4906     1.0  0.92839  0.46885  0.75768  1.0000
  H   H3903     1.0  0.98807  0.22974  0.73004  1.0000
  C   C4907     1.0  0.59766  0.09032  0.61867  1.0000
  H   H3904     1.0  0.90704  0.38269  0.69652  1.0000
  C   C4908     1.0  0.56327  0.01803  0.62272  1.0000
  C   C4909     1.0  0.86356  0.35555  0.75803  1.0000
  C   C4910     1.0  0.65176  0.17829  0.62634  1.0000
  C   C4911     1.0  0.96795  0.34513  0.70827  1.0000
  Fe  Fe336     1.0  0.83484  0.10824  0.77224  1.0000
  H   H3905     1.0  0.88947  0.32328  0.72966  1.0000
  C   C4912     1.0  0.61135  0.98134  0.70079  1.0000
  H   H3906     1.0  0.62345  0.98353  0.70305  1.0000
  H   H3907     1.0  0.92345  0.43366  0.60718  1.0000
  C   C4913     1.0  0.56291  0.09955  0.61253  1.0000
  H   H3908     1.0  0.80781  0.37096  0.61591  1.0000
  H   H3909     1.0  0.89845  0.39466  0.64678  1.0000
  H   H3910     1.0  0.66995  0.02692  0.70976  1.0000
  H   H3911     1.0  0.73759  0.14158  0.70765  1.0000
  H   H3912     1.0  0.97254  0.11121  0.76339  1.0000
  C   C4914     1.0  0.96431  0.29216  0.76360  1.0000
  H   H3913     1.0  0.67436  0.00278  0.73528  1.0000
  C   C4915     1.0  0.84344  0.28131  0.59122  1.0000
  C   C4916     1.0  0.65535  0.20115  0.59955  1.0000
  C   C4917     1.0  0.84022  0.25368  0.77187  1.0000
  H   H3914     1.0  0.84835  0.42188  0.74795  1.0000
  C   C4918     1.0  0.49087  0.46104  0.62629  1.0000
  H   H3915     1.0  0.78874  0.19675  0.70605  1.0000
  C   C4919     1.0  0.89438  0.41970  0.76957  1.0000
  H   H3916     1.0  0.55050  0.04888  0.58759  1.0000
  H   H3917     1.0  0.93786  0.34709  0.73815  1.0000
  C   C4920     1.0  0.91867  0.42138  0.61053  1.0000
  H   H3918     1.0  0.58888  0.11049  0.63446  1.0000
  C   C4921     1.0  0.86711  0.42127  0.61340  1.0000
  H   H3919     1.0  0.73209  0.02275  0.76572  1.0000
  C   C4922     1.0  0.92180  0.34735  0.71990  1.0000
  H   H3920     1.0  0.77984  0.36397  0.60457  1.0000
  H   H3921     1.0  0.51978  0.20631  0.64932  1.0000
  C   C4923     1.0  0.84339  0.47698  0.76472  1.0000
  H   H3922     1.0  0.58083  0.02038  0.63816  1.0000
  P   P162      1.0  0.90002  0.34812  0.69661  1.0000
  H   H3923     1.0  0.84514  0.20278  0.66189  1.0000
  H   H3924     1.0  0.86717  0.34396  0.75206  1.0000
  C   C4924     1.0  0.83656  0.42869  0.75597  1.0000
  H   H3925     1.0  0.84043  0.17290  0.67842  1.0000
  H   H3926     1.0  0.63250  0.17183  0.59564  1.0000
  C   C4925     1.0  0.81195  0.38268  0.61658  1.0000
  C   C4926     1.0  0.80281  0.39228  0.62984  1.0000
  C   C4927     1.0  0.80852  0.40714  0.63085  1.0000
  C   C4928     1.0  0.82350  0.41228  0.61876  1.0000
  C   C4929     1.0  0.83292  0.40251  0.60552  1.0000
  C   C4930     1.0  0.82702  0.38765  0.60461  1.0000
  H   H3927     1.0  0.87004  0.40795  0.62118  1.0000
  H   H3928     1.0  0.88357  0.34580  0.77409  1.0000
  H   H3929     1.0  0.83328  0.39451  0.75799  1.0000
  C   C4931     1.0  0.86772  0.37515  0.61400  1.0000
  C   C4932     1.0  0.87911  0.35859  0.61762  1.0000
  H   H3930     1.0  0.90609  0.45139  0.58686  1.0000
  C   C4933     1.0  0.84471  0.26491  0.58710  1.0000
  H   H3931     1.0  0.96422  0.46229  0.76071  1.0000
  C   C4934     1.0  0.96434  0.10137  0.76672  1.0000
  H   H3932     1.0  0.63749  0.06254  0.58198  1.0000
  C   C4935     1.0  0.78401  0.20479  0.74682  1.0000
  C   C4936     1.0  0.65011  0.98630  0.62396  1.0000
  H   H3933     1.0  0.54702  0.01897  0.60445  1.0000
  C   C4937     1.0  0.86468  0.19654  0.76063  1.0000
  H   H3934     1.0  0.89279  0.46638  0.76899  1.0000
  C   C4938     1.0  0.98212  0.34762  0.73082  1.0000
  H   H3935     1.0  0.79164  0.38789  0.63967  1.0000
  H   H3936     1.0  0.80177  0.41426  0.64148  1.0000
  H   H3937     1.0  0.82802  0.42337  0.62041  1.0000
  C   C4939     1.0  0.90572  0.32308  0.74744  1.0000
  H   H3938     1.0  0.85662  0.37911  0.62439  1.0000
  H   H3939     1.0  0.87673  0.35003  0.63068  1.0000
  C   C4940     1.0  0.86555  0.45282  0.60979  1.0000
  H   H3940     1.0  0.85371  0.24927  0.72878  1.0000
  C   C4941     1.0  0.96858  0.32707  0.71584  1.0000
  C   C4942     1.0  0.79383  0.36140  0.57787  1.0000
  C   C4943     1.0  0.91950  0.32958  0.74981  1.0000
  H   H3941     1.0  0.82962  0.47953  0.76347  1.0000
  H   H3942     1.0  0.87997  0.40665  0.75926  1.0000
  H   H3943     1.0  0.67286  0.25493  0.58355  1.0000
  C   C4944     1.0  0.67164  0.02012  0.75338  1.0000
  C   C4945     1.0  0.84453  0.38424  0.76136  1.0000
  H   H3944     1.0  0.66870  0.04112  0.76724  1.0000
  C   C4946     1.0  0.84571  0.35355  0.71182  1.0000
  C   C4947     1.0  0.90990  0.38318  0.74427  1.0000
  C   C4948     1.0  0.48990  0.23427  0.61594  1.0000
  C   C4949     1.0  0.51652  0.09288  0.58865  1.0000
  C   C4950     1.0  0.93595  0.09411  0.76903  1.0000
  H   H3945     1.0  0.66023  0.21312  0.59248  1.0000
  C   C4951     1.0  0.81841  0.24294  0.76335  1.0000
  H   H3946     1.0  0.94008  0.44539  0.77504  1.0000
  C   C4952     1.0  0.66604  0.05171  0.74010  1.0000
  H   H3947     1.0  0.92408  0.32525  0.76222  1.0000
  C   C4953     1.0  0.57376  0.02699  0.62747  1.0000
  C   C4954     1.0  0.63977  0.17804  0.60129  1.0000
  H   H3948     1.0  0.60263  0.00861  0.68847  1.0000
  H   H3949     1.0  0.57482  0.00365  0.68348  1.0000
  C   C4955     1.0  0.68505  0.98168  0.76481  1.0000
  H   H3950     1.0  0.90172  0.33983  0.60687  1.0000
  H   H3951     1.0  0.70312  0.14640  0.64725  1.0000
  C   C4956     1.0  0.76011  0.16620  0.73523  1.0000
  H   H3952     1.0  0.79579  0.11992  0.75887  1.0000
  C   C4957     1.0  0.87992  0.41249  0.77015  1.0000
  H   H3953     1.0  0.77980  0.33174  0.61512  1.0000
  S   S672      1.0  0.95947  0.38762  0.74385  1.0000
  S   S673      1.0  0.90181  0.24327  0.75543  1.0000
  C   C4958     1.0  0.86407  0.34652  0.70894  1.0000
  H   H3954     1.0  0.70971  0.01469  0.75451  1.0000
  C   C4959     1.0  0.95859  0.27600  0.77099  1.0000
  C   C4960     1.0  0.90795  0.34086  0.71732  1.0000
  H   H3955     1.0  0.96320  0.31945  0.70980  1.0000
  H   H3956     1.0  0.51629  0.46523  0.60989  1.0000
  C   C4961     1.0  0.89575  0.36364  0.58724  1.0000
  H   H3957     1.0  0.65412  0.17230  0.63964  1.0000
  Fe  Fe337     1.0  0.92522  0.24695  0.76425  1.0000
  H   H3958     1.0  0.92908  0.37193  0.76105  1.0000
  C   C4962     1.0  0.50481  0.45955  0.61144  1.0000
  H   H3959     1.0  0.98119  0.25619  0.70029  1.0000
  C   C4963     1.0  0.64639  0.19326  0.59153  1.0000
  H   H3960     1.0  0.77994  0.17765  0.62053  1.0000
  H   H3961     1.0  0.80278  0.46490  0.75111  1.0000
  C   C4964     1.0  0.75363  0.17259  0.63259  1.0000
  C   C4965     1.0  0.93489  0.36872  0.65262  1.0000
  C   C4966     1.0  0.76291  0.16096  0.75267  1.0000
  H   H3962     1.0  0.49643  0.26449  0.64549  1.0000
  H   H3963     1.0  0.61118  0.08701  0.62077  1.0000
  S   S674      1.0  0.95249  0.23728  0.74846  1.0000
  C   C4967     1.0  0.84826  0.20784  0.71662  1.0000
  H   H3964     1.0  0.98787  0.40143  0.75394  1.0000
  H   H3965     1.0  0.88477  0.45823  0.74435  1.0000
  H   H3966     1.0  0.82730  0.20580  0.76030  1.0000
  H   H3967     1.0  0.70371  0.99646  0.71159  1.0000
  C   C4968     1.0  0.90009  0.15860  0.76009  1.0000
  H   H3968     1.0  0.59940  0.30776  0.59849  1.0000
  H   H3969     1.0  0.63080  0.30754  0.59832  1.0000
  H   H3970     1.0  0.92818  0.43569  0.72916  1.0000
  H   H3971     1.0  0.63729  0.15887  0.62601  1.0000
  C   C4969     1.0  0.85776  0.45628  0.59504  1.0000
  C   C4970     1.0  0.71699  0.99503  0.71370  1.0000
  H   H3972     1.0  0.56227  0.00456  0.62970  1.0000
  C   C4971     1.0  0.82914  0.24293  0.74619  1.0000
  H   H3973     1.0  0.79068  0.11136  0.69429  1.0000
  H   H3974     1.0  0.95608  0.00338  0.74762  1.0000
  H   H3975     1.0  0.84225  0.19861  0.72770  1.0000
  H   H3976     1.0  0.82521  0.37735  0.70984  1.0000
  C   C4972     1.0  0.66937  0.03011  0.72232  1.0000
  H   H3977     1.0  0.49019  0.42010  0.76366  1.0000
  C   C4973     1.0  0.84525  0.24882  0.74190  1.0000
  C   C4974     1.0  0.61170  0.22378  0.58871  1.0000
  C   C4975     1.0  0.67183  0.01632  0.73701  1.0000
  C   C4976     1.0  0.78052  0.14967  0.63043  1.0000
  C   C4977     1.0  0.77038  0.13665  0.63858  1.0000
  C   C4978     1.0  0.75177  0.14153  0.64405  1.0000
  P   P163      1.0  0.73843  0.12474  0.65118  1.0000
  C   C4979     1.0  0.73190  0.12253  0.63178  1.0000
  C   C4980     1.0  0.75085  0.10371  0.66143  1.0000
  C   C4981     1.0  0.74944  0.08758  0.65828  1.0000
  C   C4982     1.0  0.75864  0.07138  0.66668  1.0000
  C   C4983     1.0  0.76927  0.07112  0.67833  1.0000
  C   C4984     1.0  0.77072  0.08707  0.68161  1.0000
  C   C4985     1.0  0.76160  0.10331  0.67318  1.0000
  C   C4986     1.0  0.71772  0.11416  0.63388  1.0000
  C   C4987     1.0  0.71252  0.11253  0.61894  1.0000
  C   C4988     1.0  0.72131  0.11930  0.60184  1.0000
  C   C4989     1.0  0.73525  0.12788  0.59961  1.0000
  C   C4990     1.0  0.74060  0.12946  0.61449  1.0000
  C   C4991     1.0  0.71870  0.13190  0.66719  1.0000
  C   C4992     1.0  0.70330  0.14246  0.66132  1.0000
  C   C4993     1.0  0.68781  0.14767  0.67361  1.0000
  C   C4994     1.0  0.68763  0.14251  0.69185  1.0000
  C   C4995     1.0  0.70298  0.13229  0.69780  1.0000
  C   C4996     1.0  0.71844  0.12694  0.68556  1.0000
  H   H3978     1.0  0.79478  0.14580  0.62573  1.0000
  H   H3979     1.0  0.77697  0.12277  0.63985  1.0000
  H   H3980     1.0  0.74104  0.08732  0.64962  1.0000
  H   H3981     1.0  0.75714  0.05897  0.66453  1.0000
  H   H3982     1.0  0.77588  0.05850  0.68530  1.0000
  H   H3983     1.0  0.77835  0.08676  0.69126  1.0000
  H   H3984     1.0  0.76245  0.11548  0.67631  1.0000
  H   H3985     1.0  0.71067  0.10889  0.64705  1.0000
  H   H3986     1.0  0.70158  0.10610  0.62060  1.0000
  Fe  Fe338     1.0  0.60088  0.98688  0.59862  1.0000
  H   H3987     1.0  0.75136  0.13628  0.61233  1.0000
  H   H3988     1.0  0.67584  0.15536  0.66899  1.0000
  H   H3989     1.0  0.67547  0.14594  0.70143  1.0000
  H   H3990     1.0  0.70264  0.12778  0.71196  1.0000
  H   H3991     1.0  0.72989  0.11860  0.69065  1.0000
  C   C4997     1.0  0.58041  0.14769  0.60206  1.0000
  H   H3992     1.0  0.80824  0.15247  0.74408  1.0000
  C   C4998     1.0  0.80668  0.44732  0.77617  1.0000
  C   C4999     1.0  0.62665  0.09839  0.65619  1.0000
  C   C5000     1.0  0.62701  0.10371  0.67152  1.0000
  C   C5001     1.0  0.63288  0.09107  0.68579  1.0000
  C   C5002     1.0  0.63855  0.07314  0.68466  1.0000
  C   C5003     1.0  0.63859  0.06771  0.66916  1.0000
  C   C5004     1.0  0.63225  0.08044  0.65509  1.0000
  P   P164      1.0  0.64451  0.04430  0.66855  1.0000
  C   C5005     1.0  0.66785  0.03452  0.66840  1.0000
  C   C5006     1.0  0.63081  0.03395  0.68845  1.0000
  C   C5007     1.0  0.63843  0.01943  0.70039  1.0000
  C   C5008     1.0  0.62798  0.01264  0.71657  1.0000
  C   C5009     1.0  0.60978  0.01999  0.72081  1.0000
  C   C5010     1.0  0.60203  0.03438  0.70893  1.0000
  C   C5011     1.0  0.61251  0.04140  0.69283  1.0000
  C   C5012     1.0  0.67552  0.01868  0.66213  1.0000
  C   C5013     1.0  0.69308  0.01003  0.66324  1.0000
  C   C5014     1.0  0.70303  0.01688  0.67102  1.0000
  C   C5015     1.0  0.69558  0.03268  0.67718  1.0000
  C   C5016     1.0  0.67818  0.04168  0.67555  1.0000
  C   C5017     1.0  0.64008  0.04062  0.64873  1.0000
  C   C5018     1.0  0.65103  0.04589  0.63216  1.0000
  C   C5019     1.0  0.64869  0.04211  0.61678  1.0000
  C   C5020     1.0  0.63545  0.03298  0.61784  1.0000
  C   C5021     1.0  0.62446  0.02776  0.63425  1.0000
  C   C5022     1.0  0.62680  0.03147  0.64969  1.0000
  H   H3993     1.0  0.62212  0.10820  0.64509  1.0000
  H   H3994     1.0  0.62290  0.11765  0.67224  1.0000
  H   H3995     1.0  0.63333  0.09520  0.69763  1.0000
  H   H3996     1.0  0.64271  0.06347  0.69594  1.0000
  H   H3997     1.0  0.63142  0.07655  0.64335  1.0000
  H   H3998     1.0  0.65247  0.01349  0.69743  1.0000
  H   H3999     1.0  0.81583  0.24363  0.69380  1.0000
  C   C5023     1.0  0.85782  0.18147  0.77041  1.0000
  H   H4000     1.0  0.58794  0.04020  0.71229  1.0000
  H   H4001     1.0  0.60645  0.05280  0.68388  1.0000
  H   H4002     1.0  0.66787  0.01280  0.65659  1.0000
  H   H4003     1.0  0.58390  0.05061  0.62202  1.0000
  H   H4004     1.0  0.71649  0.00992  0.67233  1.0000
  H   H4005     1.0  0.70331  0.03792  0.68328  1.0000
  H   H4006     1.0  0.67282  0.05400  0.68015  1.0000
  H   H4007     1.0  0.66163  0.05264  0.63121  1.0000
  H   H4008     1.0  0.65743  0.04593  0.60408  1.0000
  H   H4009     1.0  0.63402  0.02954  0.60603  1.0000
  H   H4010     1.0  0.61455  0.02027  0.63506  1.0000
  H   H4011     1.0  0.61859  0.02672  0.66230  1.0000
  C   C5024     1.0  0.91415  0.39577  0.60243  1.0000
  C   C5025     1.0  0.97963  0.27397  0.71730  1.0000
  H   H4012     1.0  0.96906  0.42253  0.73437  1.0000
  C   C5026     1.0  0.57547  0.08615  0.60481  1.0000
  H   H4013     1.0  0.76490  0.98977  0.72069  1.0000
  H   H4014     1.0  0.87881  0.38524  0.69226  1.0000
  C   C5027     1.0  0.83120  0.14855  0.71258  1.0000
  C   C5028     1.0  0.84165  0.15773  0.71730  1.0000
  C   C5029     1.0  0.85808  0.14882  0.72179  1.0000
  C   C5030     1.0  0.86405  0.13067  0.72188  1.0000
  C   C5031     1.0  0.85334  0.12127  0.71810  1.0000
  C   C5032     1.0  0.83697  0.13013  0.71349  1.0000
  H   H4015     1.0  0.79506  0.12938  0.71299  1.0000
  H   H4016     1.0  0.83711  0.17173  0.71765  1.0000
  H   H4017     1.0  0.86598  0.15586  0.72570  1.0000
  H   H4018     1.0  0.87665  0.12371  0.72564  1.0000
  H   H4019     1.0  0.85748  0.10697  0.71923  1.0000
  H   H4020     1.0  0.82891  0.12237  0.71094  1.0000
  H   H4021     1.0  0.49357  0.22899  0.65896  1.0000
  C   C5033     1.0  0.93477  0.43863  0.75278  1.0000
  H   H4022     1.0  0.94121  0.12054  0.75954  1.0000
  C   C5034     1.0  0.83274  0.20134  0.67137  1.0000
  P   P165      1.0  0.81083  0.16053  0.70513  1.0000
  C   C5035     1.0  0.96032  0.30492  0.77423  1.0000
  C   C5036     1.0  0.80857  0.14289  0.66163  1.0000
  H   H4023     1.0  0.79413  0.31104  0.59482  1.0000
  C   C5037     1.0  0.56772  0.10816  0.62332  1.0000
  C   C5038     1.0  0.97302  0.22822  0.77449  1.0000
  H   H4024     1.0  0.90568  0.41889  0.75848  1.0000
  C   C5039     1.0  0.94267  0.28044  0.72017  1.0000
  C   C5040     1.0  0.95401  0.26878  0.70960  1.0000
  H   H4025     1.0  0.82164  0.22949  0.66690  1.0000
  C   C5041     1.0  0.75148  0.99135  0.71885  1.0000
  C   C5042     1.0  0.83003  0.18446  0.68077  1.0000
  C   C5043     1.0  0.92020  0.41184  0.59739  1.0000
  H   H4026     1.0  0.92831  0.28233  0.72193  1.0000
  C   C5044     1.0  0.92639  0.38085  0.74878  1.0000
  C   C5045     1.0  0.92363  0.35795  0.66445  1.0000
  P   P166      1.0  0.85419  0.40666  0.59201  1.0000
  C   C5046     1.0  0.80127  0.12777  0.66950  1.0000
  C   C5047     1.0  0.93594  0.38451  0.65657  1.0000
  Fe  Fe339     1.0  0.89048  0.27176  0.75748  1.0000
  C   C5048     1.0  0.90007  0.32858  0.73124  1.0000
  C   C5049     1.0  0.96443  0.46918  0.77070  1.0000
  Fe  Fe340     1.0  0.70998  0.26324  0.57914  1.0000
  H   H4027     1.0  0.94272  0.36488  0.64032  1.0000
  H   H4028     1.0  0.84663  0.39746  0.69771  1.0000
  C   C5050     1.0  0.79490  0.15655  0.74137  1.0000
  C   C5051     1.0  0.86988  0.37621  0.69780  1.0000
  C   C5052     1.0  0.79219  0.16148  0.72384  1.0000
  C   C5053     1.0  0.87009  0.20701  0.76929  1.0000
  H   H4029     1.0  0.90983  0.42258  0.63826  1.0000
  H   H4030     1.0  0.81258  0.14645  0.64728  1.0000
  H   H4031     1.0  0.86862  0.33224  0.71191  1.0000
  H   H4032     1.0  0.85233  0.25294  0.59397  1.0000
  C   C5054     1.0  0.80100  0.19775  0.69631  1.0000
  C   C5055     1.0  0.98040  0.46648  0.77640  1.0000
  H   H4033     1.0  0.60175  0.01453  0.73333  1.0000
  C   C5056     1.0  0.81955  0.21640  0.67426  1.0000
  C   C5057     1.0  0.93932  0.38988  0.73743  1.0000
  P   P167      1.0  0.82224  0.23517  0.73003  1.0000
  C   C5058     1.0  0.83216  0.42252  0.77448  1.0000
  C   C5059     1.0  0.97248  0.26565  0.70805  1.0000
  H   H4034     1.0  0.50025  0.27869  0.66811  1.0000
  H   H4035     1.0  0.87541  0.21855  0.76168  1.0000
  H   H4036     1.0  0.74703  0.18644  0.62943  1.0000
  H   H4037     1.0  0.91709  0.46803  0.71918  1.0000
  H   H4038     1.0  0.89393  0.16155  0.74868  1.0000
  C   C5060     1.0  0.92216  0.47507  0.74163  1.0000
  H   H4039     1.0  0.94082  0.29768  0.73766  1.0000
  C   C5061     1.0  0.90647  0.38956  0.62019  1.0000
  H   H4040     1.0  0.86765  0.46366  0.61438  1.0000
  C   C5062     1.0  0.58505  0.10349  0.62646  1.0000
  H   H4041     1.0  0.93840  0.46114  0.61397  1.0000
  C   C5063     1.0  0.79872  0.13342  0.69866  1.0000
  C   C5064     1.0  0.57557  0.04415  0.61810  1.0000
  S   S675      1.0  0.86089  0.11726  0.76514  1.0000
  C   C5065     1.0  0.79632  0.12307  0.68802  1.0000
  H   H4042     1.0  0.90004  0.37602  0.75305  1.0000
  C   C5066     1.0  0.55469  0.02614  0.60851  1.0000
  H   H4043     1.0  0.96207  0.35123  0.69668  1.0000
  C   C5067     1.0  0.87278  0.35659  0.77040  1.0000
  H   H4044     1.0  0.94845  0.26162  0.70319  1.0000
  C   C5068     1.0  0.85152  0.38323  0.70096  1.0000
  H   H4045     1.0  0.66570  0.05851  0.71219  1.0000
  C   C5069     1.0  0.98321  0.32949  0.73814  1.0000
  C   C5070     1.0  0.56956  0.14835  0.59030  1.0000
  H   H4046     1.0  0.50378  0.09015  0.59647  1.0000
  P   P168      1.0  0.56934  0.07460  0.59119  1.0000
  C   C5071     1.0  0.92510  0.46859  0.61275  1.0000
  S   S676      1.0  0.91481  0.27612  0.76394  1.0000
  H   H4047     1.0  0.90544  0.18486  0.75526  1.0000
  H   H4048     1.0  0.95591  0.41014  0.59822  1.0000
  H   H4049     1.0  0.98195  0.42197  0.59769  1.0000
  C   C5072     1.0  0.91447  0.37881  0.68416  1.0000
  C   C5073     1.0  0.50043  0.32692  0.58180  1.0000
  H   H4050     1.0  0.63407  0.00167  0.72588  1.0000
  C   C5074     1.0  0.81091  0.45311  0.75770  1.0000
  H   H4051     1.0  0.94449  0.39298  0.64733  1.0000
  C   C5075     1.0  0.80375  0.21460  0.68680  1.0000
  H   H4052     1.0  0.79369  0.22632  0.68916  1.0000
  C   C5076     1.0  0.98030  0.42635  0.73669  1.0000
  C   C5077     1.0  0.81404  0.18251  0.69318  1.0000
  C   C5078     1.0  0.59830  0.13861  0.59932  1.0000
  C   C5079     1.0  0.85071  0.25419  0.75473  1.0000
  C   C5080     1.0  0.92834  0.44493  0.73702  1.0000
  H   H4053     1.0  0.90177  0.37723  0.62399  1.0000
  C   C5081     1.0  0.66676  0.04780  0.72375  1.0000
  C   C5082     1.0  0.77469  0.16642  0.72086  1.0000
  C   C5083     1.0  0.94668  0.10667  0.76451  1.0000
  C   C5084     1.0  0.89317  0.35286  0.60425  1.0000
  H   H4054     1.0  0.74667  0.16950  0.73288  1.0000
  C   C5085     1.0  0.90468  0.39933  0.63306  1.0000
  H   H4055     1.0  0.66554  0.19947  0.62270  1.0000
  H   H4056     1.0  0.74167  0.13357  0.58631  1.0000
  H   H4057     1.0  0.66427  0.06544  0.74114  1.0000
  C   C5086     1.0  0.80512  0.19308  0.76633  1.0000
  H   H4058     1.0  0.77236  0.16999  0.70743  1.0000
  H   H4059     1.0  0.92323  0.34573  0.66111  1.0000
  C   C5087     1.0  0.80640  0.14839  0.69093  1.0000
  Fe  Fe341     1.0  0.50300  0.17735  0.58462  1.0000
  C   C5088     1.0  0.58395  0.99266  0.68980  1.0000
  C   C5089     1.0  0.90160  0.32907  0.68741  1.0000
  C   C5090     1.0  0.91377  0.31315  0.69175  1.0000
  C   C5091     1.0  0.91471  0.29847  0.68465  1.0000
  C   C5092     1.0  0.90363  0.29966  0.67308  1.0000
  C   C5093     1.0  0.89163  0.31554  0.66853  1.0000
  C   C5094     1.0  0.89068  0.33025  0.67555  1.0000
  H   H4060     1.0  0.92238  0.31201  0.70074  1.0000
  H   H4061     1.0  0.92374  0.28602  0.68839  1.0000
  H   H4062     1.0  0.90398  0.28816  0.66796  1.0000
  H   H4063     1.0  0.88268  0.31622  0.65998  1.0000
  H   H4064     1.0  0.89922  0.31387  0.75820  1.0000
  C   C5095     1.0  0.95971  0.42082  0.58740  1.0000
  C   C5096     1.0  0.83944  0.37191  0.70782  1.0000
  C   C5097     1.0  0.79412  0.21744  0.73683  1.0000
  H   H4065     1.0  0.93969  0.42448  0.75710  1.0000
  C   C5098     1.0  0.95916  0.02962  0.74727  1.0000
  C   C5099     1.0  0.78935  0.19286  0.76176  1.0000
  C   C5100     1.0  0.95838  0.01188  0.75514  1.0000
  C   C5101     1.0  0.84948  0.36937  0.75350  1.0000
  C   C5102     1.0  0.49207  0.42778  0.77224  1.0000
  H   H4066     1.0  0.78971  0.22671  0.72544  1.0000
  H   H4067     1.0  0.75166  0.16021  0.76383  1.0000
  H   H4068     1.0  0.83455  0.37940  0.59513  1.0000
  H   H4069     1.0  0.92213  0.09822  0.76765  1.0000
  C   C5103     1.0  0.90122  0.14180  0.77132  1.0000
  C   C5104     1.0  0.96220  0.04059  0.75693  1.0000
  H   H4070     1.0  0.78247  0.15154  0.76924  1.0000
  C   C5105     1.0  0.59533  0.23590  0.59033  1.0000
  C   C5106     1.0  0.98840  0.22783  0.74395  1.0000
  H   H4071     1.0  0.50450  0.32986  0.59255  1.0000
  C   C5107     1.0  0.87011  0.43536  0.61900  1.0000
  H   H4072     1.0  0.56284  0.19882  0.58046  1.0000
  H   H4073     1.0  0.84793  0.44533  0.57842  1.0000
  H   H4074     1.0  0.88261  0.47527  0.63666  1.0000
  P   P169      1.0  0.67650  0.00253  0.77212  1.0000
  C   C5108     1.0  0.83356  0.29679  0.58244  1.0000
  C   C5109     1.0  0.92235  0.48056  0.59673  1.0000
  H   H4075     1.0  0.83291  0.30944  0.58563  1.0000
  C   C5110     1.0  0.70077  0.16212  0.58345  1.0000
  C   C5111     1.0  0.85400  0.38559  0.77351  1.0000
  H   H4076     1.0  0.97329  0.36962  0.71057  1.0000
  S   S677      1.0  0.51236  0.14921  0.58076  1.0000
  C   C5112     1.0  0.60527  0.13025  0.58479  1.0000
  C   C5113     1.0  0.97442  0.35547  0.71596  1.0000
  C   C5114     1.0  0.82404  0.24813  0.77616  1.0000
  H   H4077     1.0  0.49144  0.46794  0.63620  1.0000
  Fe  Fe342     1.0  0.84546  0.14172  0.77547  1.0000
  C   C5115     1.0  0.48922  0.44310  0.60074  1.0000
  C   C5116     1.0  0.97121  0.08357  0.77376  1.0000
  C   C5117     1.0  0.96077  0.00506  0.77264  1.0000
  C   C5118     1.0  0.72073  0.01816  0.77503  1.0000
  H   H4078     1.0  0.98463  0.07998  0.77616  1.0000
  C   C5119     1.0  0.94286  0.07625  0.77571  1.0000
  C   C5120     1.0  0.96416  0.03395  0.77467  1.0000
  H   H4079     1.0  0.62837  0.03668  0.57658  1.0000
  S   S678      1.0  0.65384  0.12787  0.57682  1.0000
  H   H4080     1.0  0.96071  0.23030  0.78425  1.0000
  C   C5121     1.0  0.94907  0.48067  0.77792  1.0000
  Fe  Fe343     1.0  0.64574  0.01168  0.86160  1.0000
  S   S679      1.0  0.64288  0.02802  0.83434  1.0000
  Fe  Fe344     1.0  0.62897  0.00668  0.90125  1.0000
  S   S680      1.0  0.60680  0.02036  0.92082  1.0000
  S   S681      1.0  0.64997  0.02144  0.88393  1.0000
  S   S682      1.0  0.62285  0.99926  0.87826  1.0000
  S   S683      1.0  0.66654  0.98662  0.86524  1.0000
  H   H4081     1.0  0.87677  0.05211  0.89401  1.0000
  H   H4082     1.0  0.61519  0.02394  0.80447  1.0000
  H   H4083     1.0  0.63911  0.45142  0.96145  1.0000
  H   H4084     1.0  0.85525  0.01919  0.94352  1.0000
  Fe  Fe345     1.0  0.93735  0.07521  0.87444  1.0000
  S   S684      1.0  0.94065  0.09654  0.88651  1.0000
  S   S685      1.0  0.91002  0.07203  0.87336  1.0000
  Fe  Fe346     1.0  0.95985  0.07449  0.90021  1.0000
  S   S686      1.0  0.96002  0.06852  0.92950  1.0000
  C   C5122     1.0  0.87417  0.05473  0.93654  1.0000
  S   S687      1.0  0.95489  0.05296  0.88974  1.0000
  Fe  Fe347     1.0  0.86354  0.10508  0.79332  1.0000
  S   S688      1.0  0.84976  0.13006  0.80331  1.0000
  S   S689      1.0  0.89152  0.09111  0.79670  1.0000
  C   C5123     1.0  0.55284  0.99537  0.93203  1.0000
  C   C5124     1.0  0.52147  0.02074  0.97500  1.0000
  C   C5125     1.0  0.97876  0.11164  0.79773  1.0000
  Fe  Fe348     1.0  0.82462  0.12012  0.80733  1.0000
  S   S690      1.0  0.80309  0.12442  0.83159  1.0000
  S   S691      1.0  0.83886  0.09386  0.79980  1.0000
  Fe  Fe349     1.0  0.94527  0.39694  0.80547  1.0000
  C   C5126     1.0  0.83382  0.46175  0.82206  1.0000
  S   S692      1.0  0.94531  0.42457  0.80763  1.0000
  Fe  Fe350     1.0  0.92714  0.36703  0.80643  1.0000
  S   S693      1.0  0.95145  0.35234  0.79035  1.0000
  S   S694      1.0  0.90066  0.35848  0.81643  1.0000
  Fe  Fe351     1.0  0.96606  0.35900  0.80781  1.0000
  C   C5127     1.0  0.72000  0.02551  0.85127  1.0000
  C   C5128     1.0  0.50584  0.38130  0.87891  1.0000
  C   C5129     1.0  0.95444  0.04120  0.84137  1.0000
  S   S695      1.0  0.94154  0.37167  0.82534  1.0000
  S   S696      1.0  0.92862  0.39356  0.78828  1.0000
  H   H4085     1.0  0.61569  0.99705  0.82870  1.0000
  C   C5130     1.0  0.74349  0.00258  0.83009  1.0000
  Fe  Fe352     1.0  0.88999  0.23700  0.78466  1.0000
  S   S697      1.0  0.91442  0.23826  0.79334  1.0000
  H   H4086     1.0  0.87816  0.06221  0.94395  1.0000
  C   C5131     1.0  0.75727  0.03734  0.86102  1.0000
  S   S698      1.0  0.87491  0.21517  0.79938  1.0000
  Fe  Fe353     1.0  0.90204  0.26727  0.79251  1.0000
  S   S699      1.0  0.90027  0.27884  0.81628  1.0000
  H   H4087     1.0  0.97633  0.04921  0.82121  1.0000
  C   C5132     1.0  0.48969  0.45628  0.77921  1.0000
  Fe  Fe354     1.0  0.73479  0.05741  0.92826  1.0000
  S   S700      1.0  0.74941  0.07923  0.91310  1.0000
  S   S701      1.0  0.70906  0.05839  0.92009  1.0000
  Fe  Fe355     1.0  0.76244  0.04123  0.95175  1.0000
  S   S702      1.0  0.77905  0.06173  0.93842  1.0000
  C   C5133     1.0  0.82280  0.47311  0.81068  1.0000
  C   C5134     1.0  0.56071  0.01555  0.90401  1.0000
  Fe  Fe356     1.0  0.77416  0.05790  0.91327  1.0000
  S   S703      1.0  0.79631  0.05414  0.88952  1.0000
  S   S704      1.0  0.75939  0.03586  0.92641  1.0000
  C   C5135     1.0  0.89384  0.99802  0.91620  1.0000
  C   C5136     1.0  0.87795  0.05879  0.91792  1.0000
  H   H4088     1.0  0.83483  0.02408  0.88435  1.0000
  H   H4089     1.0  0.81596  0.24773  0.78949  1.0000
  H   H4090     1.0  0.90927  0.12511  0.79500  1.0000
  C   C5137     1.0  0.82567  0.02324  0.91899  1.0000
  H   H4091     1.0  0.57416  0.47810  0.90270  1.0000
  H   H4092     1.0  0.88492  0.06943  0.91077  1.0000
  H   H4093     1.0  0.95710  0.15492  0.79033  1.0000
  H   H4094     1.0  0.84463  0.25754  0.78186  1.0000
  C   C5138     1.0  0.98129  0.47552  0.78899  1.0000
  H   H4095     1.0  0.93423  0.03809  0.80304  1.0000
  C   C5139     1.0  0.92976  0.31107  0.86954  1.0000
  C   C5140     1.0  0.90032  0.33666  0.81542  1.0000
  C   C5141     1.0  0.89172  0.32609  0.83045  1.0000
  C   C5142     1.0  0.89167  0.30850  0.83040  1.0000
  C   C5143     1.0  0.89942  0.30152  0.81503  1.0000
  C   C5144     1.0  0.90730  0.31232  0.79965  1.0000
  C   C5145     1.0  0.90817  0.32978  0.79996  1.0000
  H   H4096     1.0  0.88548  0.33134  0.84238  1.0000
  H   H4097     1.0  0.88557  0.30023  0.84234  1.0000
  H   H4098     1.0  0.91331  0.30684  0.78786  1.0000
  H   H4099     1.0  0.91467  0.33800  0.78827  1.0000
  C   C5146     1.0  0.86130  0.04062  0.84597  1.0000
  Fe  Fe357     1.0  0.66889  0.99533  0.88924  1.0000
  C   C5147     1.0  0.86562  0.04070  0.94564  1.0000
  H   H4100     1.0  0.68285  0.09945  0.86831  1.0000
  C   C5148     1.0  0.57992  0.45890  0.92633  1.0000
  C   C5149     1.0  0.93987  0.42462  0.90233  1.0000
  H   H4101     1.0  0.70512  0.08504  0.88746  1.0000
  C   C5150     1.0  0.93877  0.16632  0.82466  1.0000
  C   C5151     1.0  0.86150  0.18757  0.79753  1.0000
  C   C5152     1.0  0.85615  0.17713  0.78890  1.0000
  H   H4102     1.0  0.94915  0.28978  0.88092  1.0000
  H   H4103     1.0  0.86018  0.18408  0.81184  1.0000
  H   H4104     1.0  0.85051  0.16589  0.79663  1.0000
  C   C5153     1.0  0.79923  0.10491  0.84715  1.0000
  C   C5154     1.0  0.80525  0.08830  0.84236  1.0000
  C   C5155     1.0  0.80385  0.07271  0.85536  1.0000
  C   C5156     1.0  0.79626  0.07372  0.87315  1.0000
  C   C5157     1.0  0.78940  0.09033  0.87783  1.0000
  C   C5158     1.0  0.79090  0.10593  0.86483  1.0000
  H   H4105     1.0  0.81112  0.08742  0.82870  1.0000
  H   H4106     1.0  0.80881  0.05990  0.85164  1.0000
  H   H4107     1.0  0.78349  0.09113  0.89156  1.0000
  H   H4108     1.0  0.78613  0.11876  0.86855  1.0000
  C   C5159     1.0  0.90484  0.07742  0.85203  1.0000
  C   C5160     1.0  0.88718  0.07951  0.85039  1.0000
  C   C5161     1.0  0.88284  0.08413  0.83344  1.0000
  C   C5162     1.0  0.89621  0.08632  0.81811  1.0000
  C   C5163     1.0  0.91386  0.08398  0.81979  1.0000
  C   C5164     1.0  0.91811  0.07969  0.83666  1.0000
  H   H4109     1.0  0.87686  0.07772  0.86223  1.0000
  H   H4110     1.0  0.86928  0.08560  0.83215  1.0000
  H   H4111     1.0  0.92429  0.08559  0.80804  1.0000
  H   H4112     1.0  0.93174  0.07786  0.83770  1.0000
  C   C5165     1.0  0.50685  0.43824  0.97184  1.0000
  C   C5166     1.0  0.95900  0.25445  0.86658  1.0000
  C   C5167     1.0  0.93862  0.06790  0.94279  1.0000
  C   C5168     1.0  0.93594  0.05345  0.95696  1.0000
  C   C5169     1.0  0.71200  0.07274  0.84164  1.0000
  C   C5170     1.0  0.84267  0.99335  0.92701  1.0000
  C   C5171     1.0  0.90748  0.08202  0.95109  1.0000
  C   C5172     1.0  0.92434  0.08217  0.93985  1.0000
  H   H4113     1.0  0.89822  0.18116  0.81282  1.0000
  C   C5173     1.0  0.87344  0.04868  0.90837  1.0000
  H   H4114     1.0  0.89664  0.09329  0.94908  1.0000
  H   H4115     1.0  0.92645  0.09350  0.92915  1.0000
  C   C5174     1.0  0.71237  0.00858  0.91292  1.0000
  C   C5175     1.0  0.69946  0.01140  0.90269  1.0000
  C   C5176     1.0  0.56142  0.41162  0.79333  1.0000
  H   H4116     1.0  0.52664  0.08628  0.92535  1.0000
  S   S705      1.0  0.95965  0.07973  0.85107  1.0000
  C   C5177     1.0  0.91775  0.44913  0.85631  1.0000
  C   C5178     1.0  0.91574  0.43213  0.85622  1.0000
  C   C5179     1.0  0.92419  0.42425  0.84139  1.0000
  C   C5180     1.0  0.93485  0.43332  0.82678  1.0000
  C   C5181     1.0  0.93701  0.45017  0.82701  1.0000
  C   C5182     1.0  0.92831  0.45814  0.84160  1.0000
  H   H4117     1.0  0.90757  0.42511  0.86758  1.0000
  H   H4118     1.0  0.92245  0.41124  0.84127  1.0000
  H   H4119     1.0  0.94510  0.45728  0.81567  1.0000
  H   H4120     1.0  0.85519  0.98386  0.92717  1.0000
  C   C5183     1.0  0.86535  0.03417  0.91741  1.0000
  C   C5184     1.0  0.62776  0.01109  0.96500  1.0000
  H   H4121     1.0  0.93048  0.03409  0.85874  1.0000
  H   H4122     1.0  0.59249  0.45211  0.91943  1.0000
  C   C5185     1.0  0.87626  0.04005  0.85245  1.0000
  C   C5186     1.0  0.61112  0.02177  0.94116  1.0000
  C   C5187     1.0  0.60012  0.03487  0.95033  1.0000
  S   S706      1.0  0.90681  0.45914  0.87465  1.0000
  C   C5188     1.0  0.90821  0.98343  0.91621  1.0000
  C   C5189     1.0  0.62504  0.00994  0.94851  1.0000
  H   H4123     1.0  0.58969  0.04444  0.94459  1.0000
  H   H4124     1.0  0.63395  0.00015  0.94134  1.0000
  C   C5190     1.0  0.66061  0.03874  0.82295  1.0000
  C   C5191     1.0  0.66201  0.04644  0.80477  1.0000
  C   C5192     1.0  0.67641  0.05462  0.79535  1.0000
  C   C5193     1.0  0.68924  0.05538  0.80418  1.0000
  C   C5194     1.0  0.68747  0.04819  0.82249  1.0000
  C   C5195     1.0  0.67331  0.03970  0.83183  1.0000
  H   H4125     1.0  0.65207  0.04588  0.79795  1.0000
  C   C5196     1.0  0.84652  0.02856  0.87579  1.0000
  H   H4126     1.0  0.69735  0.04870  0.82936  1.0000
  H   H4127     1.0  0.67228  0.03386  0.84587  1.0000
  C   C5197     1.0  0.71560  0.02289  0.91818  1.0000
  C   C5198     1.0  0.70604  0.04016  0.91309  1.0000
  C   C5199     1.0  0.69344  0.04302  0.90253  1.0000
  C   C5200     1.0  0.69024  0.02875  0.89725  1.0000
  H   H4128     1.0  0.72525  0.02051  0.92642  1.0000
  H   H4129     1.0  0.68602  0.05627  0.89844  1.0000
  H   H4130     1.0  0.68054  0.03119  0.88909  1.0000
  H   H4131     1.0  0.79821  0.99542  0.94396  1.0000
  S   S707      1.0  0.64809  0.98083  0.90784  1.0000
  C   C5201     1.0  0.90724  0.46529  0.80074  1.0000
  C   C5202     1.0  0.86124  0.03045  0.93615  1.0000
  H   H4132     1.0  0.56646  0.10280  0.91584  1.0000
  H   H4133     1.0  0.50862  0.46807  0.84523  1.0000
  C   C5203     1.0  0.49876  0.41915  0.78763  1.0000
  H   H4134     1.0  0.81434  0.08491  0.94783  1.0000
  C   C5204     1.0  0.94738  0.11445  0.81159  1.0000
  C   C5205     1.0  0.94135  0.45678  0.90952  1.0000
  C   C5206     1.0  0.86146  0.02811  0.88250  1.0000
  C   C5207     1.0  0.88121  0.00027  0.90579  1.0000
  C   C5208     1.0  0.80775  0.07862  0.96079  1.0000
  C   C5209     1.0  0.98430  0.43520  0.86501  1.0000
  C   C5210     1.0  0.50071  0.42907  0.79908  1.0000
  H   H4135     1.0  0.91667  0.99154  0.95891  1.0000
  C   C5211     1.0  0.97279  0.44861  0.85553  1.0000
  H   H4136     1.0  0.71965  0.99522  0.91708  1.0000
  H   H4137     1.0  0.53889  0.02252  0.92526  1.0000
  C   C5212     1.0  0.70384  0.01151  0.80514  1.0000
  H   H4138     1.0  0.83197  0.06157  0.96767  1.0000
  C   C5213     1.0  0.57037  0.40843  0.80725  1.0000
  H   H4139     1.0  0.94801  0.31128  0.80000  1.0000
  P   P170      1.0  0.97516  0.41897  0.88321  1.0000
  C   C5214     1.0  0.98012  0.13865  0.86696  1.0000
  C   C5215     1.0  0.50242  0.45703  0.84654  1.0000
  C   C5216     1.0  0.83719  0.39382  0.80758  1.0000
  C   C5217     1.0  0.81929  0.39212  0.81206  1.0000
  C   C5218     1.0  0.81223  0.38328  0.82910  1.0000
  C   C5219     1.0  0.82310  0.37569  0.84160  1.0000
  C   C5220     1.0  0.84108  0.37683  0.83702  1.0000
  C   C5221     1.0  0.84814  0.38574  0.82005  1.0000
  H   H4140     1.0  0.80963  0.18349  0.77758  1.0000
  H   H4141     1.0  0.55843  0.02858  0.89543  1.0000
  C   C5222     1.0  0.50062  0.43178  0.83560  1.0000
  C   C5223     1.0  0.96060  0.07080  0.77802  1.0000
  H   H4142     1.0  0.91366  0.45352  0.79540  1.0000
  C   C5224     1.0  0.57470  0.00216  0.89822  1.0000
  C   C5225     1.0  0.89572  0.46344  0.81747  1.0000
  H   H4143     1.0  0.79822  0.47711  0.80166  1.0000
  C   C5226     1.0  0.97600  0.25866  0.86027  1.0000
  H   H4144     1.0  0.49627  0.45375  0.91483  1.0000
  C   C5227     1.0  0.86530  0.42118  0.79834  1.0000
  H   H4145     1.0  0.95092  0.18113  0.83570  1.0000
  H   H4146     1.0  0.53470  0.41053  0.84191  1.0000
  H   H4147     1.0  0.49952  0.43982  0.96156  1.0000
  C   C5228     1.0  0.50960  0.36437  0.83620  1.0000
  C   C5229     1.0  0.81740  0.43223  0.78459  1.0000
  H   H4148     1.0  0.81095  0.39718  0.80225  1.0000
  H   H4149     1.0  0.79845  0.38187  0.83245  1.0000
  H   H4150     1.0  0.81774  0.36850  0.85466  1.0000
  H   H4151     1.0  0.84974  0.37036  0.84642  1.0000
  H   H4152     1.0  0.86232  0.38574  0.81654  1.0000
  C   C5230     1.0  0.56695  0.98186  0.92633  1.0000
  C   C5231     1.0  0.74652  0.13079  0.96648  1.0000
  C   C5232     1.0  0.80657  0.46900  0.81084  1.0000
  C   C5233     1.0  0.69304  0.00795  0.78060  1.0000
  C   C5234     1.0  0.91427  0.15163  0.79069  1.0000
  C   C5235     1.0  0.54974  0.01213  0.92085  1.0000
  C   C5236     1.0  0.86580  0.47797  0.78001  1.0000
  H   H4153     1.0  0.86591  0.12834  0.84148  1.0000
  H   H4154     1.0  0.85400  0.42205  0.80940  1.0000
  C   C5237     1.0  0.93950  0.18121  0.83050  1.0000
  C   C5238     1.0  0.86619  0.10099  0.92901  1.0000
  C   C5239     1.0  0.85532  0.10242  0.94573  1.0000
  C   C5240     1.0  0.83754  0.11149  0.94703  1.0000
  C   C5241     1.0  0.83061  0.11908  0.93160  1.0000
  C   C5242     1.0  0.84144  0.11752  0.91474  1.0000
  C   C5243     1.0  0.85925  0.10827  0.91361  1.0000
  P   P171      1.0  0.83240  0.12595  0.89474  1.0000
  C   C5244     1.0  0.83650  0.10785  0.88343  1.0000
  C   C5245     1.0  0.80850  0.13339  0.90073  1.0000
  C   C5246     1.0  0.79700  0.12206  0.90223  1.0000
  C   C5247     1.0  0.77856  0.12771  0.90734  1.0000
  C   C5248     1.0  0.77144  0.14459  0.91128  1.0000
  C   C5249     1.0  0.78277  0.15596  0.90985  1.0000
  C   C5250     1.0  0.80126  0.15041  0.90457  1.0000
  C   C5251     1.0  0.83772  0.09023  0.89319  1.0000
  C   C5252     1.0  0.83911  0.07642  0.88471  1.0000
  C   C5253     1.0  0.83949  0.08006  0.86648  1.0000
  C   C5254     1.0  0.83849  0.09744  0.85668  1.0000
  C   C5255     1.0  0.83679  0.11131  0.86511  1.0000
  C   C5256     1.0  0.84196  0.14419  0.87994  1.0000
  C   C5257     1.0  0.83337  0.15523  0.86636  1.0000
  C   C5258     1.0  0.84123  0.16853  0.85401  1.0000
  C   C5259     1.0  0.85760  0.17112  0.85523  1.0000
  C   C5260     1.0  0.86604  0.16052  0.86894  1.0000
  C   C5261     1.0  0.85824  0.14717  0.88130  1.0000
  H   H4155     1.0  0.87998  0.09393  0.92795  1.0000
  C   C5262     1.0  0.88834  0.47811  0.82555  1.0000
  H   H4156     1.0  0.82906  0.11243  0.96001  1.0000
  H   H4157     1.0  0.81673  0.12580  0.93298  1.0000
  H   H4158     1.0  0.86774  0.10645  0.90084  1.0000
  H   H4159     1.0  0.80210  0.10882  0.89951  1.0000
  H   H4160     1.0  0.76977  0.11889  0.90842  1.0000
  H   H4161     1.0  0.75712  0.14872  0.91552  1.0000
  H   H4162     1.0  0.77721  0.16907  0.91285  1.0000
  H   H4163     1.0  0.80991  0.15931  0.90361  1.0000
  H   H4164     1.0  0.83692  0.08716  0.90743  1.0000
  H   H4165     1.0  0.83935  0.06297  0.89232  1.0000
  H   H4166     1.0  0.84002  0.06955  0.85996  1.0000
  H   H4167     1.0  0.83829  0.10029  0.84261  1.0000
  H   H4168     1.0  0.83512  0.12468  0.85727  1.0000
  H   H4169     1.0  0.82078  0.15328  0.86501  1.0000
  H   H4170     1.0  0.83474  0.17671  0.84331  1.0000
  H   H4171     1.0  0.86380  0.18128  0.84549  1.0000
  H   H4172     1.0  0.87883  0.16245  0.86975  1.0000
  H   H4173     1.0  0.86521  0.13907  0.89159  1.0000
  C   C5263     1.0  0.91888  0.05297  0.96775  1.0000
  C   C5264     1.0  0.95581  0.43095  0.89626  1.0000
  H   H4174     1.0  0.97058  0.47152  0.83416  1.0000
  C   C5265     1.0  0.79313  0.01191  0.97528  1.0000
  H   H4175     1.0  0.77956  0.08681  0.78064  1.0000
  C   C5266     1.0  0.50048  0.26801  0.94549  1.0000
  C   C5267     1.0  0.95133  0.30129  0.79198  1.0000
  C   C5268     1.0  0.50848  0.43592  0.89643  1.0000
  H   H4176     1.0  0.51781  0.42738  0.93060  1.0000
  C   C5269     1.0  0.80116  0.45406  0.82269  1.0000
  C   C5270     1.0  0.57652  0.09579  0.92360  1.0000
  H   H4177     1.0  0.94417  0.23347  0.87711  1.0000
  C   C5271     1.0  0.71858  0.01728  0.79324  1.0000
  C   C5272     1.0  0.69040  0.05648  0.97219  1.0000
  H   H4178     1.0  0.91821  0.17879  0.78187  1.0000
  C   C5273     1.0  0.51592  0.46449  0.89361  1.0000
  C   C5274     1.0  0.52860  0.46196  0.87810  1.0000
  C   C5275     1.0  0.53130  0.44645  0.87172  1.0000
  C   C5276     1.0  0.52131  0.43347  0.88084  1.0000
  C   C5277     1.0  0.51038  0.40503  0.92552  1.0000
  C   C5278     1.0  0.51198  0.38651  0.93019  1.0000
  C   C5279     1.0  0.52259  0.37621  0.94226  1.0000
  C   C5280     1.0  0.53128  0.38433  0.95018  1.0000
  C   C5281     1.0  0.52944  0.40280  0.94595  1.0000
  C   C5282     1.0  0.98698  0.15146  0.87096  1.0000
  C   C5283     1.0  0.72723  0.99841  0.84001  1.0000
  C   C5284     1.0  0.77585  0.03600  0.85669  1.0000
  C   C5285     1.0  0.92549  0.19609  0.82978  1.0000
  C   C5286     1.0  0.97249  0.22299  0.87194  1.0000
  H   H4179     1.0  0.75266  0.99360  0.82202  1.0000
  C   C5287     1.0  0.98610  0.27285  0.81819  1.0000
  C   C5288     1.0  0.62693  0.99788  0.81754  1.0000
  C   C5289     1.0  0.82156  0.01951  0.97327  1.0000
  H   H4180     1.0  0.52174  0.39196  0.89004  1.0000
  C   C5290     1.0  0.91354  0.16833  0.77912  1.0000
  C   C5291     1.0  0.88314  0.98768  0.89550  1.0000
  H   H4181     1.0  0.87347  0.98913  0.88748  1.0000
  C   C5292     1.0  0.81049  0.99971  0.93665  1.0000
  H   H4182     1.0  0.54105  0.44462  0.85960  1.0000
  H   H4183     1.0  0.52362  0.42165  0.87559  1.0000
  H   H4184     1.0  0.97114  0.38227  0.89889  1.0000
  H   H4185     1.0  0.58319  0.00480  0.88515  1.0000
  H   H4186     1.0  0.86110  0.04584  0.83196  1.0000
  H   H4187     1.0  0.53627  0.47208  0.87101  1.0000
  C   C5293     1.0  0.57407  0.45309  0.94465  1.0000
  C   C5294     1.0  0.92480  0.43435  0.91189  1.0000
  C   C5295     1.0  0.94612  0.28502  0.79929  1.0000
  H   H4188     1.0  0.91795  0.98183  0.92420  1.0000
  H   H4189     1.0  0.64920  0.41961  0.97368  1.0000
  H   H4190     1.0  0.94504  0.26004  0.79429  1.0000
  H   H4191     1.0  0.79833  0.03836  0.96565  1.0000
  H   H4192     1.0  0.98723  0.15227  0.82194  1.0000
  H   H4193     1.0  0.94702  0.26473  0.86662  1.0000
  C   C5296     1.0  0.69445  0.08971  0.86389  1.0000
  H   H4194     1.0  0.76103  0.02089  0.82364  1.0000
  H   H4195     1.0  0.49757  0.45577  0.80311  1.0000
  H   H4196     1.0  0.67759  0.06040  0.78130  1.0000
  H   H4197     1.0  0.66333  0.01435  0.92915  1.0000
  H   H4198     1.0  0.97653  0.26431  0.82393  1.0000
  C   C5297     1.0  0.49217  0.36346  0.83648  1.0000
  C   C5298     1.0  0.93791  0.03643  0.84511  1.0000
  C   C5299     1.0  0.70699  0.08167  0.87464  1.0000
  H   H4199     1.0  0.52033  0.44828  0.82377  1.0000
  C   C5300     1.0  0.62060  0.05918  0.87401  1.0000
  C   C5301     1.0  0.63407  0.06390  0.85953  1.0000
  C   C5302     1.0  0.64691  0.07189  0.86169  1.0000
  C   C5303     1.0  0.64597  0.07570  0.87820  1.0000
  C   C5304     1.0  0.63209  0.07158  0.89266  1.0000
  C   C5305     1.0  0.61976  0.06273  0.89060  1.0000
  P   P172      1.0  0.63066  0.07655  0.91400  1.0000
  C   C5306     1.0  0.60747  0.08184  0.92503  1.0000
  C   C5307     1.0  0.64317  0.05803  0.92740  1.0000
  C   C5308     1.0  0.64844  0.04121  0.92300  1.0000
  C   C5309     1.0  0.65906  0.02726  0.93282  1.0000
  C   C5310     1.0  0.66395  0.02984  0.94749  1.0000
  C   C5311     1.0  0.65834  0.04643  0.95225  1.0000
  C   C5312     1.0  0.64831  0.06056  0.94203  1.0000
  H   H4200     1.0  0.61527  0.11508  0.91004  1.0000
  H   H4201     1.0  0.71397  0.06968  0.82863  1.0000
  C   C5313     1.0  0.78624  0.02667  0.86929  1.0000
  C   C5314     1.0  0.54776  0.47681  0.94409  1.0000
  C   C5315     1.0  0.60247  0.07779  0.94366  1.0000
  C   C5316     1.0  0.64024  0.09581  0.91052  1.0000
  C   C5317     1.0  0.65869  0.09372  0.90904  1.0000
  C   C5318     1.0  0.66621  0.10857  0.90600  1.0000
  C   C5319     1.0  0.65543  0.12561  0.90457  1.0000
  C   C5320     1.0  0.63707  0.12783  0.90603  1.0000
  C   C5321     1.0  0.62949  0.11301  0.90896  1.0000
  H   H4202     1.0  0.61121  0.05217  0.87250  1.0000
  H   H4203     1.0  0.63488  0.06086  0.84676  1.0000
  H   H4204     1.0  0.65774  0.07486  0.85058  1.0000
  H   H4205     1.0  0.65616  0.08167  0.87965  1.0000
  H   H4206     1.0  0.60967  0.05834  0.90186  1.0000
  H   H4207     1.0  0.64440  0.03879  0.91203  1.0000
  H   H4208     1.0  0.88912  0.98252  0.95828  1.0000
  H   H4209     1.0  0.67191  0.01893  0.95526  1.0000
  C   C5322     1.0  0.93078  0.03525  0.83121  1.0000
  H   H4210     1.0  0.64457  0.07347  0.94547  1.0000
  C   C5323     1.0  0.96047  0.37677  0.86221  1.0000
  H   H4211     1.0  0.82492  0.03713  0.91255  1.0000
  H   H4212     1.0  0.50468  0.37992  0.92497  1.0000
  H   H4213     1.0  0.84664  0.46442  0.82175  1.0000
  H   H4214     1.0  0.61221  0.07059  0.95170  1.0000
  H   H4215     1.0  0.66732  0.08063  0.91019  1.0000
  H   H4216     1.0  0.68044  0.10682  0.90472  1.0000
  H   H4217     1.0  0.66131  0.13707  0.90232  1.0000
  H   H4218     1.0  0.53613  0.41694  0.78588  1.0000
  C   C5324     1.0  0.64142  0.01438  0.78977  1.0000
  P   P173      1.0  0.86231  0.01876  0.90574  1.0000
  C   C5325     1.0  0.96437  0.10383  0.80759  1.0000
  C   C5326     1.0  0.53296  0.41425  0.81435  1.0000
  H   H4219     1.0  0.89278  0.00747  0.92428  1.0000
  H   H4220     1.0  0.94183  0.46939  0.91204  1.0000
  Fe  Fe358     1.0  0.75274  0.08113  0.93978  1.0000
  S   S708      1.0  0.73623  0.06100  0.95508  1.0000
  C   C5327     1.0  0.50841  0.39275  0.88835  1.0000
  S   S709      1.0  0.81905  0.13385  0.78019  1.0000
  H   H4221     1.0  0.59425  0.04612  0.97365  1.0000
  H   H4222     1.0  0.92609  0.20771  0.83417  1.0000
  C   C5328     1.0  0.61671  0.02420  0.97416  1.0000
  H   H4223     1.0  0.98705  0.13601  0.78334  1.0000
  H   H4224     1.0  0.89968  0.20742  0.82307  1.0000
  H   H4225     1.0  0.49409  0.01540  0.95077  1.0000
  C   C5329     1.0  0.92553  0.45042  0.91548  1.0000
  C   C5330     1.0  0.92418  0.16633  0.81768  1.0000
  S   S710      1.0  0.75020  0.10854  0.94457  1.0000
  C   C5331     1.0  0.50901  0.44573  0.83441  1.0000
  H   H4226     1.0  0.87532  0.37207  0.78776  1.0000
  P   P174      1.0  0.53629  0.03464  0.97470  1.0000
  C   C5332     1.0  0.55776  0.04135  0.94047  1.0000
  C   C5333     1.0  0.69108  0.00690  0.79890  1.0000
  H   H4227     1.0  0.79728  0.02681  0.92863  1.0000
  H   H4228     1.0  0.52467  0.45481  0.95529  1.0000
  S   S711      1.0  0.69519  0.99304  0.89693  1.0000
  C   C5334     1.0  0.98737  0.15187  0.83561  1.0000
  H   H4229     1.0  0.88851  0.03264  0.87513  1.0000
  C   C5335     1.0  0.54234  0.04753  0.95248  1.0000
  C   C5336     1.0  0.54278  0.41450  0.79685  1.0000
  H   H4230     1.0  0.98187  0.31628  0.85443  1.0000
  C   C5337     1.0  0.71169  0.11549  0.92996  1.0000
  C   C5338     1.0  0.70399  0.10251  0.92773  1.0000
  C   C5339     1.0  0.69131  0.09528  0.94160  1.0000
  C   C5340     1.0  0.77468  0.08098  0.80932  1.0000
  H   H4231     1.0  0.87721  0.11108  0.86859  1.0000
  C   C5341     1.0  0.76152  0.06883  0.79203  1.0000
  H   H4232     1.0  0.92952  0.47143  0.84126  1.0000
  H   H4233     1.0  0.83700  0.43803  0.84255  1.0000
  C   C5342     1.0  0.71544  0.00994  0.85047  1.0000
  H   H4234     1.0  0.69796  0.06250  0.95977  1.0000
  H   H4235     1.0  0.58102  0.08003  0.96660  1.0000
  C   C5343     1.0  0.89444  0.42742  0.78351  1.0000
  H   H4236     1.0  0.97459  0.12871  0.87755  1.0000
  H   H4237     1.0  0.78303  0.08959  0.80994  1.0000
  H   H4238     1.0  0.51403  0.47645  0.89863  1.0000
  C   C5344     1.0  0.87984  0.42830  0.79781  1.0000
  C   C5345     1.0  0.56965  0.47355  0.91689  1.0000
  C   C5346     1.0  0.89042  0.13704  0.82839  1.0000
  H   H4239     1.0  0.88759  0.04488  0.84343  1.0000
  H   H4240     1.0  0.73524  0.02870  0.88119  1.0000
  H   H4241     1.0  0.72182  0.12081  0.91936  1.0000
  H   H4242     1.0  0.70812  0.09776  0.91537  1.0000
  H   H4243     1.0  0.68507  0.08559  0.93946  1.0000
  C   C5347     1.0  0.49628  0.44772  0.79463  1.0000
  P   P175      1.0  0.92286  0.14690  0.81071  1.0000
  C   C5348     1.0  0.58471  0.08290  0.95218  1.0000
  C   C5349     1.0  0.63679  0.08749  0.97448  1.0000
  H   H4244     1.0  0.78856  0.45099  0.82285  1.0000
  C   C5350     1.0  0.77268  0.07950  0.79282  1.0000
  P   P176      1.0  0.50889  0.41787  0.81923  1.0000
  H   H4245     1.0  0.93640  0.10819  0.81917  1.0000
  C   C5351     1.0  0.97602  0.13002  0.79134  1.0000
  H   H4246     1.0  0.98495  0.37345  0.82619  1.0000
  H   H4247     1.0  0.72373  0.98622  0.83967  1.0000
  H   H4248     1.0  0.94955  0.15479  0.82581  1.0000
  H   H4249     1.0  0.70179  0.01141  0.81916  1.0000
  H   H4250     1.0  0.73147  0.06303  0.87760  1.0000
  C   C5352     1.0  0.88562  0.11852  0.85787  1.0000
  C   C5353     1.0  0.64194  0.98405  0.81713  1.0000
  H   H4251     1.0  0.95991  0.04214  0.85218  1.0000
  H   H4252     1.0  0.90590  0.43248  0.78332  1.0000
  C   C5354     1.0  0.86805  0.37156  0.77811  1.0000
  H   H4253     1.0  0.88024  0.47647  0.83892  1.0000
  S   S712      1.0  0.77070  0.01759  0.97290  1.0000
  H   H4254     1.0  0.92777  0.12627  0.84599  1.0000
  C   C5355     1.0  0.80993  0.01746  0.92808  1.0000
  C   C5356     1.0  0.62924  0.12114  0.95273  1.0000
  H   H4255     1.0  0.56672  0.02889  0.94422  1.0000
  S   S713      1.0  0.97111  0.12359  0.84367  1.0000
  C   C5357     1.0  0.70671  0.12124  0.94608  1.0000
  H   H4256     1.0  0.57427  0.04665  0.91432  1.0000
  H   H4257     1.0  0.78160  0.09368  0.95766  1.0000
  H   H4258     1.0  0.52358  0.36194  0.94583  1.0000
  S   S714      1.0  0.98839  0.33883  0.81843  1.0000
  H   H4259     1.0  0.95762  0.36663  0.85712  1.0000
  H   H4260     1.0  0.50698  0.26327  0.91882  1.0000
  C   C5358     1.0  0.84213  0.01112  0.91795  1.0000
  H   H4261     1.0  0.84578  0.46889  0.89507  1.0000
  C   C5359     1.0  0.90294  0.11820  0.85918  1.0000
  C   C5360     1.0  0.95641  0.44717  0.89985  1.0000
  H   H4262     1.0  0.91371  0.45816  0.92250  1.0000
  C   C5361     1.0  0.90464  0.06727  0.96479  1.0000
  H   H4263     1.0  0.94701  0.04247  0.95935  1.0000
  P   P177      1.0  0.97867  0.28142  0.85156  1.0000
  C   C5362     1.0  0.91063  0.19595  0.82347  1.0000
  H   H4264     1.0  0.96469  0.41983  0.84964  1.0000
  C   C5363     1.0  0.68703  0.10021  0.95819  1.0000
  C   C5364     1.0  0.81209  0.44293  0.83414  1.0000
  S   S715      1.0  0.97104  0.38452  0.78950  1.0000
  C   C5365     1.0  0.96831  0.38566  0.88565  1.0000
  C   C5366     1.0  0.97963  0.46119  0.84129  1.0000
  H   H4265     1.0  0.75144  0.13964  0.95437  1.0000
  C   C5367     1.0  0.94472  0.13299  0.80596  1.0000
  H   H4266     1.0  0.93418  0.06681  0.77936  1.0000
  H   H4267     1.0  0.95783  0.39691  0.83846  1.0000
  C   C5368     1.0  0.92550  0.32264  0.85398  1.0000
  H   H4268     1.0  0.98824  0.46841  0.94481  1.0000
  C   C5369     1.0  0.64982  0.09790  0.96838  1.0000
  H   H4269     1.0  0.87178  0.11437  0.97390  1.0000
  H   H4270     1.0  0.55985  0.00228  0.96453  1.0000
  C   C5370     1.0  0.93735  0.32169  0.83767  1.0000
  H   H4271     1.0  0.93884  0.41243  0.89937  1.0000
  P   P178      1.0  0.96907  0.04765  0.78695  1.0000
  H   H4272     1.0  0.58481  0.40624  0.80449  1.0000
  H   H4273     1.0  0.81430  0.42832  0.79894  1.0000
  C   C5371     1.0  0.69456  0.11356  0.96021  1.0000
  H   H4274     1.0  0.82987  0.02921  0.96961  1.0000
  C   C5372     1.0  0.96380  0.01601  0.78233  1.0000
  H   H4275     1.0  0.58725  0.98327  0.97380  1.0000
  H   H4276     1.0  0.92064  0.31193  0.88221  1.0000
  H   H4277     1.0  0.51485  0.03431  0.94939  1.0000
  H   H4278     1.0  0.75950  0.06818  0.77923  1.0000
  C   C5373     1.0  0.81763  0.06545  0.97192  1.0000
  C   C5374     1.0  0.50217  0.39663  0.82707  1.0000
  H   H4279     1.0  0.98117  0.42277  0.91729  1.0000
  H   H4280     1.0  0.96261  0.30906  0.82412  1.0000
  H   H4281     1.0  0.51710  0.37198  0.87320  1.0000
  P   P179      1.0  0.84681  0.40373  0.78518  1.0000
  H   H4282     1.0  0.70290  0.00664  0.85832  1.0000
  H   H4283     1.0  0.52827  0.38113  0.83110  1.0000
  C   C5375     1.0  0.74413  0.11424  0.96569  1.0000
  Fe  Fe359     1.0  0.96461  0.09929  0.86413  1.0000
  C   C5376     1.0  0.50583  0.45161  0.90269  1.0000
  S   S716      1.0  0.98420  0.07906  0.87883  1.0000
  C   C5377     1.0  0.62664  0.01300  0.80384  1.0000
  H   H4284     1.0  0.58236  0.44187  0.95166  1.0000
  H   H4285     1.0  0.51926  0.35224  0.83949  1.0000
  C   C5378     1.0  0.86853  0.20249  0.78779  1.0000
  P   P180      1.0  0.49702  0.41838  0.90958  1.0000
  C   C5379     1.0  0.96068  0.39379  0.85169  1.0000
  C   C5380     1.0  0.82687  0.98770  0.93634  1.0000
  H   H4286     1.0  0.95848  0.44940  0.85921  1.0000
  C   C5381     1.0  0.61630  0.11074  0.95899  1.0000
  C   C5382     1.0  0.55781  0.46190  0.95365  1.0000
  C   C5383     1.0  0.53104  0.06373  0.94678  1.0000
  H   H4287     1.0  0.70533  0.03020  0.96940  1.0000
  C   C5384     1.0  0.50097  0.01300  0.96157  1.0000
  C   C5385     1.0  0.96479  0.40677  0.85805  1.0000
  C   C5386     1.0  0.69699  0.08527  0.84735  1.0000
  H   H4288     1.0  0.93874  0.08516  0.97152  1.0000
  Fe  Fe360     1.0  0.97764  0.05924  0.86724  1.0000
  H   H4289     1.0  0.90781  0.11071  0.87105  1.0000
  C   C5387     1.0  0.94583  0.29848  0.86874  1.0000
  C   C5388     1.0  0.78927  0.08350  0.96631  1.0000
  H   H4290     1.0  0.86287  0.03740  0.96008  1.0000
  H   H4291     1.0  0.80045  0.02624  0.86617  1.0000
  H   H4292     1.0  0.54416  0.99303  0.94502  1.0000
  C   C5389     1.0  0.72195  0.06901  0.86902  1.0000
  H   H4293     1.0  0.74372  0.05147  0.80679  1.0000
  H   H4294     1.0  0.69114  0.11818  0.97256  1.0000
  C   C5390     1.0  0.51909  0.41312  0.93361  1.0000
  C   C5391     1.0  0.54205  0.41093  0.82828  1.0000
  C   C5392     1.0  0.90818  0.13597  0.82921  1.0000
  S   S717      1.0  0.87679  0.26529  0.78617  1.0000
  H   H4295     1.0  0.87992  0.43431  0.80855  1.0000
  C   C5393     1.0  0.87932  0.12806  0.84254  1.0000
  H   H4296     1.0  0.96414  0.35949  0.88732  1.0000
  H   H4297     1.0  0.72802  0.02162  0.79804  1.0000
  C   C5394     1.0  0.49701  0.26339  0.93108  1.0000
  H   H4298     1.0  0.93413  0.33085  0.82569  1.0000
  H   H4299     1.0  0.91236  0.42975  0.91602  1.0000
  C   C5395     1.0  0.91424  0.12688  0.84490  1.0000
  P   P181      1.0  0.74357  0.04817  0.84472  1.0000
  H   H4300     1.0  0.51886  0.06863  0.95567  1.0000
  H   H4301     1.0  0.88507  0.14466  0.81682  1.0000
  C   C5396     1.0  0.95339  0.30911  0.83682  1.0000
  H   H4302     1.0  0.94074  0.11547  0.97245  1.0000
  C   C5397     1.0  0.84652  0.03469  0.85761  1.0000
  H   H4303     1.0  0.83489  0.03513  0.85262  1.0000
  H   H4304     1.0  0.96634  0.08955  0.81213  1.0000
  C   C5398     1.0  0.87652  0.03349  0.87054  1.0000
  C   C5399     1.0  0.52117  0.44674  0.96837  1.0000
  C   C5400     1.0  0.51279  0.02366  0.96084  1.0000
  C   C5401     1.0  0.95904  0.14066  0.79532  1.0000
  C   C5402     1.0  0.49379  0.40451  0.89624  1.0000
  C   C5403     1.0  0.56211  0.05144  0.92331  1.0000
  H   H4305     1.0  0.78248  0.04192  0.84365  1.0000
  C   C5404     1.0  0.62008  0.09397  0.96987  1.0000
  C   C5405     1.0  0.56068  0.40807  0.82472  1.0000
  C   C5406     1.0  0.74811  0.01815  0.83087  1.0000
  H   H4306     1.0  0.53915  0.37634  0.95989  1.0000
  H   H4307     1.0  0.71095  0.03390  0.86000  1.0000
  H   H4308     1.0  0.63863  0.00196  0.97054  1.0000
  C   C5407     1.0  0.80379  0.02462  0.97083  1.0000
  H   H4309     1.0  0.68744  0.09158  0.83884  1.0000
  H   H4310     1.0  0.50221  0.40476  0.79064  1.0000
  H   H4311     1.0  0.91310  0.33246  0.85449  1.0000
  C   C5408     1.0  0.96378  0.04504  0.82376  1.0000
  C   C5409     1.0  0.94018  0.03879  0.81361  1.0000
  C   C5410     1.0  0.55094  0.06763  0.91785  1.0000
  C   C5411     1.0  0.95695  0.04335  0.80976  1.0000
  C   C5412     1.0  0.59433  0.09094  0.91505  1.0000
  C   C5413     1.0  0.60285  0.03602  0.96676  1.0000
  C   C5414     1.0  0.90855  0.13822  0.78640  1.0000
  C   C5415     1.0  0.57172  0.09180  0.94218  1.0000
  H   H4312     1.0  0.96840  0.45259  0.89497  1.0000
  H   H4313     1.0  0.89346  0.45040  0.82468  1.0000
  C   C5416     1.0  0.82844  0.44675  0.83379  1.0000
  H   H4314     1.0  0.55439  0.07541  0.90455  1.0000
  C   C5417     1.0  0.98024  0.13889  0.84926  1.0000
  C   C5418     1.0  0.76581  0.07150  0.82504  1.0000
  H   H4315     1.0  0.76713  0.07315  0.83775  1.0000
  C   C5419     1.0  0.65661  0.00053  0.78927  1.0000
  H   H4316     1.0  0.71282  0.13121  0.94784  1.0000
  H   H4317     1.0  0.53591  0.40908  0.95238  1.0000
  H   H4318     1.0  0.96593  0.01046  0.79578  1.0000
  C   C5420     1.0  0.75991  0.01893  0.89025  1.0000
  H   H4319     1.0  0.65558  0.12329  0.95290  1.0000
  H   H4320     1.0  0.66169  0.04828  0.96390  1.0000
  C   C5421     1.0  0.73633  0.02979  0.84138  1.0000
  C   C5422     1.0  0.77827  0.01827  0.88611  1.0000
  C   C5423     1.0  0.95729  0.23667  0.87242  1.0000
  H   H4321     1.0  0.56762  0.40558  0.83550  1.0000
  C   C5424     1.0  0.53537  0.07376  0.92957  1.0000
  H   H4322     1.0  0.80796  0.43127  0.84321  1.0000
  H   H4323     1.0  0.64100  0.02640  0.77961  1.0000
  C   C5425     1.0  0.95760  0.29717  0.85232  1.0000
  H   H4324     1.0  0.59787  0.09448  0.90066  1.0000
  C   C5426     1.0  0.75538  0.05994  0.82433  1.0000
  S   S718      1.0  0.70775  0.06498  0.79271  1.0000
  C   C5427     1.0  0.75275  0.05920  0.80772  1.0000
  H   H4325     1.0  0.79514  0.45462  0.78394  1.0000
  H   H4326     1.0  0.67947  0.00318  0.80841  1.0000
  H   H4327     1.0  0.60314  0.11580  0.95587  1.0000
  H   H4328     1.0  0.55799  0.09568  0.94889  1.0000
  C   C5428     1.0  0.94958  0.27245  0.78875  1.0000
  H   H4329     1.0  0.62869  0.14104  0.90492  1.0000
  H   H4330     1.0  0.93884  0.28236  0.81298  1.0000
  C   C5429     1.0  0.96894  0.40271  0.87499  1.0000
  C   C5430     1.0  0.72443  0.06431  0.85255  1.0000
  H   H4331     1.0  0.78629  0.01138  0.89597  1.0000
  C   C5431     1.0  0.90991  0.18109  0.81754  1.0000
  C   C5432     1.0  0.96422  0.37273  0.87921  1.0000
  C   C5433     1.0  0.51462  0.38086  0.83150  1.0000
  H   H4332     1.0  0.75374  0.01219  0.90318  1.0000
  C   C5434     1.0  0.74945  0.02842  0.87778  1.0000
  C   C5435     1.0  0.57783  0.98537  0.90931  1.0000
  H   H4333     1.0  0.51312  0.27150  0.94441  1.0000
  H   H4334     1.0  0.56546  0.41754  0.97512  1.0000
  H   H4335     1.0  0.91787  0.03180  0.83406  1.0000
  H   H4336     1.0  0.97729  0.43064  0.81265  1.0000
  H   H4337     1.0  0.60984  0.08615  0.97513  1.0000
  H   H4338     1.0  0.86066  0.09631  0.95767  1.0000
  H   H4339     1.0  0.97126  0.20917  0.87628  1.0000
  H   H4340     1.0  0.62616  0.13430  0.94461  1.0000
  H   H4341     1.0  0.49055  0.27235  0.97208  1.0000
  H   H4342     1.0  0.98613  0.42242  0.78331  1.0000
  C   C5436     1.0  0.65669  0.98533  0.80303  1.0000
  C   C5437     1.0  0.63963  0.44724  0.97541  1.0000
  C   C5438     1.0  0.86552  0.41278  0.78473  1.0000
  C   C5439     1.0  0.64592  0.11480  0.95744  1.0000
  H   H4343     1.0  0.98677  0.15130  0.88467  1.0000
  H   H4344     1.0  0.96040  0.99125  0.77865  1.0000
  C   C5440     1.0  0.56467  0.00528  0.97475  1.0000
  P   P182      1.0  0.67062  0.09073  0.97600  1.0000
  H   H4345     1.0  0.56895  0.41189  0.77979  1.0000
  Fe  Fe361     1.0  0.63701  0.55266  0.01354  1.0000
  S   S719      1.0  0.61167  0.57025  0.02480  1.0000
  C   C5441     1.0  0.88211  0.61622  0.00048  1.0000
  Fe  Fe362     1.0  0.62227  0.51887  0.03009  1.0000
  S   S720      1.0  0.59574  0.53398  0.04201  1.0000
  C   C5442     1.0  0.93187  0.73811  0.17353  1.0000
  Fe  Fe363     1.0  0.59833  0.55338  0.01567  1.0000
  S   S721      1.0  0.57522  0.56582  0.00149  1.0000
  Fe  Fe364     1.0  0.61187  0.54920  0.04984  1.0000
  S   S722      1.0  0.60746  0.55181  0.07850  1.0000
  S   S723      1.0  0.62375  0.53704  0.00307  1.0000
  S   S724      1.0  0.63824  0.53300  0.03921  1.0000
  Fe  Fe365     1.0  0.70635  0.59233  0.12663  1.0000
  S   S725      1.0  0.67664  0.59854  0.13667  1.0000
  S   S726      1.0  0.72150  0.61447  0.11387  1.0000
  Fe  Fe366     1.0  0.70786  0.55249  0.13405  1.0000
  S   S727      1.0  0.67824  0.55523  0.14434  1.0000
  S   S728      1.0  0.73021  0.52892  0.12974  1.0000
  Fe  Fe367     1.0  0.67556  0.57873  0.12139  1.0000
  S   S729      1.0  0.65880  0.58853  0.10015  1.0000
  Fe  Fe368     1.0  0.68165  0.57489  0.15875  1.0000
  S   S730      1.0  0.70492  0.57418  0.11006  1.0000
  S   S731      1.0  0.71146  0.57037  0.14998  1.0000
  Fe  Fe369     1.0  0.82199  0.61461  0.07990  1.0000
  S   S732      1.0  0.81059  0.63898  0.06138  1.0000
  S   S733      1.0  0.80574  0.59926  0.10397  1.0000
  Fe  Fe370     1.0  0.86016  0.61557  0.05975  1.0000
  S   S734      1.0  0.85160  0.63984  0.03981  1.0000
  S   S735      1.0  0.88975  0.60677  0.05744  1.0000
  Fe  Fe371     1.0  0.83330  0.65009  0.06329  1.0000
  S   S736      1.0  0.83104  0.67875  0.06467  1.0000
  Fe  Fe372     1.0  0.83008  0.62628  0.03988  1.0000
  S   S737      1.0  0.82399  0.62611  0.01376  1.0000
  S   S738      1.0  0.84335  0.62660  0.08336  1.0000
  S   S739      1.0  0.84010  0.60102  0.05818  1.0000
  H   H4346     1.0  0.85480  0.94775  0.11744  1.0000
  Fe  Fe373     1.0  0.93904  0.85019  0.09717  1.0000
  S   S740      1.0  0.96816  0.84769  0.09596  1.0000
  S   S741      1.0  0.92387  0.82887  0.11322  1.0000
  Fe  Fe374     1.0  0.93349  0.89040  0.08172  1.0000
  S   S742      1.0  0.96218  0.89122  0.07931  1.0000
  S   S743      1.0  0.91008  0.91320  0.07745  1.0000
  Fe  Fe375     1.0  0.96813  0.86588  0.06907  1.0000
  H   H4347     1.0  0.88862  0.97259  0.04499  1.0000
  Fe  Fe376     1.0  0.95970  0.87302  0.10637  1.0000
  S   S744      1.0  0.96826  0.87363  0.13115  1.0000
  S   S745      1.0  0.93938  0.86645  0.06949  1.0000
  S   S746      1.0  0.93072  0.87418  0.10948  1.0000
  S   S747      1.0  0.89872  0.74858  0.13507  1.0000
  Fe  Fe377     1.0  0.87473  0.71769  0.12308  1.0000
  S   S748      1.0  0.90302  0.72003  0.10965  1.0000
  S   S749      1.0  0.86233  0.69487  0.12341  1.0000
  Fe  Fe378     1.0  0.90666  0.71919  0.13688  1.0000
  C   C5443     1.0  0.85914  0.93653  0.05358  1.0000
  Fe  Fe379     1.0  0.89276  0.74954  0.10875  1.0000
  S   S750      1.0  0.90205  0.77099  0.08583  1.0000
  P   P183      1.0  0.97471  0.74088  0.08801  1.0000
  S   S751      1.0  0.86402  0.74729  0.11963  1.0000
  C   C5444     1.0  0.85496  0.97426  0.14724  1.0000
  H   H4348     1.0  0.81581  0.54513  0.00333  1.0000
  C   C5445     1.0  0.94793  0.68898  0.14027  1.0000
  C   C5446     1.0  0.95914  0.67762  0.15131  1.0000
  H   H4349     1.0  0.56209  0.50777  0.10443  1.0000
  C   C5447     1.0  0.95223  0.68891  0.12197  1.0000
  C   C5448     1.0  0.61318  0.49049  0.09109  1.0000
  C   C5449     1.0  0.98405  0.75447  0.05140  1.0000
  H   H4350     1.0  0.94357  0.69764  0.11338  1.0000
  C   C5450     1.0  0.91690  0.81436  0.10425  1.0000
  C   C5451     1.0  0.90409  0.80488  0.11531  1.0000
  C   C5452     1.0  0.89925  0.79189  0.10954  1.0000
  C   C5453     1.0  0.90730  0.78811  0.09269  1.0000
  C   C5454     1.0  0.91976  0.79796  0.08135  1.0000
  C   C5455     1.0  0.92458  0.81109  0.08712  1.0000
  H   H4351     1.0  0.89802  0.80747  0.12849  1.0000
  H   H4352     1.0  0.88916  0.78490  0.11812  1.0000
  H   H4353     1.0  0.92595  0.79517  0.06826  1.0000
  H   H4354     1.0  0.93454  0.81828  0.07855  1.0000
  C   C5456     1.0  0.95879  0.89276  0.14033  1.0000
  C   C5457     1.0  0.95586  0.90966  0.12938  1.0000
  C   C5458     1.0  0.94973  0.92485  0.13697  1.0000
  C   C5459     1.0  0.87067  0.89443  0.12948  1.0000
  C   C5460     1.0  0.83939  0.52638  0.99428  1.0000
  C   C5461     1.0  0.84199  0.97102  0.07883  1.0000
  H   H4355     1.0  0.95882  0.91106  0.11506  1.0000
  H   H4356     1.0  0.94776  0.93792  0.12845  1.0000
  C   C5462     1.0  0.71010  0.50305  0.13843  1.0000
  H   H4357     1.0  0.70025  0.51132  0.14670  1.0000
  C   C5463     1.0  0.59721  0.48180  0.04978  1.0000
  C   C5464     1.0  0.93212  0.95124  0.03986  1.0000
  C   C5465     1.0  0.93033  0.93573  0.05302  1.0000
  C   C5466     1.0  0.91338  0.93329  0.06267  1.0000
  C   C5467     1.0  0.89844  0.94685  0.05997  1.0000
  C   C5468     1.0  0.90025  0.96236  0.04699  1.0000
  H   H4358     1.0  0.94517  0.95284  0.03198  1.0000
  H   H4359     1.0  0.94196  0.92546  0.05527  1.0000
  H   H4360     1.0  0.88536  0.94523  0.06773  1.0000
  H   H4361     1.0  0.54565  0.56616  0.98698  1.0000
  H   H4362     1.0  0.53280  0.96343  0.00010  1.0000
  C   C5469     1.0  0.85497  0.69068  0.10604  1.0000
  C   C5470     1.0  0.85129  0.70384  0.09118  1.0000
  C   C5471     1.0  0.84421  0.69999  0.07837  1.0000
  C   C5472     1.0  0.84099  0.68295  0.08027  1.0000
  C   C5473     1.0  0.84513  0.66975  0.09493  1.0000
  C   C5474     1.0  0.85205  0.67363  0.10773  1.0000
  H   H4363     1.0  0.85347  0.71705  0.08979  1.0000
  H   H4364     1.0  0.84102  0.71028  0.06707  1.0000
  H   H4365     1.0  0.84261  0.65667  0.09666  1.0000
  H   H4366     1.0  0.85511  0.66338  0.11907  1.0000
  C   C5475     1.0  0.81362  0.60867  0.01498  1.0000
  H   H4367     1.0  0.88178  0.95450  0.97713  1.0000
  C   C5476     1.0  0.79459  0.58274  0.01680  1.0000
  C   C5477     1.0  0.79729  0.58585  0.03238  1.0000
  C   C5478     1.0  0.80677  0.59880  0.03150  1.0000
  H   H4368     1.0  0.79184  0.57837  0.04520  1.0000
  H   H4369     1.0  0.80825  0.60151  0.04364  1.0000
  C   C5479     1.0  0.89463  0.57309  0.05107  1.0000
  C   C5480     1.0  0.90086  0.58893  0.04677  1.0000
  C   C5481     1.0  0.91719  0.59010  0.03502  1.0000
  C   C5482     1.0  0.92786  0.57527  0.02831  1.0000
  H   H4370     1.0  0.88190  0.57215  0.06003  1.0000
  H   H4371     1.0  0.92165  0.60251  0.03128  1.0000
  H   H4372     1.0  0.94058  0.57624  0.01939  1.0000
  C   C5483     1.0  0.78246  0.60287  0.10565  1.0000
  C   C5484     1.0  0.77336  0.61795  0.09555  1.0000
  C   C5485     1.0  0.75467  0.62123  0.09811  1.0000
  C   C5486     1.0  0.74497  0.60930  0.11049  1.0000
  C   C5487     1.0  0.75405  0.59402  0.12038  1.0000
  C   C5488     1.0  0.77273  0.59093  0.11809  1.0000
  H   H4373     1.0  0.78063  0.62733  0.08611  1.0000
  H   H4374     1.0  0.74766  0.63304  0.09048  1.0000
  H   H4375     1.0  0.74665  0.58477  0.12998  1.0000
  H   H4376     1.0  0.77965  0.57928  0.12603  1.0000
  C   C5489     1.0  0.72574  0.50876  0.12868  1.0000
  H   H4377     1.0  0.71929  0.53227  0.03259  1.0000
  C   C5490     1.0  0.86597  0.96971  0.09988  1.0000
  H   H4378     1.0  0.50185  0.94674  0.02607  1.0000
  H   H4379     1.0  0.75104  0.50196  0.11121  1.0000
  H   H4380     1.0  0.86480  0.50985  0.98626  1.0000
  C   C5491     1.0  0.69527  0.56203  0.98774  1.0000
  C   C5492     1.0  0.96245  0.75755  0.10099  1.0000
  H   H4381     1.0  0.90102  0.54563  0.04847  1.0000
  H   H4382     1.0  0.97162  0.67772  0.10072  1.0000
  H   H4383     1.0  0.59212  0.49599  0.04700  1.0000
  C   C5493     1.0  0.62274  0.56114  0.08406  1.0000
  C   C5494     1.0  0.62881  0.57595  0.07272  1.0000
  C   C5495     1.0  0.63956  0.58431  0.07806  1.0000
  C   C5496     1.0  0.64512  0.57745  0.09434  1.0000
  C   C5497     1.0  0.63920  0.56255  0.10564  1.0000
  C   C5498     1.0  0.62786  0.55453  0.10062  1.0000
  H   H4384     1.0  0.62467  0.58136  0.06011  1.0000
  H   H4385     1.0  0.64360  0.59619  0.06954  1.0000
  H   H4386     1.0  0.64298  0.55758  0.11839  1.0000
  H   H4387     1.0  0.62299  0.54323  0.10956  1.0000
  H   H4388     1.0  0.89331  0.90472  0.03851  1.0000
  C   C5499     1.0  0.70186  0.52570  0.00250  1.0000
  C   C5500     1.0  0.68421  0.53539  0.00346  1.0000
  H   H4389     1.0  0.69901  0.55658  0.07207  1.0000
  C   C5501     1.0  0.57352  0.50011  0.01782  1.0000
  C   C5502     1.0  0.67902  0.48311  0.04330  1.0000
  H   H4390     1.0  0.70443  0.51160  0.00799  1.0000
  H   H4391     1.0  0.67319  0.52875  0.00981  1.0000
  C   C5503     1.0  0.60512  0.48963  0.99373  1.0000
  S   S752      1.0  0.78171  0.56720  0.01859  1.0000
  H   H4392     1.0  0.89306  0.85418  0.10670  1.0000
  C   C5504     1.0  0.68537  0.54632  0.05778  1.0000
  H   H4393     1.0  0.66092  0.51385  0.06928  1.0000
  C   C5505     1.0  0.69018  0.55985  0.06280  1.0000
  C   C5506     1.0  0.94494  0.80253  0.16785  1.0000
  C   C5507     1.0  0.75701  0.68797  0.17284  1.0000
  C   C5508     1.0  0.85850  0.54981  0.99779  1.0000
  H   H4394     1.0  0.98018  0.77611  0.08894  1.0000
  H   H4395     1.0  0.98335  0.65798  0.15296  1.0000
  C   C5509     1.0  0.94586  0.92316  0.15553  1.0000
  H   H4396     1.0  0.85605  0.58590  0.02087  1.0000
  H   H4397     1.0  0.85228  0.59016  0.99023  1.0000
  S   S753      1.0  0.92934  0.70339  0.15024  1.0000
  H   H4398     1.0  0.91993  0.74111  0.06916  1.0000
  H   H4399     1.0  0.88573  0.48137  0.04217  1.0000
  C   C5510     1.0  0.72679  0.52817  0.04312  1.0000
  C   C5511     1.0  0.95489  0.89107  0.15889  1.0000
  C   C5512     1.0  0.52037  0.95382  0.98431  1.0000
  H   H4400     1.0  0.83193  0.51727  0.99301  1.0000
  C   C5513     1.0  0.94334  0.88455  0.00416  1.0000
  C   C5514     1.0  0.91701  0.96440  0.03653  1.0000
  H   H4401     1.0  0.85240  0.85293  0.14979  1.0000
  H   H4402     1.0  0.71546  0.49882  0.04178  1.0000
  H   H4403     1.0  0.72382  0.55894  0.98025  1.0000
  C   C5515     1.0  0.96596  0.71350  0.07816  1.0000
  H   H4404     1.0  0.94180  0.74283  0.11564  1.0000
  C   C5516     1.0  0.94705  0.75461  0.11392  1.0000
  H   H4405     1.0  0.92974  0.60461  0.12135  1.0000
  C   C5517     1.0  0.90324  0.91823  0.12397  1.0000
  C   C5518     1.0  0.90832  0.91581  0.14014  1.0000
  C   C5519     1.0  0.90398  0.92996  0.14890  1.0000
  C   C5520     1.0  0.89474  0.94658  0.14147  1.0000
  C   C5521     1.0  0.88917  0.94899  0.12544  1.0000
  C   C5522     1.0  0.89381  0.93477  0.11656  1.0000
  C   C5523     1.0  0.90105  0.54832  0.98301  1.0000
  C   C5524     1.0  0.55208  0.48849  0.97976  1.0000
  C   C5525     1.0  0.93843  0.71592  0.06899  1.0000
  H   H4406     1.0  0.86549  0.55897  0.99953  1.0000
  H   H4407     1.0  0.63122  0.51846  0.14257  1.0000
  C   C5526     1.0  0.96811  0.67778  0.11479  1.0000
  C   C5527     1.0  0.66372  0.50348  0.98836  1.0000
  C   C5528     1.0  0.90878  0.66494  0.12690  1.0000
  H   H4408     1.0  0.90706  0.90746  0.11685  1.0000
  H   H4409     1.0  0.91619  0.90319  0.14560  1.0000
  C   C5529     1.0  0.67818  0.52915  0.10066  1.0000
  H   H4410     1.0  0.89230  0.95759  0.14806  1.0000
  H   H4411     1.0  0.89067  0.93653  0.10365  1.0000
  H   H4412     1.0  0.65254  0.49170  0.05795  1.0000
  H   H4413     1.0  0.62745  0.48611  0.08707  1.0000
  C   C5530     1.0  0.98019  0.59157  0.09991  1.0000
  C   C5531     1.0  0.81137  0.60520  0.99933  1.0000
  C   C5532     1.0  0.80185  0.59225  0.00022  1.0000
  C   C5533     1.0  0.87433  0.87728  0.14006  1.0000
  H   H4414     1.0  0.92666  0.76442  0.13503  1.0000
  C   C5534     1.0  0.90243  0.67273  0.14182  1.0000
  C   C5535     1.0  0.91514  0.51394  0.01135  1.0000
  P   P184      1.0  0.62563  0.48289  0.97842  1.0000
  C   C5536     1.0  0.96985  0.55087  0.06726  1.0000
  C   C5537     1.0  0.96399  0.54051  0.05891  1.0000
  P   P185      1.0  0.95421  0.56920  0.07588  1.0000
  C   C5538     1.0  0.96252  0.57475  0.09247  1.0000
  C   C5539     1.0  0.95159  0.58859  0.05808  1.0000
  C   C5540     1.0  0.94287  0.60537  0.06198  1.0000
  C   C5541     1.0  0.94139  0.62044  0.04822  1.0000
  C   C5542     1.0  0.94887  0.61896  0.03057  1.0000
  C   C5543     1.0  0.95741  0.60235  0.02660  1.0000
  C   C5544     1.0  0.95884  0.58723  0.04027  1.0000
  C   C5545     1.0  0.95852  0.56644  0.11050  1.0000
  H   H4415     1.0  0.98118  0.58691  0.12758  1.0000
  C   C5546     1.0  0.67029  0.50558  0.12558  1.0000
  H   H4416     1.0  0.66472  0.53312  0.12705  1.0000
  C   C5547     1.0  0.85806  0.52232  0.99031  1.0000
  C   C5548     1.0  0.93339  0.56197  0.08607  1.0000
  C   C5549     1.0  0.93351  0.54423  0.09512  1.0000
  C   C5550     1.0  0.91753  0.53819  0.10196  1.0000
  C   C5551     1.0  0.90129  0.54979  0.09987  1.0000
  C   C5552     1.0  0.90105  0.56749  0.09120  1.0000
  C   C5553     1.0  0.91700  0.57359  0.08442  1.0000
  C   C5554     1.0  0.68630  0.51665  0.08976  1.0000
  H   H4417     1.0  0.83405  0.94868  0.09858  1.0000
  C   C5555     1.0  0.94875  0.82835  0.14415  1.0000
  H   H4418     1.0  0.90711  0.96407  0.08423  1.0000
  H   H4419     1.0  0.95025  0.54354  0.05738  1.0000
  H   H4420     1.0  0.93719  0.60678  0.07562  1.0000
  H   H4421     1.0  0.93433  0.63329  0.05107  1.0000
  H   H4422     1.0  0.94782  0.63060  0.01990  1.0000
  H   H4423     1.0  0.96281  0.60113  0.01286  1.0000
  H   H4424     1.0  0.96555  0.57456  0.03675  1.0000
  H   H4425     1.0  0.95034  0.55655  0.11482  1.0000
  C   C5556     1.0  0.78426  0.60851  0.15123  1.0000
  C   C5557     1.0  0.71290  0.63658  0.16425  1.0000
  H   H4426     1.0  0.96820  0.63216  0.12389  1.0000
  H   H4427     1.0  0.81656  0.61282  0.98655  1.0000
  H   H4428     1.0  0.94601  0.53495  0.09651  1.0000
  H   H4429     1.0  0.91776  0.52440  0.10850  1.0000
  H   H4430     1.0  0.88891  0.54506  0.10472  1.0000
  H   H4431     1.0  0.88851  0.57652  0.08933  1.0000
  H   H4432     1.0  0.91642  0.58727  0.07751  1.0000
  H   H4433     1.0  0.75114  0.53357  0.02517  1.0000
  H   H4434     1.0  0.78763  0.64369  0.16211  1.0000
  H   H4435     1.0  0.96276  0.96622  0.11546  1.0000
  C   C5558     1.0  0.97528  0.97352  0.13284  1.0000
  C   C5559     1.0  0.54776  0.50317  0.98779  1.0000
  H   H4436     1.0  0.87875  0.62808  0.10625  1.0000
  H   H4437     1.0  0.62269  0.57913  0.98708  1.0000
  H   H4438     1.0  0.78496  0.51340  0.16478  1.0000
  H   H4439     1.0  0.70307  0.58410  0.00553  1.0000
  C   C5560     1.0  0.88400  0.91740  0.03817  1.0000
  C   C5561     1.0  0.65260  0.49216  0.98896  1.0000
  C   C5562     1.0  0.81268  0.72479  0.11178  1.0000
  C   C5563     1.0  0.94411  0.64143  0.08465  1.0000
  C   C5564     1.0  0.75149  0.66615  0.11090  1.0000
  C   C5565     1.0  0.75905  0.66611  0.09294  1.0000
  C   C5566     1.0  0.77684  0.66754  0.08627  1.0000
  C   C5567     1.0  0.78719  0.66878  0.09755  1.0000
  C   C5568     1.0  0.77957  0.66949  0.11547  1.0000
  C   C5569     1.0  0.76162  0.66804  0.12209  1.0000
  P   P186      1.0  0.79292  0.67173  0.12985  1.0000
  C   C5570     1.0  0.81150  0.65292  0.13182  1.0000
  C   C5571     1.0  0.80077  0.69250  0.12249  1.0000
  C   C5572     1.0  0.80724  0.69860  0.13425  1.0000
  H   H4440     1.0  0.98100  0.81399  0.07198  1.0000
  S   S754      1.0  0.98843  0.86033  0.04413  1.0000
  C   C5573     1.0  0.80584  0.71914  0.10014  1.0000
  C   C5574     1.0  0.79998  0.70307  0.10541  1.0000
  C   C5575     1.0  0.81300  0.63811  0.12455  1.0000
  C   C5576     1.0  0.82636  0.62294  0.12770  1.0000
  H   H4441     1.0  0.88435  0.89929  0.17466  1.0000
  C   C5577     1.0  0.94854  0.73378  0.16254  1.0000
  C   C5578     1.0  0.82373  0.65224  0.14213  1.0000
  C   C5579     1.0  0.77918  0.67191  0.15187  1.0000
  C   C5580     1.0  0.74483  0.52901  0.03887  1.0000
  H   H4442     1.0  0.94341  0.83917  0.13423  1.0000
  H   H4443     1.0  0.90933  0.78536  0.15793  1.0000
  H   H4444     1.0  0.68660  0.58806  0.06051  1.0000
  C   C5581     1.0  0.52657  0.48920  0.01147  1.0000
  H   H4445     1.0  0.73778  0.66466  0.11611  1.0000
  H   H4446     1.0  0.75117  0.66479  0.08423  1.0000
  H   H4447     1.0  0.78268  0.66764  0.07232  1.0000
  H   H4448     1.0  0.80113  0.66933  0.09225  1.0000
  H   H4449     1.0  0.75538  0.66814  0.13590  1.0000
  C   C5582     1.0  0.88845  0.50189  0.01845  1.0000
  C   C5583     1.0  0.87952  0.65528  0.15269  1.0000
  C   C5584     1.0  0.87030  0.90461  0.17473  1.0000
  H   H4450     1.0  0.80564  0.72692  0.08678  1.0000
  H   H4451     1.0  0.79507  0.69907  0.09591  1.0000
  H   H4452     1.0  0.80386  0.63799  0.11658  1.0000
  H   H4453     1.0  0.82733  0.61158  0.12207  1.0000
  H   H4454     1.0  0.83573  0.97705  0.17163  1.0000
  C   C5585     1.0  0.83028  0.54209  0.00007  1.0000
  C   C5586     1.0  0.68669  0.49852  0.09718  1.0000
  C   C5587     1.0  0.62878  0.50542  0.17027  1.0000
  C   C5588     1.0  0.55755  0.55944  0.97912  1.0000
  C   C5589     1.0  0.63580  0.61412  0.98059  1.0000
  H   H4455     1.0  0.87091  0.59860  0.11536  1.0000
  H   H4456     1.0  0.98617  0.69938  0.14401  1.0000
  C   C5590     1.0  0.72842  0.51724  0.07425  1.0000
  C   C5591     1.0  0.96515  0.57088  0.12316  1.0000
  H   H4457     1.0  0.93296  0.50295  0.02960  1.0000
  H   H4458     1.0  0.77441  0.62934  0.99389  1.0000
  H   H4459     1.0  0.83249  0.97183  0.07084  1.0000
  C   C5592     1.0  0.83984  0.55374  0.00191  1.0000
  P   P187      1.0  0.90010  0.92627  0.00229  1.0000
  C   C5593     1.0  0.86980  0.60884  0.97888  1.0000
  C   C5594     1.0  0.98160  0.71799  0.11979  1.0000
  H   H4460     1.0  0.95229  0.72136  0.15796  1.0000
  H   H4461     1.0  0.69556  0.48179  0.14539  1.0000
  C   C5595     1.0  0.95518  0.76170  0.16306  1.0000
  C   C5596     1.0  0.67103  0.50600  0.06066  1.0000
  C   C5597     1.0  0.92003  0.91088  0.00792  1.0000
  C   C5598     1.0  0.92831  0.89669  0.99914  1.0000
  H   H4462     1.0  0.63432  0.60858  0.99477  1.0000
  C   C5599     1.0  0.95020  0.88648  0.01793  1.0000
  C   C5600     1.0  0.94211  0.90061  0.02664  1.0000
  C   C5601     1.0  0.92712  0.91277  0.02163  1.0000
  H   H4463     1.0  0.56159  0.50409  0.02744  1.0000
  C   C5602     1.0  0.90997  0.49082  0.03761  1.0000
  C   C5603     1.0  0.95506  0.70602  0.07214  1.0000
  C   C5604     1.0  0.92279  0.86081  0.16587  1.0000
  C   C5605     1.0  0.70249  0.66477  0.14520  1.0000
  C   C5606     1.0  0.88980  0.91672  0.99023  1.0000
  C   C5607     1.0  0.69423  0.63803  0.14381  1.0000
  C   C5608     1.0  0.90102  0.79261  0.16799  1.0000
  H   H4464     1.0  0.66453  0.50120  0.13948  1.0000
  C   C5609     1.0  0.92057  0.95254  0.98938  1.0000
  C   C5610     1.0  0.88011  0.61864  0.98296  1.0000
  H   H4465     1.0  0.85897  0.96004  0.15163  1.0000
  P   P188      1.0  0.69476  0.52333  0.06610  1.0000
  H   H4466     1.0  0.94732  0.90198  0.03745  1.0000
  H   H4467     1.0  0.98875  0.60119  0.09564  1.0000
  C   C5611     1.0  0.93839  0.76677  0.12495  1.0000
  H   H4468     1.0  0.91996  0.66913  0.11696  1.0000
  S   S755      1.0  0.96007  0.56961  0.98287  1.0000
  C   C5612     1.0  0.57424  0.55778  0.98304  1.0000
  C   C5613     1.0  0.87600  0.90758  0.99919  1.0000
  H   H4469     1.0  0.59376  0.48511  0.13873  1.0000
  P   P189      1.0  0.87898  0.97085  0.11491  1.0000
  C   C5614     1.0  0.75874  0.51197  0.16306  1.0000
  H   H4470     1.0  0.57998  0.52606  0.00996  1.0000
  C   C5615     1.0  0.89981  0.55684  0.99688  1.0000
  H   H4471     1.0  0.65871  0.57230  0.02943  1.0000
  H   H4472     1.0  0.67103  0.54085  0.04071  1.0000
  C   C5616     1.0  0.94319  0.63478  0.11639  1.0000
  H   H4473     1.0  0.82300  0.66331  0.14796  1.0000
  H   H4474     1.0  0.94959  0.87349  0.99753  1.0000
  H   H4475     1.0  0.93903  0.75439  0.07984  1.0000
  C   C5617     1.0  0.90488  0.61859  0.11311  1.0000
  C   C5618     1.0  0.87358  0.60429  0.01407  1.0000
  P   P190      1.0  0.91043  0.64033  0.10675  1.0000
  C   C5619     1.0  0.93814  0.81646  0.15488  1.0000
  C   C5620     1.0  0.49314  0.93439  0.05329  1.0000
  S   S756      1.0  0.85277  0.76004  0.16650  1.0000
  C   C5621     1.0  0.90735  0.57172  0.99353  1.0000
  H   H4476     1.0  0.76860  0.52505  0.04894  1.0000
  H   H4477     1.0  0.89327  0.55184  0.01038  1.0000
  C   C5622     1.0  0.97347  0.58727  0.08729  1.0000
  H   H4478     1.0  0.87710  0.79514  0.15862  1.0000
  C   C5623     1.0  0.57634  0.50289  0.10072  1.0000
  C   C5624     1.0  0.88783  0.66791  0.15472  1.0000
  H   H4479     1.0  0.61338  0.51565  0.07291  1.0000
  H   H4480     1.0  0.89768  0.67868  0.09389  1.0000
  H   H4481     1.0  0.95586  0.67756  0.16543  1.0000
  C   C5625     1.0  0.94479  0.78206  0.12302  1.0000
  H   H4482     1.0  0.96198  0.56449  0.13706  1.0000
  C   C5626     1.0  0.90535  0.94703  0.98867  1.0000
  S   S757      1.0  0.78366  0.53056  0.99565  1.0000
  H   H4483     1.0  0.50234  0.93914  0.05806  1.0000
  H   H4484     1.0  0.79977  0.58994  0.98816  1.0000
  C   C5627     1.0  0.81337  0.71452  0.12883  1.0000
  C   C5628     1.0  0.68874  0.50832  0.05607  1.0000
  C   C5629     1.0  0.96614  0.82642  0.14623  1.0000
  C   C5630     1.0  0.90900  0.97532  0.08834  1.0000
  C   C5631     1.0  0.91190  0.58701  0.12597  1.0000
  S   S758      1.0  0.87916  0.71508  0.15057  1.0000
  H   H4485     1.0  0.86484  0.90597  0.13542  1.0000
  C   C5632     1.0  0.96147  0.63439  0.11299  1.0000
  H   H4486     1.0  0.92105  0.57549  0.13150  1.0000
  C   C5633     1.0  0.58429  0.48599  0.10902  1.0000
  C   C5634     1.0  0.89987  0.64411  0.07477  1.0000
  C   C5635     1.0  0.89238  0.65373  0.06012  1.0000
  C   C5636     1.0  0.88705  0.67222  0.05758  1.0000
  C   C5637     1.0  0.88945  0.68112  0.06957  1.0000
  C   C5638     1.0  0.67050  0.52354  0.11858  1.0000
  H   H4487     1.0  0.90392  0.62979  0.07637  1.0000
  H   H4488     1.0  0.89041  0.64678  0.05090  1.0000
  H   H4489     1.0  0.88078  0.67964  0.04650  1.0000
  H   H4490     1.0  0.88518  0.69545  0.06766  1.0000
  C   C5639     1.0  0.58393  0.51247  0.00803  1.0000
  H   H4491     1.0  0.83349  0.89533  0.16729  1.0000
  H   H4492     1.0  0.92471  0.81824  0.15292  1.0000
  C   C5640     1.0  0.86784  0.53411  0.99182  1.0000
  H   H4493     1.0  0.75416  0.51437  0.08026  1.0000
  H   H4494     1.0  0.97692  0.59369  0.07343  1.0000
  C   C5641     1.0  0.90667  0.86731  0.16004  1.0000
  H   H4495     1.0  0.50831  0.95284  0.99442  1.0000
  C   C5642     1.0  0.94354  0.74079  0.07798  1.0000
  H   H4496     1.0  0.70472  0.61397  0.16065  1.0000
  C   C5643     1.0  0.95973  0.78540  0.10988  1.0000
  C   C5644     1.0  0.97590  0.52633  0.05211  1.0000
  C   C5645     1.0  0.73540  0.48206  0.11640  1.0000
  H   H4497     1.0  0.90689  0.87490  0.14658  1.0000
  H   H4498     1.0  0.77842  0.64471  0.04046  1.0000
  C   C5646     1.0  0.93277  0.73335  0.07174  1.0000
  H   H4499     1.0  0.87603  0.50132  0.01560  1.0000
  H   H4500     1.0  0.93516  0.86337  0.15691  1.0000
  H   H4501     1.0  0.75623  0.62707  0.05895  1.0000
  H   H4502     1.0  0.92362  0.52290  0.00295  1.0000
  C   C5647     1.0  0.69673  0.48517  0.03882  1.0000
  H   H4503     1.0  0.60760  0.51691  0.98866  1.0000
  H   H4504     1.0  0.90632  0.57823  0.00426  1.0000
  C   C5648     1.0  0.83710  0.63709  0.14518  1.0000
  H   H4505     1.0  0.81781  0.73693  0.10746  1.0000
  C   C5649     1.0  0.87211  0.94690  0.02260  1.0000
  H   H4506     1.0  0.81903  0.71875  0.13771  1.0000
  C   C5650     1.0  0.89051  0.86422  0.17155  1.0000
  H   H4507     1.0  0.70196  0.67893  0.14066  1.0000
  C   C5651     1.0  0.75467  0.52410  0.05226  1.0000
  C   C5652     1.0  0.86839  0.89987  0.98980  1.0000
  S   S759      1.0  0.73822  0.52193  0.99373  1.0000
  C   C5653     1.0  0.70742  0.48646  0.13759  1.0000
  H   H4508     1.0  0.51675  0.48949  0.02381  1.0000
  H   H4509     1.0  0.77606  0.62729  0.12847  1.0000
  H   H4510     1.0  0.75833  0.52224  0.15104  1.0000
  Fe  Fe380     1.0  0.96062  0.54599  0.00546  1.0000
  C   C5654     1.0  0.68340  0.57770  0.05608  1.0000
  H   H4511     1.0  0.88988  0.62391  0.00369  1.0000
  H   H4512     1.0  0.87291  0.91026  0.10275  1.0000
  C   C5655     1.0  0.59964  0.50725  0.99602  1.0000
  H   H4513     1.0  0.59332  0.48621  0.16942  1.0000
  C   C5656     1.0  0.71623  0.53420  0.99436  1.0000
  C   C5657     1.0  0.89526  0.58527  0.12454  1.0000
  C   C5658     1.0  0.91666  0.57790  0.97649  1.0000
  S   S760      1.0  0.93839  0.94239  0.16471  1.0000
  C   C5659     1.0  0.87146  0.92040  0.05365  1.0000
  H   H4514     1.0  0.97421  0.83574  0.13789  1.0000
  C   C5660     1.0  0.97471  0.66651  0.14424  1.0000
  S   S761      1.0  0.65909  0.56598  0.99590  1.0000
  H   H4515     1.0  0.97275  0.74245  0.14818  1.0000
  C   C5661     1.0  0.89658  0.67152  0.08446  1.0000
  H   H4516     1.0  0.96171  0.87695  0.02199  1.0000
  C   C5662     1.0  0.53412  0.95987  0.98743  1.0000
  C   C5663     1.0  0.96244  0.80068  0.16993  1.0000
  C   C5664     1.0  0.96863  0.77317  0.09896  1.0000
  H   H4517     1.0  0.66665  0.59601  0.03900  1.0000
  C   C5665     1.0  0.84286  0.95803  0.09444  1.0000
  C   C5666     1.0  0.74429  0.50358  0.17062  1.0000
  H   H4518     1.0  0.93592  0.63262  0.13007  1.0000
  H   H4519     1.0  0.72221  0.51292  0.08803  1.0000
  H   H4520     1.0  0.85012  0.96240  0.03807  1.0000
  C   C5667     1.0  0.71846  0.52229  0.06084  1.0000
  C   C5668     1.0  0.70163  0.49766  0.04525  1.0000
  C   C5669     1.0  0.77212  0.62163  0.14250  1.0000
  H   H4521     1.0  0.93782  0.79162  0.13137  1.0000
  C   C5670     1.0  0.75460  0.62675  0.15149  1.0000
  C   C5671     1.0  0.85952  0.94980  0.03810  1.0000
  H   H4522     1.0  0.68599  0.66379  0.12786  1.0000
  Fe  Fe381     1.0  0.87081  0.74463  0.14610  1.0000
  C   C5672     1.0  0.86320  0.59463  0.01019  1.0000
  C   C5673     1.0  0.62833  0.53684  0.15937  1.0000
  H   H4523     1.0  0.96410  0.79770  0.10800  1.0000
  C   C5674     1.0  0.89395  0.49046  0.03356  1.0000
  C   C5675     1.0  0.96013  0.73084  0.08142  1.0000
  C   C5676     1.0  0.57879  0.48252  0.01557  1.0000
  H   H4524     1.0  0.90839  0.92823  0.16115  1.0000
  H   H4525     1.0  0.92913  0.94484  0.99849  1.0000
  C   C5677     1.0  0.70339  0.60521  0.01776  1.0000
  C   C5678     1.0  0.70951  0.58829  0.01375  1.0000
  C   C5679     1.0  0.72388  0.57668  0.02046  1.0000
  C   C5680     1.0  0.73222  0.58197  0.03116  1.0000
  C   C5681     1.0  0.72565  0.59866  0.03592  1.0000
  C   C5682     1.0  0.71141  0.61039  0.02882  1.0000
  P   P191      1.0  0.73583  0.60553  0.05025  1.0000
  C   C5683     1.0  0.71789  0.61920  0.06322  1.0000
  C   C5684     1.0  0.74511  0.58633  0.06572  1.0000
  C   C5685     1.0  0.73667  0.57173  0.07235  1.0000
  C   C5686     1.0  0.74332  0.55717  0.08478  1.0000
  C   C5687     1.0  0.75840  0.55704  0.09082  1.0000
  C   C5688     1.0  0.76702  0.57136  0.08421  1.0000
  C   C5689     1.0  0.76042  0.58594  0.07175  1.0000
  C   C5690     1.0  0.71672  0.63759  0.06081  1.0000
  C   C5691     1.0  0.70257  0.64784  0.07089  1.0000
  C   C5692     1.0  0.68927  0.63991  0.08313  1.0000
  C   C5693     1.0  0.68994  0.62182  0.08507  1.0000
  C   C5694     1.0  0.70412  0.61155  0.07511  1.0000
  C   C5695     1.0  0.75256  0.61799  0.03691  1.0000
  C   C5696     1.0  0.75788  0.61871  0.01847  1.0000
  C   C5697     1.0  0.77003  0.62919  0.00802  1.0000
  C   C5698     1.0  0.77721  0.63875  0.01592  1.0000
  C   C5699     1.0  0.77234  0.63778  0.03430  1.0000
  C   C5700     1.0  0.76001  0.62752  0.04475  1.0000
  H   H4526     1.0  0.69224  0.61417  0.01254  1.0000
  C   C5701     1.0  0.92229  0.55910  0.03353  1.0000
  H   H4527     1.0  0.72860  0.56359  0.01729  1.0000
  H   H4528     1.0  0.74368  0.57295  0.03581  1.0000
  H   H4529     1.0  0.70640  0.62350  0.03193  1.0000
  H   H4530     1.0  0.72475  0.57165  0.06820  1.0000
  H   H4531     1.0  0.73646  0.54620  0.09019  1.0000
  H   H4532     1.0  0.76322  0.54592  0.10079  1.0000
  H   H4533     1.0  0.77871  0.57133  0.08891  1.0000
  H   H4534     1.0  0.76741  0.59676  0.06703  1.0000
  H   H4535     1.0  0.72650  0.64420  0.05111  1.0000
  H   H4536     1.0  0.70194  0.66191  0.06924  1.0000
  H   H4537     1.0  0.67840  0.64774  0.09110  1.0000
  H   H4538     1.0  0.67956  0.61566  0.09444  1.0000
  H   H4539     1.0  0.70423  0.59765  0.07664  1.0000
  H   H4540     1.0  0.75295  0.61098  0.01213  1.0000
  C   C5702     1.0  0.92057  0.50251  0.02647  1.0000
  Fe  Fe382     1.0  0.78052  0.55979  0.99353  1.0000
  H   H4541     1.0  0.74534  0.63628  0.14405  1.0000
  C   C5703     1.0  0.90549  0.55809  0.04463  1.0000
  H   H4542     1.0  0.93759  0.64464  0.07353  1.0000
  H   H4543     1.0  0.88622  0.84952  0.13950  1.0000
  H   H4544     1.0  0.81886  0.98053  0.03445  1.0000
  H   H4545     1.0  0.87460  0.60290  0.02769  1.0000
  H   H4546     1.0  0.92084  0.92356  0.02859  1.0000
  H   H4547     1.0  0.90869  0.68272  0.14323  1.0000
  H   H4548     1.0  0.89160  0.57238  0.12884  1.0000
  H   H4549     1.0  0.97007  0.64266  0.06770  1.0000
  H   H4550     1.0  0.67753  0.54322  0.09551  1.0000
  C   C5704     1.0  0.96248  0.64060  0.08130  1.0000
  C   C5705     1.0  0.73866  0.49789  0.11826  1.0000
  C   C5706     1.0  0.66760  0.56882  0.03865  1.0000
  C   C5707     1.0  0.74651  0.51810  0.06991  1.0000
  C   C5708     1.0  0.88674  0.86539  0.11311  1.0000
  C   C5709     1.0  0.88269  0.86281  0.13169  1.0000
  H   H4551     1.0  0.84943  0.93874  0.06559  1.0000
  C   C5710     1.0  0.68092  0.55357  0.99594  1.0000
  P   P192      1.0  0.89206  0.52850  0.98758  1.0000
  C   C5711     1.0  0.53498  0.50357  0.00360  1.0000
  C   C5712     1.0  0.85473  0.95744  0.10502  1.0000
  C   C5713     1.0  0.91677  0.60358  0.12018  1.0000
  C   C5714     1.0  0.67433  0.55095  0.04537  1.0000
  C   C5715     1.0  0.96086  0.97369  0.12569  1.0000
  C   C5716     1.0  0.97107  0.63732  0.09546  1.0000
  C   C5717     1.0  0.94809  0.90622  0.16650  1.0000
  C   C5718     1.0  0.97300  0.81260  0.15913  1.0000
  H   H4552     1.0  0.69279  0.57611  0.98204  1.0000
  C   C5719     1.0  0.88446  0.93064  0.02251  1.0000
  C   C5720     1.0  0.58684  0.51363  0.08779  1.0000
  H   H4553     1.0  0.76720  0.69997  0.14581  1.0000
  S   S762      1.0  0.93637  0.54013  0.02644  1.0000
  C   C5721     1.0  0.62959  0.52007  0.15610  1.0000
  C   C5722     1.0  0.96014  0.74559  0.15722  1.0000
  H   H4554     1.0  0.85768  0.89292  0.99678  1.0000
  C   C5723     1.0  0.90165  0.65290  0.08729  1.0000
  H   H4555     1.0  0.87106  0.90637  0.01340  1.0000
  C   C5724     1.0  0.88820  0.61669  0.11164  1.0000
  C   C5725     1.0  0.88601  0.64723  0.13790  1.0000
  H   H4556     1.0  0.97188  0.75156  0.05015  1.0000
  H   H4557     1.0  0.87935  0.63756  0.13655  1.0000
  C   C5726     1.0  0.88355  0.60004  0.11710  1.0000
  H   H4558     1.0  0.68760  0.63139  0.13792  1.0000
  Fe  Fe383     1.0  0.75963  0.53816  0.98336  1.0000
  H   H4559     1.0  0.97894  0.70573  0.08017  1.0000
  C   C5727     1.0  0.87514  0.89697  0.11089  1.0000
  H   H4560     1.0  0.83276  0.56575  0.00676  1.0000
  C   C5728     1.0  0.60520  0.50734  0.08290  1.0000
  H   H4561     1.0  0.80756  0.69116  0.14767  1.0000
  H   H4562     1.0  0.58083  0.52692  0.08164  1.0000
  S   S763      1.0  0.75513  0.56714  0.98346  1.0000
  C   C5729     1.0  0.93430  0.63860  0.10222  1.0000
  H   H4563     1.0  0.97129  0.51863  0.04540  1.0000
  C   C5730     1.0  0.88315  0.88246  0.10272  1.0000
  H   H4564     1.0  0.88704  0.88447  0.08833  1.0000
  C   C5731     1.0  0.90085  0.65184  0.12499  1.0000
  H   H4565     1.0  0.87147  0.91026  0.06574  1.0000
  H   H4566     1.0  0.92993  0.71016  0.06436  1.0000
  S   S764      1.0  0.63101  0.48894  0.03490  1.0000
  H   H4567     1.0  0.87208  0.95738  0.01077  1.0000
  C   C5732     1.0  0.71226  0.65495  0.15817  1.0000
  S   S765      1.0  0.97467  0.52602  0.98830  1.0000
  C   C5733     1.0  0.67213  0.58219  0.04398  1.0000
  C   C5734     1.0  0.70404  0.62815  0.15674  1.0000
  H   H4568     1.0  0.96421  0.77078  0.15841  1.0000
  C   C5735     1.0  0.98874  0.75086  0.06808  1.0000
  C   C5736     1.0  0.69345  0.65630  0.13804  1.0000
  H   H4569     1.0  0.96848  0.72413  0.12611  1.0000
  H   H4570     1.0  0.95956  0.69256  0.06986  1.0000
  C   C5737     1.0  0.89404  0.95800  0.97736  1.0000
  H   H4571     1.0  0.86788  0.65200  0.16243  1.0000
  H   H4572     1.0  0.62898  0.54822  0.14840  1.0000
  H   H4573     1.0  0.53173  0.51501  0.00976  1.0000
  Fe  Fe384     1.0  0.98660  0.57098  0.98710  1.0000
  H   H4574     1.0  0.92314  0.89479  0.98859  1.0000
  H   H4575     1.0  0.98643  0.81125  0.16083  1.0000
  C   C5738     1.0  0.83838  0.62242  0.13802  1.0000
  C   C5739     1.0  0.76778  0.68777  0.15585  1.0000
  C   C5740     1.0  0.84717  0.85170  0.16393  1.0000
  C   C5741     1.0  0.89889  0.51392  0.00733  1.0000
  H   H4576     1.0  0.84645  0.63677  0.15312  1.0000
  H   H4577     1.0  0.60814  0.93050  0.98513  1.0000
  H   H4578     1.0  0.79759  0.60401  0.14391  1.0000
  C   C5742     1.0  0.85323  0.86003  0.17419  1.0000
  C   C5743     1.0  0.97948  0.66678  0.12597  1.0000
  C   C5744     1.0  0.66623  0.49341  0.05435  1.0000
  C   C5745     1.0  0.88277  0.79836  0.16816  1.0000
  P   P193      1.0  0.86964  0.87384  0.16413  1.0000
  H   H4579     1.0  0.78716  0.64630  0.00792  1.0000
  C   C5746     1.0  0.86119  0.59700  0.99270  1.0000
  C   C5747     1.0  0.83393  0.84173  0.17189  1.0000
  H   H4580     1.0  0.82943  0.83524  0.16391  1.0000
  H   H4581     1.0  0.88269  0.67434  0.16602  1.0000
  C   C5748     1.0  0.77933  0.65619  0.16497  1.0000
  H   H4582     1.0  0.73304  0.50736  0.16413  1.0000
  H   H4583     1.0  0.93613  0.97289  0.97959  1.0000
  C   C5749     1.0  0.67832  0.49310  0.11484  1.0000
  H   H4584     1.0  0.82375  0.97515  0.98871  1.0000
  S   S766      1.0  0.98557  0.54916  0.01142  1.0000
  H   H4585     1.0  0.63011  0.49231  0.16776  1.0000
  H   H4586     1.0  0.69334  0.48850  0.08929  1.0000
  H   H4587     1.0  0.84863  0.61063  0.14051  1.0000
  H   H4588     1.0  0.95713  0.87803  0.16742  1.0000
  C   C5750     1.0  0.97597  0.58346  0.11785  1.0000
  H   H4589     1.0  0.59318  0.59609  0.98106  1.0000
  C   C5751     1.0  0.98795  0.54723  0.06811  1.0000
  C   C5752     1.0  0.85989  0.89504  0.17053  1.0000
  H   H4590     1.0  0.98519  0.63706  0.09290  1.0000
  H   H4591     1.0  0.71940  0.66166  0.16343  1.0000
  C   C5753     1.0  0.71287  0.55237  0.98689  1.0000
  C   C5754     1.0  0.77373  0.50694  0.17078  1.0000
  H   H4592     1.0  0.66255  0.52173  0.17452  1.0000
  C   C5755     1.0  0.98822  0.72351  0.10151  1.0000
  H   H4593     1.0  0.67223  0.50006  0.99797  1.0000
  H   H4594     1.0  0.66956  0.48916  0.17560  1.0000
  C   C5756     1.0  0.92468  0.96846  0.97856  1.0000
  H   H4595     1.0  0.73148  0.59079  0.16876  1.0000
  H   H4596     1.0  0.67359  0.60960  0.17263  1.0000
  H   H4597     1.0  0.55445  0.51423  0.98177  1.0000
  H   H4598     1.0  0.60824  0.62740  0.98243  1.0000
  C   C5757     1.0  0.77897  0.60070  0.16913  1.0000
  H   H4599     1.0  0.84439  0.64003  0.97699  1.0000
  H   H4600     1.0  0.81420  0.65826  0.97746  1.0000
  C   C5758     1.0  0.49290  0.93865  0.03516  1.0000
  H   H4601     1.0  0.91418  0.48208  0.04938  1.0000
  H   H4602     1.0  0.93241  0.97822  0.06776  1.0000
  C   C5759     1.0  0.74907  0.61889  0.16946  1.0000
  C   C5760     1.0  0.84171  0.90241  0.17069  1.0000
  C   C5761     1.0  0.93850  0.76607  0.17430  1.0000
  H   H4603     1.0  0.81998  0.92460  0.17539  1.0000
  H   H4604     1.0  0.98837  0.96594  0.12807  1.0000
  C   C5762     1.0  0.64101  0.49677  0.97702  1.0000
  C   C5763     1.0  0.83402  0.91902  0.17516  1.0000
  H   H4605     1.0  0.70063  0.63325  0.97668  1.0000
  H   H4606     1.0  0.78832  0.59028  0.17578  1.0000
  H   H4607     1.0  0.55955  0.96709  0.97658  1.0000
  H   H4608     1.0  0.74831  0.70027  0.17588  1.0000
  C   C5764     1.0  0.58029  0.62082  0.31729  1.0000
  S   S767      1.0  0.72443  0.77086  0.32521  1.0000
  Fe  Fe385     1.0  0.71531  0.72437  0.32685  1.0000
  S   S768      1.0  0.71840  0.74507  0.30174  1.0000
  S   S769      1.0  0.70677  0.69835  0.32982  1.0000
  Fe  Fe386     1.0  0.74128  0.74953  0.31077  1.0000
  S   S770      1.0  0.76594  0.75408  0.28983  1.0000
  Fe  Fe387     1.0  0.70128  0.76458  0.31846  1.0000
  S   S771      1.0  0.68087  0.78613  0.30588  1.0000
  S   S772      1.0  0.73972  0.72704  0.33470  1.0000
  C   C5765     1.0  0.56486  0.60687  0.27118  1.0000
  H   H4609     1.0  0.49011  0.61482  0.35314  1.0000
  C   C5766     1.0  0.56837  0.48927  0.33198  1.0000
  C   C5767     1.0  0.57456  0.49507  0.34402  1.0000
  S   S773      1.0  0.56064  0.81306  0.36046  1.0000
  Fe  Fe388     1.0  0.86446  0.81490  0.25020  1.0000
  S   S774      1.0  0.89184  0.79839  0.24340  1.0000
  S   S775      1.0  0.85740  0.84316  0.23540  1.0000
  Fe  Fe389     1.0  0.85184  0.78605  0.28070  1.0000
  S   S776      1.0  0.87847  0.76731  0.27662  1.0000
  S   S777      1.0  0.83019  0.77829  0.30433  1.0000
  Fe  Fe390     1.0  0.89029  0.79102  0.27293  1.0000
  S   S778      1.0  0.91450  0.79013  0.28341  1.0000
  Fe  Fe391     1.0  0.87773  0.77615  0.24754  1.0000
  S   S779      1.0  0.88837  0.75513  0.23084  1.0000
  S   S780      1.0  0.86381  0.80920  0.27943  1.0000
  S   S781      1.0  0.85017  0.79332  0.25177  1.0000
  H   H4610     1.0  0.85752  0.81133  0.18163  1.0000
  H   H4611     1.0  0.93044  0.87866  0.31302  1.0000
  S   S782      1.0  0.89646  0.80358  0.36183  1.0000
  C   C5768     1.0  0.49493  0.64144  0.34811  1.0000
  S   S783      1.0  0.93879  0.87402  0.34727  1.0000
  H   H4612     1.0  0.66258  0.57671  0.22467  1.0000
  Fe  Fe392     1.0  0.50640  0.54259  0.36400  1.0000
  S   S784      1.0  0.50541  0.56952  0.36879  1.0000
  Fe  Fe393     1.0  0.92785  0.85163  0.36720  1.0000
  C   C5769     1.0  0.62122  0.57996  0.20873  1.0000
  H   H4613     1.0  0.72476  0.49037  0.25431  1.0000
  S   S785      1.0  0.90811  0.97384  0.24191  1.0000
  H   H4614     1.0  0.73437  0.61469  0.30144  1.0000
  H   H4615     1.0  0.82070  0.79668  0.22967  1.0000
  H   H4616     1.0  0.92128  0.89489  0.27288  1.0000
  S   S786      1.0  0.63937  0.53176  0.28102  1.0000
  C   C5770     1.0  0.91418  0.93787  0.29041  1.0000
  Fe  Fe394     1.0  0.67352  0.63232  0.24990  1.0000
  S   S787      1.0  0.65823  0.61674  0.27395  1.0000
  S   S788      1.0  0.66712  0.63789  0.22258  1.0000
  Fe  Fe395     1.0  0.69710  0.63955  0.27117  1.0000
  S   S789      1.0  0.68418  0.62374  0.29667  1.0000
  S   S790      1.0  0.71853  0.65430  0.26999  1.0000
  Fe  Fe396     1.0  0.68507  0.60395  0.28056  1.0000
  S   S791      1.0  0.69183  0.57438  0.29179  1.0000
  Fe  Fe397     1.0  0.65864  0.63772  0.28787  1.0000
  S   S792      1.0  0.63558  0.64848  0.30815  1.0000
  S   S793      1.0  0.70061  0.61835  0.25557  1.0000
  S   S794      1.0  0.67135  0.65484  0.26322  1.0000
  H   H4617     1.0  0.66172  0.60179  0.23844  1.0000
  H   H4618     1.0  0.59202  0.49372  0.27064  1.0000
  S   S795      1.0  0.97128  0.96086  0.28193  1.0000
  Fe  Fe398     1.0  0.52774  0.72960  0.31080  1.0000
  S   S796      1.0  0.53472  0.73001  0.28150  1.0000
  S   S797      1.0  0.53228  0.75420  0.31681  1.0000
  Fe  Fe399     1.0  0.51381  0.69540  0.31895  1.0000
  S   S798      1.0  0.51976  0.69342  0.29019  1.0000
  S   S799      1.0  0.50106  0.67540  0.34121  1.0000
  Fe  Fe400     1.0  0.54545  0.70091  0.28911  1.0000
  S   S800      1.0  0.57052  0.68922  0.27155  1.0000
  Fe  Fe401     1.0  0.50856  0.72263  0.28517  1.0000
  C   C5771     1.0  0.49691  0.88026  0.30555  1.0000
  S   S801      1.0  0.54049  0.70079  0.31832  1.0000
  S   S802      1.0  0.50042  0.72442  0.31398  1.0000
  C   C5772     1.0  0.96725  0.89958  0.22810  1.0000
  S   S803      1.0  0.89940  0.92302  0.19969  1.0000
  Fe  Fe402     1.0  0.90799  0.95412  0.22594  1.0000
  S   S804      1.0  0.88614  0.93884  0.23644  1.0000
  H   H4619     1.0  0.84959  0.72154  0.18085  1.0000
  Fe  Fe403     1.0  0.90624  0.91617  0.22663  1.0000
  S   S805      1.0  0.90896  0.88842  0.24332  1.0000
  Fe  Fe404     1.0  0.88106  0.94716  0.20878  1.0000
  S   S806      1.0  0.85264  0.95663  0.20537  1.0000
  S   S807      1.0  0.92890  0.93069  0.21833  1.0000
  S   S808      1.0  0.90141  0.96406  0.19878  1.0000
  C   C5773     1.0  0.83259  0.84816  0.20042  1.0000
  H   H4620     1.0  0.50266  0.92658  0.36013  1.0000
  C   C5774     1.0  0.60289  0.63330  0.25762  1.0000
  C   C5775     1.0  0.94070  0.95635  0.25022  1.0000
  H   H4621     1.0  0.67244  0.63474  0.18637  1.0000
  C   C5776     1.0  0.67141  0.81168  0.36999  1.0000
  H   H4622     1.0  0.72382  0.56167  0.18413  1.0000
  H   H4623     1.0  0.94208  0.94872  0.24032  1.0000
  C   C5777     1.0  0.50400  0.77657  0.26437  1.0000
  C   C5778     1.0  0.91963  0.90693  0.27761  1.0000
  C   C5779     1.0  0.84670  0.92798  0.25735  1.0000
  C   C5780     1.0  0.97733  0.84939  0.37252  1.0000
  C   C5781     1.0  0.61762  0.66007  0.29795  1.0000
  C   C5782     1.0  0.61885  0.66086  0.27989  1.0000
  C   C5783     1.0  0.60438  0.67008  0.27184  1.0000
  C   C5784     1.0  0.58868  0.67852  0.28181  1.0000
  C   C5785     1.0  0.58765  0.67810  0.29976  1.0000
  C   C5786     1.0  0.60205  0.66876  0.30788  1.0000
  H   H4624     1.0  0.63091  0.65432  0.27211  1.0000
  H   H4625     1.0  0.60531  0.67060  0.25788  1.0000
  H   H4626     1.0  0.57576  0.68483  0.30743  1.0000
  H   H4627     1.0  0.60114  0.66832  0.32181  1.0000
  C   C5787     1.0  0.65514  0.54257  0.28340  1.0000
  C   C5788     1.0  0.66535  0.53540  0.29653  1.0000
  C   C5789     1.0  0.67680  0.54511  0.29892  1.0000
  C   C5790     1.0  0.67811  0.56196  0.28814  1.0000
  C   C5791     1.0  0.66839  0.56876  0.27460  1.0000
  C   C5792     1.0  0.65702  0.55906  0.27220  1.0000
  H   H4628     1.0  0.66421  0.52252  0.30497  1.0000
  H   H4629     1.0  0.68448  0.53967  0.30924  1.0000
  H   H4630     1.0  0.66978  0.58141  0.26584  1.0000
  H   H4631     1.0  0.64959  0.56441  0.26167  1.0000
  C   C5793     1.0  0.54417  0.50910  0.35625  1.0000
  C   C5794     1.0  0.49572  0.85754  0.29074  1.0000
  C   C5795     1.0  0.95808  0.89753  0.24586  1.0000
  C   C5796     1.0  0.54997  0.49313  0.33236  1.0000
  H   H4632     1.0  0.88307  0.73570  0.17920  1.0000
  H   H4633     1.0  0.55525  0.73115  0.37242  1.0000
  C   C5797     1.0  0.50755  0.62112  0.32766  1.0000
  C   C5798     1.0  0.56857  0.63230  0.29017  1.0000
  C   C5799     1.0  0.70141  0.51062  0.18922  1.0000
  C   C5800     1.0  0.50386  0.65432  0.33625  1.0000
  C   C5801     1.0  0.51474  0.65042  0.32028  1.0000
  C   C5802     1.0  0.51638  0.63404  0.31588  1.0000
  C   C5803     1.0  0.65706  0.61306  0.33878  1.0000
  C   C5804     1.0  0.98779  0.90091  0.31971  1.0000
  H   H4634     1.0  0.52186  0.66005  0.31122  1.0000
  P   P194      1.0  0.93152  0.78697  0.18175  1.0000
  C   C5805     1.0  0.94117  0.89229  0.35451  1.0000
  C   C5806     1.0  0.56178  0.54632  0.32216  1.0000
  P   P195      1.0  0.72598  0.62408  0.18074  1.0000
  C   C5807     1.0  0.65174  0.65979  0.37637  1.0000
  H   H4635     1.0  0.74551  0.63941  0.30555  1.0000
  H   H4636     1.0  0.74767  0.62405  0.20597  1.0000
  H   H4637     1.0  0.96852  0.87024  0.31342  1.0000
  C   C5808     1.0  0.87793  0.75648  0.21336  1.0000
  C   C5809     1.0  0.86304  0.76983  0.21009  1.0000
  C   C5810     1.0  0.85511  0.77062  0.19591  1.0000
  H   H4638     1.0  0.94505  0.90481  0.18082  1.0000
  H   H4639     1.0  0.78598  0.78089  0.20578  1.0000
  C   C5811     1.0  0.88478  0.74390  0.20248  1.0000
  H   H4640     1.0  0.85772  0.77959  0.21839  1.0000
  H   H4641     1.0  0.84352  0.78087  0.19346  1.0000
  C   C5812     1.0  0.49631  0.78979  0.36314  1.0000
  H   H4642     1.0  0.89611  0.73336  0.20515  1.0000
  C   C5813     1.0  0.90991  0.79294  0.30550  1.0000
  C   C5814     1.0  0.92338  0.79541  0.31258  1.0000
  C   C5815     1.0  0.91951  0.79875  0.32991  1.0000
  C   C5816     1.0  0.90230  0.79899  0.34033  1.0000
  C   C5817     1.0  0.88915  0.79566  0.33351  1.0000
  C   C5818     1.0  0.89283  0.79303  0.31602  1.0000
  H   H4643     1.0  0.93670  0.79508  0.30452  1.0000
  H   H4644     1.0  0.96068  0.89923  0.21782  1.0000
  H   H4645     1.0  0.87592  0.79548  0.34161  1.0000
  H   H4646     1.0  0.88243  0.79099  0.31070  1.0000
  C   C5819     1.0  0.87169  0.85585  0.23746  1.0000
  C   C5820     1.0  0.88556  0.84779  0.24661  1.0000
  C   C5821     1.0  0.89703  0.85786  0.24814  1.0000
  C   C5822     1.0  0.89460  0.87610  0.24073  1.0000
  C   C5823     1.0  0.88071  0.88421  0.23155  1.0000
  C   C5824     1.0  0.86931  0.87408  0.22985  1.0000
  H   H4647     1.0  0.88756  0.83375  0.25250  1.0000
  H   H4648     1.0  0.90792  0.85142  0.25494  1.0000
  H   H4649     1.0  0.87864  0.89830  0.22590  1.0000
  H   H4650     1.0  0.85867  0.88040  0.22268  1.0000
  Fe  Fe405     1.0  0.96590  0.97179  0.30688  1.0000
  C   C5825     1.0  0.53791  0.50333  0.34423  1.0000
  C   C5826     1.0  0.84906  0.90950  0.26258  1.0000
  H   H4651     1.0  0.62374  0.85723  0.34776  1.0000
  H   H4652     1.0  0.81919  0.89831  0.37097  1.0000
  C   C5827     1.0  0.84550  0.85848  0.19242  1.0000
  C   C5828     1.0  0.92341  0.97884  0.26696  1.0000
  C   C5829     1.0  0.54837  0.64551  0.26143  1.0000
  H   H4653     1.0  0.50443  0.65012  0.26108  1.0000
  C   C5830     1.0  0.55100  0.77371  0.34894  1.0000
  C   C5831     1.0  0.54454  0.77174  0.33486  1.0000
  C   C5832     1.0  0.54153  0.75530  0.33437  1.0000
  C   C5833     1.0  0.54554  0.74060  0.34790  1.0000
  C   C5834     1.0  0.80346  0.74096  0.36431  1.0000
  H   H4654     1.0  0.94165  0.80430  0.23338  1.0000
  H   H4655     1.0  0.54154  0.78316  0.32446  1.0000
  H   H4656     1.0  0.54307  0.72792  0.34772  1.0000
  H   H4657     1.0  0.63783  0.50118  0.36379  1.0000
  C   C5835     1.0  0.78318  0.76134  0.29439  1.0000
  C   C5836     1.0  0.79617  0.76749  0.28004  1.0000
  C   C5837     1.0  0.81047  0.77293  0.28298  1.0000
  C   C5838     1.0  0.81185  0.77234  0.30031  1.0000
  C   C5839     1.0  0.79864  0.76655  0.31472  1.0000
  C   C5840     1.0  0.78431  0.76104  0.31177  1.0000
  H   H4658     1.0  0.79521  0.76794  0.26660  1.0000
  H   H4659     1.0  0.82053  0.77734  0.27184  1.0000
  H   H4660     1.0  0.79951  0.76627  0.32817  1.0000
  H   H4661     1.0  0.77425  0.75647  0.32291  1.0000
  C   C5841     1.0  0.70904  0.68842  0.31159  1.0000
  C   C5842     1.0  0.72341  0.68935  0.29702  1.0000
  C   C5843     1.0  0.72602  0.67913  0.28408  1.0000
  C   C5844     1.0  0.71415  0.66817  0.28550  1.0000
  C   C5845     1.0  0.69939  0.66788  0.29966  1.0000
  C   C5846     1.0  0.69695  0.67788  0.31267  1.0000
  H   H4662     1.0  0.73287  0.69737  0.29610  1.0000
  H   H4663     1.0  0.73744  0.67946  0.27313  1.0000
  H   H4664     1.0  0.69021  0.65949  0.30089  1.0000
  H   H4665     1.0  0.68594  0.67712  0.32393  1.0000
  C   C5847     1.0  0.66050  0.79754  0.31681  1.0000
  C   C5848     1.0  0.65306  0.79238  0.33498  1.0000
  C   C5849     1.0  0.63592  0.80144  0.34234  1.0000
  C   C5850     1.0  0.62660  0.81589  0.33158  1.0000
  C   C5851     1.0  0.63435  0.82114  0.31367  1.0000
  C   C5852     1.0  0.65104  0.81192  0.30630  1.0000
  H   H4666     1.0  0.62730  0.83232  0.30533  1.0000
  H   H4667     1.0  0.65669  0.81597  0.29230  1.0000
  C   C5853     1.0  0.66856  0.59137  0.19766  1.0000
  C   C5854     1.0  0.96805  0.89673  0.29683  1.0000
  C   C5855     1.0  0.67040  0.62206  0.19476  1.0000
  C   C5856     1.0  0.66738  0.61985  0.21333  1.0000
  C   C5857     1.0  0.66434  0.60352  0.22411  1.0000
  C   C5858     1.0  0.66478  0.58936  0.21629  1.0000
  H   H4668     1.0  0.58599  0.55069  0.21983  1.0000
  C   C5859     1.0  0.61840  0.63569  0.24478  1.0000
  H   H4669     1.0  0.50005  0.79058  0.31335  1.0000
  C   C5860     1.0  0.55318  0.53741  0.31497  1.0000
  C   C5861     1.0  0.56307  0.52649  0.30303  1.0000
  C   C5862     1.0  0.58163  0.52426  0.29849  1.0000
  H   H4670     1.0  0.53886  0.53850  0.31913  1.0000
  H   H4671     1.0  0.55645  0.51914  0.29792  1.0000
  H   H4672     1.0  0.58940  0.51521  0.28988  1.0000
  C   C5863     1.0  0.95815  0.85924  0.27952  1.0000
  C   C5864     1.0  0.50040  0.87360  0.29007  1.0000
  C   C5865     1.0  0.93034  0.92551  0.29061  1.0000
  C   C5866     1.0  0.62680  0.56162  0.20969  1.0000
  C   C5867     1.0  0.64623  0.52579  0.23427  1.0000
  C   C5868     1.0  0.66158  0.51809  0.24130  1.0000
  C   C5869     1.0  0.67211  0.50198  0.23747  1.0000
  C   C5870     1.0  0.66745  0.49366  0.22639  1.0000
  H   H4673     1.0  0.50741  0.68150  0.24853  1.0000
  C   C5871     1.0  0.61838  0.63823  0.22671  1.0000
  H   H4674     1.0  0.91210  0.94991  0.29531  1.0000
  C   C5872     1.0  0.94071  0.89164  0.37241  1.0000
  H   H4675     1.0  0.63787  0.53782  0.23824  1.0000
  H   H4676     1.0  0.66512  0.52447  0.25004  1.0000
  H   H4677     1.0  0.68369  0.49584  0.24332  1.0000
  C   C5873     1.0  0.93139  0.76715  0.21649  1.0000
  C   C5874     1.0  0.82989  0.72985  0.29161  1.0000
  C   C5875     1.0  0.84736  0.73237  0.28821  1.0000
  C   C5876     1.0  0.85758  0.73385  0.27088  1.0000
  C   C5877     1.0  0.85024  0.73323  0.25690  1.0000
  C   C5878     1.0  0.83266  0.73081  0.26018  1.0000
  C   C5879     1.0  0.82254  0.72907  0.27767  1.0000
  P   P196      1.0  0.82273  0.73196  0.24174  1.0000
  C   C5880     1.0  0.83892  0.72075  0.22540  1.0000
  C   C5881     1.0  0.80405  0.72090  0.24971  1.0000
  C   C5882     1.0  0.80635  0.70278  0.24970  1.0000
  C   C5883     1.0  0.79187  0.69426  0.25640  1.0000
  C   C5884     1.0  0.77505  0.70373  0.26326  1.0000
  C   C5885     1.0  0.77269  0.72173  0.26334  1.0000
  C   C5886     1.0  0.78710  0.73029  0.25655  1.0000
  C   C5887     1.0  0.83801  0.72605  0.20733  1.0000
  C   C5888     1.0  0.67485  0.57853  0.33506  1.0000
  H   H4678     1.0  0.58569  0.60099  0.24836  1.0000
  C   C5889     1.0  0.90700  0.84800  0.19481  1.0000
  C   C5890     1.0  0.85228  0.70625  0.23073  1.0000
  C   C5891     1.0  0.81505  0.75503  0.23186  1.0000
  C   C5892     1.0  0.82173  0.76855  0.23472  1.0000
  C   C5893     1.0  0.81546  0.78637  0.22734  1.0000
  C   C5894     1.0  0.80258  0.79083  0.21691  1.0000
  C   C5895     1.0  0.79593  0.77746  0.21390  1.0000
  C   C5896     1.0  0.80210  0.75964  0.22136  1.0000
  H   H4679     1.0  0.82174  0.72927  0.30494  1.0000
  H   H4680     1.0  0.85279  0.73363  0.29891  1.0000
  H   H4681     1.0  0.87109  0.73596  0.26810  1.0000
  H   H4682     1.0  0.85814  0.73512  0.24346  1.0000
  H   H4683     1.0  0.80875  0.72783  0.28055  1.0000
  H   H4684     1.0  0.81930  0.69516  0.24468  1.0000
  H   H4685     1.0  0.79370  0.68028  0.25644  1.0000
  H   H4686     1.0  0.76386  0.69712  0.26866  1.0000
  H   H4687     1.0  0.75976  0.72908  0.26896  1.0000
  H   H4688     1.0  0.78505  0.74419  0.25699  1.0000
  H   H4689     1.0  0.82810  0.73730  0.20268  1.0000
  C   C5897     1.0  0.92297  0.85118  0.18325  1.0000
  C   C5898     1.0  0.70606  0.49243  0.18877  1.0000
  C   C5899     1.0  0.50454  0.80228  0.34993  1.0000
  H   H4690     1.0  0.85316  0.70177  0.24462  1.0000
  H   H4691     1.0  0.83176  0.76547  0.24266  1.0000
  C   C5900     1.0  0.57560  0.59611  0.25925  1.0000
  H   H4692     1.0  0.79776  0.80462  0.21116  1.0000
  H   H4693     1.0  0.81683  0.83175  0.19639  1.0000
  H   H4694     1.0  0.79678  0.74944  0.21894  1.0000
  C   C5901     1.0  0.77433  0.49337  0.18599  1.0000
  H   H4695     1.0  0.96949  0.85318  0.36228  1.0000
  C   C5902     1.0  0.90097  0.93501  0.28340  1.0000
  C   C5903     1.0  0.62620  0.53901  0.17677  1.0000
  C   C5904     1.0  0.56245  0.50456  0.35639  1.0000
  C   C5905     1.0  0.82065  0.89850  0.35696  1.0000
  C   C5906     1.0  0.66856  0.63945  0.35683  1.0000
  C   C5907     1.0  0.60451  0.51560  0.22781  1.0000
  C   C5908     1.0  0.57108  0.63626  0.32354  1.0000
  Fe  Fe406     1.0  0.63917  0.50328  0.29532  1.0000
  H   H4696     1.0  0.84240  0.76800  0.33737  1.0000
  C   C5909     1.0  0.59948  0.52806  0.35287  1.0000
  C   C5910     1.0  0.68574  0.52113  0.18409  1.0000
  H   H4697     1.0  0.94424  0.90844  0.32800  1.0000
  H   H4698     1.0  0.58231  0.57015  0.25270  1.0000
  H   H4699     1.0  0.74928  0.67261  0.19913  1.0000
  H   H4700     1.0  0.93882  0.80939  0.20211  1.0000
  H   H4701     1.0  0.87530  0.68665  0.22221  1.0000
  H   H4702     1.0  0.94839  0.93434  0.33697  1.0000
  H   H4703     1.0  0.58515  0.52951  0.35707  1.0000
  H   H4704     1.0  0.49439  0.87381  0.36523  1.0000
  C   C5911     1.0  0.75986  0.48494  0.19357  1.0000
  S   S809      1.0  0.50005  0.55274  0.33672  1.0000
  H   H4705     1.0  0.90160  0.82965  0.31078  1.0000
  P   P197      1.0  0.62157  0.52728  0.21383  1.0000
  C   C5912     1.0  0.87891  0.81151  0.19359  1.0000
  C   C5913     1.0  0.60008  0.76410  0.33843  1.0000
  C   C5914     1.0  0.60451  0.77907  0.32597  1.0000
  C   C5915     1.0  0.60978  0.77849  0.30788  1.0000
  C   C5916     1.0  0.61077  0.76289  0.30226  1.0000
  C   C5917     1.0  0.60693  0.74754  0.31475  1.0000
  C   C5918     1.0  0.60121  0.74845  0.33286  1.0000
  P   P198      1.0  0.60827  0.72728  0.30749  1.0000
  C   C5919     1.0  0.59891  0.71152  0.32616  1.0000
  C   C5920     1.0  0.59531  0.73249  0.29051  1.0000
  C   C5921     1.0  0.58045  0.74670  0.29040  1.0000
  C   C5922     1.0  0.57053  0.75075  0.27714  1.0000
  C   C5923     1.0  0.57526  0.74058  0.26402  1.0000
  C   C5924     1.0  0.58974  0.72618  0.26432  1.0000
  C   C5925     1.0  0.59970  0.72207  0.27755  1.0000
  C   C5926     1.0  0.60949  0.70071  0.33820  1.0000
  C   C5927     1.0  0.60251  0.68822  0.35248  1.0000
  C   C5928     1.0  0.58480  0.68677  0.35511  1.0000
  C   C5929     1.0  0.57406  0.69779  0.34348  1.0000
  C   C5930     1.0  0.58105  0.71013  0.32902  1.0000
  C   C5931     1.0  0.63095  0.71712  0.29815  1.0000
  C   C5932     1.0  0.64337  0.72759  0.28812  1.0000
  C   C5933     1.0  0.66058  0.71963  0.28033  1.0000
  C   C5934     1.0  0.66555  0.70116  0.28240  1.0000
  C   C5935     1.0  0.65324  0.69064  0.29208  1.0000
  C   C5936     1.0  0.63599  0.69855  0.29972  1.0000
  C   C5937     1.0  0.74457  0.49027  0.18614  1.0000
  H   H4706     1.0  0.60365  0.79121  0.33031  1.0000
  H   H4707     1.0  0.61305  0.79021  0.29825  1.0000
  H   H4708     1.0  0.61428  0.76292  0.28814  1.0000
  H   H4709     1.0  0.59717  0.73730  0.34273  1.0000
  H   H4710     1.0  0.57628  0.75443  0.30074  1.0000
  H   H4711     1.0  0.55887  0.76145  0.27733  1.0000
  H   H4712     1.0  0.56736  0.74347  0.25395  1.0000
  H   H4713     1.0  0.59296  0.71784  0.25459  1.0000
  H   H4714     1.0  0.61060  0.71057  0.27771  1.0000
  H   H4715     1.0  0.62317  0.70188  0.33636  1.0000
  H   H4716     1.0  0.73254  0.49588  0.22148  1.0000
  C   C5938     1.0  0.81197  0.82053  0.36030  1.0000
  H   H4717     1.0  0.56030  0.69671  0.34564  1.0000
  H   H4718     1.0  0.57246  0.71850  0.32015  1.0000
  H   H4719     1.0  0.63995  0.74188  0.28620  1.0000
  H   H4720     1.0  0.67013  0.72778  0.27270  1.0000
  H   H4721     1.0  0.67888  0.69500  0.27636  1.0000
  H   H4722     1.0  0.65697  0.67631  0.29343  1.0000
  H   H4723     1.0  0.62656  0.69008  0.30655  1.0000
  H   H4724     1.0  0.92772  0.75685  0.21243  1.0000
  H   H4725     1.0  0.76647  0.78689  0.34975  1.0000
  H   H4726     1.0  0.91394  0.75739  0.18788  1.0000
  H   H4727     1.0  0.93039  0.75227  0.24343  1.0000
  C   C5939     1.0  0.92510  0.96901  0.25404  1.0000
  H   H4728     1.0  0.75733  0.59909  0.19185  1.0000
  C   C5940     1.0  0.64170  0.51778  0.22265  1.0000
  P   P199      1.0  0.95466  0.89443  0.28247  1.0000
  H   H4729     1.0  0.53560  0.84846  0.24368  1.0000
  H   H4730     1.0  0.61443  0.58045  0.32516  1.0000
  H   H4731     1.0  0.55382  0.55409  0.33188  1.0000
  H   H4732     1.0  0.49348  0.58402  0.30321  1.0000
  H   H4733     1.0  0.54032  0.57713  0.29853  1.0000
  H   H4734     1.0  0.63754  0.60910  0.32656  1.0000
  H   H4735     1.0  0.83852  0.94129  0.18296  1.0000
  C   C5941     1.0  0.56085  0.57182  0.27556  1.0000
  C   C5942     1.0  0.72546  0.64355  0.32910  1.0000
  H   H4736     1.0  0.49222  0.78754  0.24130  1.0000
  H   H4737     1.0  0.63128  0.60115  0.26935  1.0000
  C   C5943     1.0  0.67853  0.49522  0.17922  1.0000
  C   C5944     1.0  0.55001  0.66319  0.25390  1.0000
  H   H4738     1.0  0.89339  0.91704  0.27186  1.0000
  C   C5945     1.0  0.90361  0.91941  0.27723  1.0000
  C   C5946     1.0  0.55283  0.59453  0.36000  1.0000
  P   P200      1.0  0.64803  0.72650  0.37450  1.0000
  H   H4739     1.0  0.57937  0.67708  0.36614  1.0000
  C   C5947     1.0  0.96632  0.95210  0.20326  1.0000
  Fe  Fe407     1.0  0.58614  0.81782  0.36377  1.0000
  H   H4740     1.0  0.59429  0.86361  0.36777  1.0000
  C   C5948     1.0  0.57787  0.50413  0.23155  1.0000
  H   H4741     1.0  0.56139  0.58507  0.31894  1.0000
  C   C5949     1.0  0.84444  0.92845  0.17936  1.0000
  C   C5950     1.0  0.57831  0.49703  0.24952  1.0000
  C   C5951     1.0  0.86247  0.75850  0.18456  1.0000
  H   H4742     1.0  0.53658  0.68982  0.24403  1.0000
  H   H4743     1.0  0.87030  0.81868  0.20363  1.0000
  C   C5952     1.0  0.68212  0.58839  0.34257  1.0000
  C   C5953     1.0  0.93341  0.91010  0.28376  1.0000
  H   H4744     1.0  0.92432  0.84843  0.32389  1.0000
  H   H4745     1.0  0.82717  0.84666  0.21463  1.0000
  C   C5954     1.0  0.97399  0.91259  0.29405  1.0000
  H   H4746     1.0  0.80437  0.73245  0.35529  1.0000
  H   H4747     1.0  0.66034  0.78127  0.34318  1.0000
  C   C5955     1.0  0.65388  0.66932  0.34453  1.0000
  H   H4748     1.0  0.58842  0.61042  0.32533  1.0000
  H   H4749     1.0  0.65097  0.67946  0.33299  1.0000
  C   C5956     1.0  0.92691  0.75415  0.17941  1.0000
  C   C5957     1.0  0.65191  0.73206  0.35041  1.0000
  H   H4750     1.0  0.96789  0.79003  0.17991  1.0000
  C   C5958     1.0  0.95859  0.96623  0.19114  1.0000
  C   C5959     1.0  0.61410  0.58253  0.27589  1.0000
  H   H4751     1.0  0.71453  0.61183  0.37011  1.0000
  C   C5960     1.0  0.87252  0.75600  0.36434  1.0000
  H   H4752     1.0  0.68557  0.71036  0.36211  1.0000
  C   C5961     1.0  0.96645  0.89774  0.25939  1.0000
  H   H4753     1.0  0.61080  0.67959  0.36148  1.0000
  C   C5962     1.0  0.60305  0.58770  0.21177  1.0000
  H   H4754     1.0  0.94456  0.89551  0.24892  1.0000
  C   C5963     1.0  0.97819  0.97240  0.21277  1.0000
  C   C5964     1.0  0.62917  0.51218  0.35684  1.0000
  H   H4755     1.0  0.63047  0.63578  0.24876  1.0000
  C   C5965     1.0  0.94617  0.92252  0.34693  1.0000
  H   H4756     1.0  0.68330  0.79658  0.34926  1.0000
  C   C5966     1.0  0.89086  0.85445  0.18900  1.0000
  C   C5967     1.0  0.55239  0.59970  0.28550  1.0000
  H   H4757     1.0  0.64919  0.49476  0.21044  1.0000
  C   C5968     1.0  0.56297  0.58406  0.33231  1.0000
  C   C5969     1.0  0.62368  0.59213  0.29778  1.0000
  C   C5970     1.0  0.62509  0.52441  0.19117  1.0000
  C   C5971     1.0  0.84437  0.97977  0.20264  1.0000
  H   H4758     1.0  0.92271  0.72909  0.17730  1.0000
  H   H4759     1.0  0.88876  0.94495  0.28264  1.0000
  C   C5972     1.0  0.82680  0.83978  0.19017  1.0000
  H   H4760     1.0  0.91320  0.90489  0.33140  1.0000
  H   H4761     1.0  0.74884  0.76544  0.34957  1.0000
  C   C5973     1.0  0.83132  0.79218  0.36936  1.0000
  H   H4762     1.0  0.61486  0.51047  0.25174  1.0000
  C   C5974     1.0  0.62541  0.53738  0.33229  1.0000
  C   C5975     1.0  0.87740  0.74519  0.18782  1.0000
  H   H4763     1.0  0.65368  0.57852  0.32273  1.0000
  S   S810      1.0  0.98130  0.95675  0.32814  1.0000
  Fe  Fe408     1.0  0.91097  0.82014  0.37010  1.0000
  C   C5976     1.0  0.93359  0.85148  0.31138  1.0000
  H   H4764     1.0  0.57532  0.63633  0.22988  1.0000
  H   H4765     1.0  0.58949  0.56115  0.36191  1.0000
  H   H4766     1.0  0.69473  0.58252  0.34669  1.0000
  C   C5977     1.0  0.50076  0.89145  0.23116  1.0000
  C   C5978     1.0  0.71141  0.56974  0.20909  1.0000
  C   C5979     1.0  0.70683  0.58358  0.21832  1.0000
  C   C5980     1.0  0.71075  0.60022  0.20963  1.0000
  H   H4767     1.0  0.96093  0.83195  0.27793  1.0000
  C   C5981     1.0  0.74660  0.77087  0.36130  1.0000
  H   H4768     1.0  0.70655  0.61084  0.21696  1.0000
  C   C5982     1.0  0.70322  0.80341  0.35876  1.0000
  C   C5983     1.0  0.61508  0.72101  0.37317  1.0000
  H   H4769     1.0  0.51169  0.76502  0.28964  1.0000
  H   H4770     1.0  0.65090  0.52177  0.33735  1.0000
  C   C5984     1.0  0.50075  0.77150  0.28292  1.0000
  C   C5985     1.0  0.71680  0.65641  0.22416  1.0000
  C   C5986     1.0  0.70384  0.65911  0.21421  1.0000
  C   C5987     1.0  0.70677  0.64942  0.20098  1.0000
  C   C5988     1.0  0.68871  0.60519  0.37397  1.0000
  C   C5989     1.0  0.95311  0.96377  0.27181  1.0000
  H   H4771     1.0  0.65796  0.81115  0.36972  1.0000
  C   C5990     1.0  0.67114  0.60783  0.18695  1.0000
  C   C5991     1.0  0.81522  0.80195  0.36450  1.0000
  H   H4772     1.0  0.74222  0.64119  0.22947  1.0000
  H   H4773     1.0  0.98768  0.92725  0.30354  1.0000
  H   H4774     1.0  0.70774  0.55708  0.21566  1.0000
  H   H4775     1.0  0.69971  0.58159  0.23209  1.0000
  C   C5992     1.0  0.98367  0.91472  0.30552  1.0000
  H   H4776     1.0  0.49093  0.90330  0.22746  1.0000
  Fe  Fe409     1.0  0.92043  0.93932  0.19194  1.0000
  C   C5993     1.0  0.94942  0.87259  0.28929  1.0000
  C   C5994     1.0  0.60283  0.63847  0.22141  1.0000
  C   C5995     1.0  0.66099  0.74194  0.31317  1.0000
  H   H4777     1.0  0.51614  0.75529  0.37556  1.0000
  H   H4778     1.0  0.62545  0.55214  0.17881  1.0000
  H   H4779     1.0  0.71436  0.66380  0.23456  1.0000
  H   H4780     1.0  0.69121  0.66826  0.21716  1.0000
  H   H4781     1.0  0.69612  0.65114  0.19408  1.0000
  H   H4782     1.0  0.60285  0.64059  0.20736  1.0000
  C   C5996     1.0  0.53184  0.64085  0.26386  1.0000
  C   C5997     1.0  0.51718  0.65376  0.25903  1.0000
  C   C5998     1.0  0.51886  0.67140  0.25190  1.0000
  H   H4783     1.0  0.93546  0.84633  0.18778  1.0000
  C   C5999     1.0  0.93395  0.78316  0.20455  1.0000
  H   H4784     1.0  0.60466  0.53117  0.30210  1.0000
  H   H4785     1.0  0.95097  0.96356  0.18294  1.0000
  H   H4786     1.0  0.53007  0.62740  0.26966  1.0000
  H   H4787     1.0  0.65077  0.84401  0.36014  1.0000
  C   C6000     1.0  0.88805  0.75159  0.35172  1.0000
  H   H4788     1.0  0.59031  0.51888  0.20685  1.0000
  C   C6001     1.0  0.53529  0.67609  0.24929  1.0000
  S   S811      1.0  0.52951  0.52097  0.37209  1.0000
  C   C6002     1.0  0.71962  0.60305  0.19168  1.0000
  C   C6003     1.0  0.70367  0.62457  0.33838  1.0000
  C   C6004     1.0  0.58720  0.63348  0.25241  1.0000
  C   C6005     1.0  0.55946  0.64783  0.29651  1.0000
  H   H4789     1.0  0.54431  0.60749  0.29516  1.0000
  H   H4790     1.0  0.85138  0.82670  0.36476  1.0000
  C   C6006     1.0  0.98481  0.90199  0.22361  1.0000
  C   C6007     1.0  0.94556  0.92196  0.36481  1.0000
  H   H4791     1.0  0.90466  0.48393  0.35900  1.0000
  H   H4792     1.0  0.50112  0.82976  0.24428  1.0000
  H   H4793     1.0  0.49489  0.66580  0.29057  1.0000
  C   C6008     1.0  0.86376  0.70293  0.20012  1.0000
  C   C6009     1.0  0.93919  0.79382  0.22849  1.0000
  H   H4794     1.0  0.96694  0.94437  0.25565  1.0000
  H   H4795     1.0  0.56833  0.48970  0.25789  1.0000
  H   H4796     1.0  0.63002  0.79744  0.35624  1.0000
  C   C6010     1.0  0.94215  0.83832  0.30151  1.0000
  H   H4797     1.0  0.51752  0.77405  0.25669  1.0000
  H   H4798     1.0  0.49314  0.92307  0.33404  1.0000
  C   C6011     1.0  0.95476  0.95392  0.25892  1.0000
  H   H4799     1.0  0.64987  0.62638  0.33996  1.0000
  C   C6012     1.0  0.89713  0.80561  0.19355  1.0000
  S   S812      1.0  0.62325  0.49582  0.32290  1.0000
  C   C6013     1.0  0.97275  0.88271  0.31084  1.0000
  C   C6014     1.0  0.90822  0.79568  0.18107  1.0000
  H   H4800     1.0  0.56748  0.50236  0.22599  1.0000
  H   H4801     1.0  0.55929  0.55833  0.27722  1.0000
  C   C6015     1.0  0.72789  0.62099  0.31270  1.0000
  C   C6016     1.0  0.72035  0.57240  0.19128  1.0000
  H   H4802     1.0  0.57213  0.63789  0.33633  1.0000
  H   H4803     1.0  0.51236  0.81219  0.32177  1.0000
  C   C6017     1.0  0.60466  0.50870  0.24594  1.0000
  H   H4804     1.0  0.78096  0.86904  0.35836  1.0000
  S   S813      1.0  0.94814  0.94055  0.37124  1.0000
  C   C6018     1.0  0.87044  0.75814  0.32921  1.0000
  H   H4805     1.0  0.64704  0.76825  0.31651  1.0000
  C   C6019     1.0  0.60610  0.85767  0.37337  1.0000
  C   C6020     1.0  0.93759  0.79661  0.21079  1.0000
  C   C6021     1.0  0.59089  0.51343  0.22073  1.0000
  H   H4806     1.0  0.94028  0.92832  0.29592  1.0000
  C   C6022     1.0  0.72286  0.63713  0.19734  1.0000
  C   C6023     1.0  0.55103  0.59557  0.34271  1.0000
  C   C6024     1.0  0.57668  0.57120  0.33918  1.0000
  C   C6025     1.0  0.94388  0.90779  0.34185  1.0000
  C   C6026     1.0  0.97605  0.95518  0.21411  1.0000
  H   H4807     1.0  0.82245  0.84386  0.35703  1.0000
  H   H4808     1.0  0.78609  0.48925  0.19178  1.0000
  H   H4809     1.0  0.49057  0.58440  0.27275  1.0000
  C   C6027     1.0  0.73560  0.63407  0.20780  1.0000
  C   C6028     1.0  0.57873  0.57053  0.35642  1.0000
  H   H4810     1.0  0.84756  0.90180  0.25380  1.0000
  H   H4811     1.0  0.63115  0.60013  0.30093  1.0000
  H   H4812     1.0  0.61449  0.58279  0.26209  1.0000
  H   H4813     1.0  0.93939  0.82509  0.30628  1.0000
  Fe  Fe410     1.0  0.95527  0.96194  0.34731  1.0000
  H   H4814     1.0  0.68200  0.56535  0.33305  1.0000
  S   S814      1.0  0.60545  0.82830  0.33955  1.0000
  H   H4815     1.0  0.54340  0.60337  0.36807  1.0000
  C   C6029     1.0  0.88159  0.84654  0.32665  1.0000
  C   C6030     1.0  0.89377  0.84291  0.31116  1.0000
  C   C6031     1.0  0.89615  0.85649  0.29616  1.0000
  C   C6032     1.0  0.88603  0.87366  0.29643  1.0000
  C   C6033     1.0  0.87308  0.87725  0.31163  1.0000
  C   C6034     1.0  0.87128  0.86368  0.32694  1.0000
  P   P201      1.0  0.86054  0.89959  0.31220  1.0000
  C   C6035     1.0  0.83922  0.89866  0.32731  1.0000
  C   C6036     1.0  0.87294  0.91088  0.32035  1.0000
  C   C6037     1.0  0.89053  0.90300  0.32242  1.0000
  C   C6038     1.0  0.89968  0.91113  0.32983  1.0000
  C   C6039     1.0  0.89148  0.92725  0.33513  1.0000
  C   C6040     1.0  0.87399  0.93522  0.33314  1.0000
  C   C6041     1.0  0.86469  0.92701  0.32591  1.0000
  C   C6042     1.0  0.83723  0.89886  0.34537  1.0000
  C   C6043     1.0  0.98428  0.89979  0.25475  1.0000
  C   C6044     1.0  0.80603  0.89763  0.35073  1.0000
  C   C6045     1.0  0.80794  0.89716  0.33286  1.0000
  C   C6046     1.0  0.82446  0.89762  0.32119  1.0000
  C   C6047     1.0  0.85597  0.91072  0.29036  1.0000
  C   C6048     1.0  0.85355  0.90090  0.27903  1.0000
  C   C6049     1.0  0.57367  0.57860  0.26156  1.0000
  H   H4816     1.0  0.96789  0.86189  0.26732  1.0000
  C   C6050     1.0  0.84896  0.93786  0.26853  1.0000
  C   C6051     1.0  0.85364  0.92929  0.28493  1.0000
  H   H4817     1.0  0.88014  0.83604  0.33843  1.0000
  C   C6052     1.0  0.55479  0.75920  0.36264  1.0000
  H   H4818     1.0  0.90604  0.85375  0.28438  1.0000
  H   H4819     1.0  0.88838  0.88406  0.28472  1.0000
  H   H4820     1.0  0.86201  0.86624  0.33910  1.0000
  H   H4821     1.0  0.89732  0.89053  0.31845  1.0000
  C   C6053     1.0  0.66082  0.71916  0.34012  1.0000
  H   H4822     1.0  0.89874  0.93353  0.34076  1.0000
  H   H4823     1.0  0.86762  0.94769  0.33734  1.0000
  H   H4824     1.0  0.85098  0.93311  0.32492  1.0000
  H   H4825     1.0  0.84849  0.89902  0.35063  1.0000
  H   H4826     1.0  0.89904  0.74953  0.32429  1.0000
  H   H4827     1.0  0.55343  0.66168  0.31800  1.0000
  H   H4828     1.0  0.79660  0.89637  0.32809  1.0000
  H   H4829     1.0  0.82561  0.89713  0.30745  1.0000
  H   H4830     1.0  0.85502  0.88659  0.28287  1.0000
  C   C6054     1.0  0.59596  0.55865  0.21696  1.0000
  H   H4831     1.0  0.50708  0.88085  0.27774  1.0000
  H   H4832     1.0  0.84743  0.95217  0.26425  1.0000
  H   H4833     1.0  0.85543  0.93725  0.29323  1.0000
  C   C6055     1.0  0.81539  0.87484  0.25215  1.0000
  C   C6056     1.0  0.80301  0.89095  0.25032  1.0000
  C   C6057     1.0  0.78804  0.89393  0.26393  1.0000
  C   C6058     1.0  0.78549  0.88086  0.27946  1.0000
  C   C6059     1.0  0.79799  0.86472  0.28151  1.0000
  C   C6060     1.0  0.81287  0.86173  0.26761  1.0000
  P   P202      1.0  0.79532  0.84788  0.30173  1.0000
  C   C6061     1.0  0.78054  0.85747  0.31996  1.0000
  C   C6062     1.0  0.78617  0.83061  0.29851  1.0000
  C   C6063     1.0  0.78847  0.82735  0.28139  1.0000
  C   C6064     1.0  0.78017  0.81495  0.27882  1.0000
  C   C6065     1.0  0.76949  0.80578  0.29325  1.0000
  C   C6066     1.0  0.76759  0.80850  0.31038  1.0000
  C   C6067     1.0  0.77606  0.82070  0.31308  1.0000
  C   C6068     1.0  0.76197  0.86098  0.32137  1.0000
  C   C6069     1.0  0.75039  0.86746  0.33593  1.0000
  C   C6070     1.0  0.75724  0.87047  0.34919  1.0000
  C   C6071     1.0  0.77568  0.86711  0.34784  1.0000
  C   C6072     1.0  0.78730  0.86073  0.33326  1.0000
  C   C6073     1.0  0.81698  0.83908  0.30730  1.0000
  C   C6074     1.0  0.82898  0.85042  0.30380  1.0000
  C   C6075     1.0  0.84567  0.84391  0.30833  1.0000
  C   C6076     1.0  0.85033  0.82620  0.31680  1.0000
  C   C6077     1.0  0.83847  0.81483  0.32039  1.0000
  C   C6078     1.0  0.82181  0.82122  0.31563  1.0000
  H   H4834     1.0  0.82701  0.87247  0.24162  1.0000
  H   H4835     1.0  0.80504  0.90111  0.23833  1.0000
  H   H4836     1.0  0.77840  0.90641  0.26246  1.0000
  H   H4837     1.0  0.77386  0.88350  0.28984  1.0000
  H   H4838     1.0  0.82268  0.84932  0.26876  1.0000
  H   H4839     1.0  0.79661  0.83433  0.27000  1.0000
  H   H4840     1.0  0.78208  0.81232  0.26566  1.0000
  H   H4841     1.0  0.76295  0.79626  0.29124  1.0000
  H   H4842     1.0  0.75962  0.80102  0.32155  1.0000
  H   H4843     1.0  0.77455  0.82244  0.32654  1.0000
  H   H4844     1.0  0.75644  0.85837  0.31140  1.0000
  C   C6079     1.0  0.87172  0.80764  0.18106  1.0000
  H   H4845     1.0  0.50088  0.89244  0.30506  1.0000
  H   H4846     1.0  0.70324  0.64588  0.35105  1.0000
  H   H4847     1.0  0.80149  0.85799  0.33276  1.0000
  H   H4848     1.0  0.82551  0.86429  0.29752  1.0000
  H   H4849     1.0  0.85509  0.85252  0.30503  1.0000
  H   H4850     1.0  0.86327  0.82124  0.32024  1.0000
  H   H4851     1.0  0.84226  0.80098  0.32662  1.0000
  H   H4852     1.0  0.81282  0.81217  0.31847  1.0000
  S   S815      1.0  0.69641  0.74370  0.34303  1.0000
  C   C6080     1.0  0.61423  0.55075  0.21416  1.0000
  C   C6081     1.0  0.75753  0.67237  0.18593  1.0000
  H   H4853     1.0  0.57632  0.58312  0.21778  1.0000
  C   C6082     1.0  0.62273  0.85410  0.36207  1.0000
  C   C6083     1.0  0.57887  0.61876  0.30077  1.0000
  C   C6084     1.0  0.66420  0.65263  0.34213  1.0000
  C   C6085     1.0  0.50563  0.80277  0.33199  1.0000
  C   C6086     1.0  0.56057  0.64968  0.31320  1.0000
  H   H4854     1.0  0.90239  0.80849  0.20352  1.0000
  H   H4855     1.0  0.66490  0.70536  0.34624  1.0000
  H   H4856     1.0  0.59550  0.76472  0.35242  1.0000
  C   C6087     1.0  0.61421  0.58097  0.31145  1.0000
  C   C6088     1.0  0.60457  0.57052  0.30742  1.0000
  C   C6089     1.0  0.55237  0.74250  0.36190  1.0000
  H   H4857     1.0  0.55154  0.65863  0.28866  1.0000
  C   C6090     1.0  0.75653  0.78308  0.36138  1.0000
  H   H4858     1.0  0.81812  0.97652  0.21738  1.0000
  H   H4859     1.0  0.79333  0.89691  0.35991  1.0000
  H   H4860     1.0  0.87880  0.85187  0.19831  1.0000
  H   H4861     1.0  0.90703  0.84077  0.20842  1.0000
  H   H4862     1.0  0.64095  0.55596  0.20667  1.0000
  C   C6091     1.0  0.95434  0.84220  0.28555  1.0000
  H   H4863     1.0  0.63109  0.58819  0.20525  1.0000
  C   C6092     1.0  0.49636  0.87909  0.24680  1.0000
  C   C6093     1.0  0.73257  0.64373  0.22115  1.0000
  C   C6094     1.0  0.85578  0.76108  0.35953  1.0000
  C   C6095     1.0  0.62365  0.59286  0.28001  1.0000
  C   C6096     1.0  0.49127  0.86072  0.36995  1.0000
  H   H4864     1.0  0.52106  0.89796  0.20803  1.0000
  H   H4865     1.0  0.76919  0.64442  0.19214  1.0000
  C   C6097     1.0  0.93697  0.77770  0.24015  1.0000
  C   C6098     1.0  0.59167  0.49934  0.25671  1.0000
  C   C6099     1.0  0.82500  0.82946  0.36032  1.0000
  H   H4866     1.0  0.68237  0.53524  0.18416  1.0000
  H   H4867     1.0  0.74827  0.87510  0.36069  1.0000
  H   H4868     1.0  0.63043  0.64019  0.21682  1.0000
  C   C6100     1.0  0.93731  0.97610  0.27598  1.0000
  C   C6101     1.0  0.73421  0.63491  0.31502  1.0000
  H   H4869     1.0  0.71432  0.79681  0.34991  1.0000
  C   C6102     1.0  0.63654  0.52375  0.34188  1.0000
  H   H4870     1.0  0.58588  0.60669  0.29615  1.0000
  H   H4871     1.0  0.66903  0.65010  0.32874  1.0000
  H   H4872     1.0  0.54331  0.87054  0.21629  1.0000
  C   C6103     1.0  0.53271  0.79762  0.28389  1.0000
  C   C6104     1.0  0.54786  0.80114  0.28706  1.0000
  C   C6105     1.0  0.54935  0.81870  0.28499  1.0000
  C   C6106     1.0  0.53573  0.83274  0.27969  1.0000
  C   C6107     1.0  0.52054  0.82930  0.27630  1.0000
  C   C6108     1.0  0.51901  0.81161  0.27863  1.0000
  P   P203      1.0  0.50237  0.84761  0.27144  1.0000
  S   S816      1.0  0.93942  0.97480  0.32595  1.0000
  C   C6109     1.0  0.49687  0.62478  0.34389  1.0000
  H   H4873     1.0  0.84351  0.93464  0.24443  1.0000
  C   C6110     1.0  0.62629  0.50760  0.18774  1.0000
  C   C6111     1.0  0.72454  0.58895  0.18260  1.0000
  H   H4874     1.0  0.87359  0.69639  0.19027  1.0000
  H   H4875     1.0  0.97092  0.92346  0.28316  1.0000
  C   C6112     1.0  0.69421  0.48470  0.18434  1.0000
  H   H4876     1.0  0.58862  0.49186  0.34412  1.0000
  H   H4877     1.0  0.59882  0.60196  0.21076  1.0000
  S   S817      1.0  0.51074  0.60039  0.32191  1.0000
  H   H4878     1.0  0.62528  0.49611  0.19854  1.0000
  C   C6113     1.0  0.50890  0.86361  0.25164  1.0000
  C   C6114     1.0  0.52584  0.86050  0.24051  1.0000
  C   C6115     1.0  0.53024  0.87294  0.22488  1.0000
  C   C6116     1.0  0.51771  0.88840  0.22021  1.0000
  H   H4879     1.0  0.97887  0.87622  0.37133  1.0000
  H   H4880     1.0  0.60491  0.50513  0.37367  1.0000
  H   H4881     1.0  0.53148  0.78398  0.28592  1.0000
  H   H4882     1.0  0.55827  0.79023  0.29145  1.0000
  H   H4883     1.0  0.56095  0.82144  0.28780  1.0000
  H   H4884     1.0  0.53688  0.84629  0.27857  1.0000
  H   H4885     1.0  0.50717  0.80855  0.27679  1.0000
  S   S818      1.0  0.62661  0.48809  0.28343  1.0000
  H   H4886     1.0  0.90097  0.74810  0.35534  1.0000
  C   C6117     1.0  0.64628  0.74965  0.34169  1.0000
  H   H4887     1.0  0.80507  0.79537  0.36396  1.0000
  C   C6118     1.0  0.64785  0.67299  0.36162  1.0000
  H   H4888     1.0  0.83063  0.74342  0.35503  1.0000
  H   H4889     1.0  0.60323  0.63159  0.27150  1.0000
  C   C6119     1.0  0.65240  0.50156  0.21895  1.0000
  H   H4890     1.0  0.70998  0.51676  0.19329  1.0000
  Fe  Fe411     1.0  0.72111  0.74819  0.34863  1.0000
  S   S819      1.0  0.66958  0.57325  0.18815  1.0000
  H   H4891     1.0  0.70814  0.60505  0.32212  1.0000
  H   H4892     1.0  0.73005  0.65473  0.33055  1.0000
  C   C6120     1.0  0.71281  0.61569  0.32443  1.0000
  C   C6121     1.0  0.59025  0.53318  0.30560  1.0000
  C   C6122     1.0  0.58039  0.54470  0.31705  1.0000
  H   H4893     1.0  0.56722  0.50843  0.36609  1.0000
  C   C6123     1.0  0.65883  0.58596  0.32923  1.0000
  P   P204      1.0  0.59201  0.55662  0.32533  1.0000
  H   H4894     1.0  0.59731  0.56363  0.28589  1.0000
  P   P205      1.0  0.68352  0.61872  0.35316  1.0000
  C   C6124     1.0  0.64985  0.60315  0.33128  1.0000
  C   C6125     1.0  0.71016  0.63855  0.34062  1.0000
  C   C6126     1.0  0.61063  0.51435  0.36234  1.0000
  H   H4895     1.0  0.52378  0.50649  0.34427  1.0000
  C   C6127     1.0  0.84126  0.81981  0.36470  1.0000
  H   H4896     1.0  0.62117  0.71880  0.35986  1.0000
  C   C6128     1.0  0.98252  0.88484  0.32224  1.0000
  C   C6129     1.0  0.93291  0.76446  0.23419  1.0000
  Fe  Fe412     1.0  0.49734  0.57977  0.34243  1.0000
  C   C6130     1.0  0.60677  0.53972  0.33784  1.0000
  H   H4897     1.0  0.93783  0.77569  0.25396  1.0000
  C   C6131     1.0  0.67350  0.60591  0.34411  1.0000
  P   P206      1.0  0.56723  0.62946  0.26871  1.0000
  C   C6132     1.0  0.60452  0.57147  0.28951  1.0000
  C   C6133     1.0  0.49863  0.79064  0.32726  1.0000
  H   H4898     1.0  0.96466  0.93876  0.20426  1.0000
  H   H4899     1.0  0.56257  0.66716  0.25208  1.0000
  H   H4900     1.0  0.54034  0.60529  0.33736  1.0000
  C   C6134     1.0  0.48973  0.78413  0.25571  1.0000
  C   C6135     1.0  0.49026  0.77822  0.34046  1.0000
  H   H4901     1.0  0.87051  0.92878  0.18222  1.0000
  H   H4902     1.0  0.63145  0.54563  0.32029  1.0000
  C   C6136     1.0  0.84437  0.80124  0.36934  1.0000
  H   H4903     1.0  0.92979  0.80102  0.33523  1.0000
  C   C6137     1.0  0.81830  0.74758  0.36397  1.0000
  H   H4904     1.0  0.79924  0.82792  0.35714  1.0000
  H   H4905     1.0  0.83841  0.86279  0.36865  1.0000
  C   C6138     1.0  0.85027  0.71706  0.19480  1.0000
  C   C6139     1.0  0.67447  0.51349  0.17880  1.0000
  C   C6140     1.0  0.86476  0.69751  0.21810  1.0000
  H   H4906     1.0  0.66547  0.74605  0.29893  1.0000
  H   H4907     1.0  0.49521  0.70085  0.36413  1.0000
  C   C6141     1.0  0.76870  0.65650  0.18199  1.0000
  C   C6142     1.0  0.68572  0.80328  0.35844  1.0000
  H   H4908     1.0  0.86958  0.75951  0.31551  1.0000
  C   C6143     1.0  0.86255  0.92131  0.17903  1.0000
  H   H4909     1.0  0.67342  0.71436  0.31382  1.0000
  H   H4910     1.0  0.63880  0.75980  0.34911  1.0000
  H   H4911     1.0  0.52455  0.63149  0.30330  1.0000
  C   C6144     1.0  0.66556  0.72416  0.32159  1.0000
  H   H4912     1.0  0.84937  0.86531  0.20054  1.0000
  H   H4913     1.0  0.55283  0.78656  0.34920  1.0000
  C   C6145     1.0  0.59042  0.57707  0.21574  1.0000
  H   H4914     1.0  0.73608  0.86979  0.33715  1.0000
  S   S820      1.0  0.90015  0.84947  0.36744  1.0000
  C   C6146     1.0  0.93706  0.86860  0.30518  1.0000
  C   C6147     1.0  0.65082  0.75453  0.32315  1.0000
  C   C6148     1.0  0.76143  0.60582  0.17821  1.0000
  C   C6149     1.0  0.55021  0.58237  0.28753  1.0000
  C   C6150     1.0  0.58728  0.63612  0.23419  1.0000
  H   H4915     1.0  0.51032  0.81143  0.35361  1.0000
  C   C6151     1.0  0.88698  0.75246  0.33420  1.0000
  C   C6152     1.0  0.85498  0.76282  0.34170  1.0000
  C   C6153     1.0  0.72576  0.48514  0.22868  1.0000
  C   C6154     1.0  0.56674  0.58208  0.36682  1.0000
  H   H4916     1.0  0.64023  0.68605  0.36345  1.0000
  H   H4917     1.0  0.54506  0.48860  0.32316  1.0000
  H   H4918     1.0  0.58928  0.71772  0.37187  1.0000
  H   H4919     1.0  0.85699  0.79396  0.37288  1.0000
  S   S821      1.0  0.93939  0.82262  0.36668  1.0000
  H   H4920     1.0  0.98175  0.94423  0.22371  1.0000
  S   S822      1.0  0.49189  0.73721  0.26486  1.0000
  H   H4921     1.0  0.49925  0.72554  0.37515  1.0000
  C   C6155     1.0  0.63799  0.84620  0.36920  1.0000
  C   C6156     1.0  0.68011  0.70135  0.37378  1.0000
  C   C6157     1.0  0.70644  0.81175  0.37074  1.0000
  H   H4922     1.0  0.72004  0.81167  0.37106  1.0000
  H   H4923     1.0  0.98545  0.87419  0.33340  1.0000
  H   H4924     1.0  0.98553  0.97476  0.22142  1.0000
  C   C6158     1.0  0.66215  0.64310  0.37402  1.0000
  H   H4925     1.0  0.70490  0.68221  0.37275  1.0000
  C   C6159     1.0  0.72129  0.48213  0.24731  1.0000
  C   C6160     1.0  0.49153  0.92026  0.36211  1.0000
  P   P207      1.0  0.83575  0.76822  0.37516  1.0000
  H   H4926     1.0  0.67538  0.48098  0.22365  1.0000
  S   S823      1.0  0.66290  0.48114  0.29922  1.0000
  H   H4927     1.0  0.87216  0.89598  0.37530  1.0000
  S   S824      1.0  0.76654  0.80562  0.37559  1.0000
  C   C6161     1.0  0.81695  0.75932  0.37505  1.0000
  C   C6162     1.0  0.78739  0.74542  0.37616  1.0000
  S   S825      1.0  0.72140  0.75038  0.37633  1.0000
  H   H4928     1.0  0.77580  0.74051  0.37627  1.0000
  H   H4929     1.0  0.94249  0.90597  0.39139  1.0000
  H   H4930     1.0  0.64688  0.66258  0.38962  1.0000
  H   H4931     1.0  0.61811  0.94992  0.49859  1.0000
  H   H4932     1.0  0.92073  0.78423  0.52967  1.0000
  C   C6163     1.0  0.61471  0.94643  0.52715  1.0000
  Fe  Fe413     1.0  0.57615  0.80973  0.40416  1.0000
  S   S826      1.0  0.58960  0.80823  0.42674  1.0000
  H   H4933     1.0  0.84744  0.87997  0.49908  1.0000
  H   H4934     1.0  0.82642  0.80634  0.45837  1.0000
  H   H4935     1.0  0.70120  0.77945  0.54389  1.0000
  Fe  Fe414     1.0  0.60864  0.85532  0.52538  1.0000
  S   S827      1.0  0.59097  0.87906  0.51180  1.0000
  S   S828      1.0  0.60242  0.84742  0.55549  1.0000
  Fe  Fe415     1.0  0.63363  0.84935  0.49056  1.0000
  S   S829      1.0  0.61877  0.87315  0.47416  1.0000
  S   S830      1.0  0.65582  0.82939  0.47814  1.0000
  Fe  Fe416     1.0  0.61666  0.88695  0.49633  1.0000
  S   S831      1.0  0.61908  0.91561  0.49181  1.0000
  Fe  Fe417     1.0  0.59443  0.86328  0.49082  1.0000
  S   S832      1.0  0.57213  0.86356  0.47745  1.0000
  S   S833      1.0  0.63428  0.86404  0.51100  1.0000
  S   S834      1.0  0.60942  0.83863  0.50614  1.0000
  Fe  Fe418     1.0  0.93343  0.81970  0.39647  1.0000
  S   S835      1.0  0.92369  0.84871  0.39677  1.0000
  S   S836      1.0  0.95095  0.79954  0.41357  1.0000
  Fe  Fe419     1.0  0.89680  0.84419  0.39704  1.0000
  S   S837      1.0  0.87133  0.85345  0.41565  1.0000
  S   S838      1.0  0.90620  0.81490  0.39979  1.0000
  C   C6164     1.0  0.52774  0.96758  0.50509  1.0000
  S   S839      1.0  0.88210  0.67004  0.56270  1.0000
  S   S840      1.0  0.92954  0.67812  0.55845  1.0000
  H   H4936     1.0  0.49491  0.88164  0.39854  1.0000
  S   S841      1.0  0.87677  0.62282  0.55798  1.0000
  H   H4937     1.0  0.83051  0.75968  0.57582  1.0000
  H   H4938     1.0  0.96142  0.94010  0.40377  1.0000
  Fe  Fe420     1.0  0.94122  0.54058  0.52865  1.0000
  S   S842      1.0  0.94481  0.52544  0.55596  1.0000
  S   S843      1.0  0.94265  0.56961  0.52231  1.0000
  S   S844      1.0  0.57238  0.83490  0.38377  1.0000
  C   C6165     1.0  0.96237  0.96786  0.39569  1.0000
  H   H4939     1.0  0.53886  0.92249  0.46018  1.0000
  S   S845      1.0  0.61110  0.94042  0.56391  1.0000
  Fe  Fe421     1.0  0.96509  0.50574  0.54145  1.0000
  C   C6166     1.0  0.58160  0.92602  0.47028  1.0000
  S   S846      1.0  0.91954  0.52748  0.52802  1.0000
  S   S847      1.0  0.96279  0.52168  0.51412  1.0000
  Fe  Fe422     1.0  0.81295  0.81795  0.53617  1.0000
  H   H4940     1.0  0.55422  0.89847  0.49589  1.0000
  S   S848      1.0  0.79256  0.82697  0.51883  1.0000
  S   S849      1.0  0.84276  0.81445  0.52755  1.0000
  H   H4941     1.0  0.85121  0.73380  0.39507  1.0000
  S   S850      1.0  0.95645  0.83094  0.50159  1.0000
  C   C6167     1.0  0.55548  0.75837  0.55756  1.0000
  H   H4942     1.0  0.67362  0.76756  0.55422  1.0000
  S   S851      1.0  0.96605  0.85773  0.52218  1.0000
  C   C6168     1.0  0.69624  0.58409  0.40651  1.0000
  C   C6169     1.0  0.96925  0.94997  0.40211  1.0000
  S   S852      1.0  0.93832  0.49585  0.49373  1.0000
  Fe  Fe423     1.0  0.95174  0.86022  0.50037  1.0000
  S   S853      1.0  0.92541  0.87937  0.49865  1.0000
  C   C6170     1.0  0.49920  0.82986  0.38428  1.0000
  C   C6171     1.0  0.83760  0.86056  0.38282  1.0000
  Fe  Fe424     1.0  0.76550  0.81688  0.39919  1.0000
  S   S854      1.0  0.75853  0.84662  0.39464  1.0000
  C   C6172     1.0  0.98318  0.79816  0.44576  1.0000
  Fe  Fe425     1.0  0.77707  0.81335  0.43407  1.0000
  S   S855      1.0  0.77131  0.84294  0.43176  1.0000
  S   S856      1.0  0.78838  0.79323  0.45660  1.0000
  Fe  Fe426     1.0  0.74630  0.84274  0.42373  1.0000
  S   S857      1.0  0.72201  0.86233  0.43380  1.0000
  Fe  Fe427     1.0  0.78396  0.84411  0.40303  1.0000
  S   S858      1.0  0.80238  0.86182  0.38607  1.0000
  S   S859      1.0  0.75100  0.81290  0.42786  1.0000
  S   S860      1.0  0.79196  0.81460  0.40574  1.0000
  C   C6173     1.0  0.97127  0.68286  0.57602  1.0000
  H   H4943     1.0  0.57624  0.91827  0.55502  1.0000
  H   H4944     1.0  0.70827  0.87012  0.47648  1.0000
  C   C6174     1.0  0.98197  0.61861  0.55202  1.0000
  C   C6175     1.0  0.83522  0.80649  0.44544  1.0000
  H   H4945     1.0  0.66220  0.66919  0.41660  1.0000
  C   C6176     1.0  0.97447  0.67945  0.52508  1.0000
  H   H4946     1.0  0.67503  0.82300  0.50797  1.0000
  C   C6177     1.0  0.92468  0.72651  0.56695  1.0000
  C   C6178     1.0  0.61986  0.84517  0.39901  1.0000
  C   C6179     1.0  0.87143  0.86386  0.52575  1.0000
  C   C6180     1.0  0.89314  0.89153  0.38953  1.0000
  C   C6181     1.0  0.88952  0.88594  0.51060  1.0000
  C   C6182     1.0  0.90498  0.87264  0.50911  1.0000
  C   C6183     1.0  0.90363  0.85474  0.51568  1.0000
  C   C6184     1.0  0.88677  0.85033  0.52381  1.0000
  H   H4947     1.0  0.89042  0.89975  0.50553  1.0000
  H   H4948     1.0  0.91549  0.84436  0.51440  1.0000
  H   H4949     1.0  0.88570  0.83657  0.52874  1.0000
  C   C6185     1.0  0.79440  0.81673  0.50113  1.0000
  C   C6186     1.0  0.79252  0.82756  0.48451  1.0000
  C   C6187     1.0  0.79106  0.82033  0.47077  1.0000
  C   C6188     1.0  0.79128  0.80222  0.47353  1.0000
  C   C6189     1.0  0.79394  0.79117  0.48995  1.0000
  C   C6190     1.0  0.79555  0.79840  0.50376  1.0000
  H   H4950     1.0  0.79169  0.84173  0.48236  1.0000
  H   H4951     1.0  0.78988  0.82885  0.45803  1.0000
  H   H4952     1.0  0.79428  0.77710  0.49215  1.0000
  H   H4953     1.0  0.79691  0.78997  0.51662  1.0000
  H   H4954     1.0  0.61448  0.96017  0.52677  1.0000
  S   S861      1.0  0.97106  0.80889  0.54787  1.0000
  H   H4955     1.0  0.86144  0.92569  0.44461  1.0000
  H   H4956     1.0  0.72096  0.59332  0.39863  1.0000
  C   C6191     1.0  0.89520  0.60828  0.54780  1.0000
  C   C6192     1.0  0.89235  0.59419  0.54201  1.0000
  C   C6193     1.0  0.90685  0.58188  0.53474  1.0000
  C   C6194     1.0  0.92428  0.58415  0.53237  1.0000
  C   C6195     1.0  0.92713  0.59857  0.53760  1.0000
  C   C6196     1.0  0.91266  0.61036  0.54565  1.0000
  H   H4957     1.0  0.87893  0.59275  0.54313  1.0000
  H   H4958     1.0  0.90455  0.57095  0.53047  1.0000
  H   H4959     1.0  0.94056  0.60051  0.53558  1.0000
  H   H4960     1.0  0.91503  0.62116  0.54998  1.0000
  C   C6197     1.0  0.94283  0.90649  0.37757  1.0000
  C   C6198     1.0  0.91481  0.77509  0.44643  1.0000
  C   C6199     1.0  0.90924  0.89249  0.54316  1.0000
  C   C6200     1.0  0.61313  0.93431  0.54349  1.0000
  H   H4961     1.0  0.87408  0.87276  0.47623  1.0000
  H   H4962     1.0  0.88275  0.50005  0.38108  1.0000
  H   H4963     1.0  0.94804  0.72877  0.52419  1.0000
  P   P208      1.0  0.55149  0.95896  0.50423  1.0000
  H   H4964     1.0  0.89617  0.85923  0.43119  1.0000
  C   C6201     1.0  0.96123  0.80627  0.42715  1.0000
  C   C6202     1.0  0.95771  0.82391  0.42925  1.0000
  C   C6203     1.0  0.96687  0.82861  0.43982  1.0000
  H   H4965     1.0  0.62677  0.76163  0.38018  1.0000
  H   H4966     1.0  0.57942  0.89969  0.46994  1.0000
  H   H4967     1.0  0.52498  0.97913  0.45369  1.0000
  C   C6204     1.0  0.86171  0.89956  0.40235  1.0000
  H   H4968     1.0  0.75099  0.77996  0.46076  1.0000
  S   S862      1.0  0.54977  0.80348  0.40469  1.0000
  C   C6205     1.0  0.85208  0.85575  0.40756  1.0000
  C   C6206     1.0  0.85289  0.85890  0.38926  1.0000
  H   H4969     1.0  0.87343  0.55354  0.56561  1.0000
  C   C6207     1.0  0.82134  0.85917  0.39465  1.0000
  C   C6208     1.0  0.82036  0.85613  0.41301  1.0000
  C   C6209     1.0  0.83573  0.85458  0.41947  1.0000
  H   H4970     1.0  0.80778  0.85509  0.42221  1.0000
  H   H4971     1.0  0.83502  0.85210  0.43366  1.0000
  C   C6210     1.0  0.56345  0.84292  0.52428  1.0000
  C   C6211     1.0  0.62153  0.83836  0.56482  1.0000
  C   C6212     1.0  0.63774  0.83184  0.55424  1.0000
  C   C6213     1.0  0.65301  0.82482  0.56158  1.0000
  Fe  Fe428     1.0  0.97262  0.82864  0.52182  1.0000
  C   C6214     1.0  0.72386  0.90509  0.57639  1.0000
  C   C6215     1.0  0.72650  0.79717  0.47071  1.0000
  H   H4972     1.0  0.63846  0.83209  0.54042  1.0000
  H   H4973     1.0  0.66540  0.81948  0.55341  1.0000
  H   H4974     1.0  0.76513  0.82911  0.57600  1.0000
  C   C6216     1.0  0.67367  0.83892  0.46500  1.0000
  C   C6217     1.0  0.67408  0.85639  0.46497  1.0000
  C   C6218     1.0  0.68865  0.86375  0.45466  1.0000
  C   C6219     1.0  0.70309  0.85347  0.44491  1.0000
  C   C6220     1.0  0.70245  0.83617  0.44458  1.0000
  C   C6221     1.0  0.68769  0.82891  0.45457  1.0000
  H   H4975     1.0  0.66319  0.86421  0.47290  1.0000
  H   H4976     1.0  0.68893  0.87729  0.45460  1.0000
  H   H4977     1.0  0.71330  0.82843  0.43661  1.0000
  H   H4978     1.0  0.68725  0.81547  0.45443  1.0000
  H   H4979     1.0  0.91462  0.83004  0.44106  1.0000
  C   C6222     1.0  0.58487  0.82522  0.43907  1.0000
  C   C6223     1.0  0.59799  0.82655  0.44735  1.0000
  C   C6224     1.0  0.59442  0.83889  0.45836  1.0000
  C   C6225     1.0  0.57740  0.84953  0.46190  1.0000
  C   C6226     1.0  0.56428  0.84849  0.45341  1.0000
  C   C6227     1.0  0.56805  0.83653  0.44186  1.0000
  H   H4980     1.0  0.61099  0.81792  0.44542  1.0000
  H   H4981     1.0  0.60471  0.83975  0.46460  1.0000
  H   H4982     1.0  0.55110  0.85677  0.45596  1.0000
  H   H4983     1.0  0.55779  0.83562  0.43562  1.0000
  H   H4984     1.0  0.82492  0.78580  0.40576  1.0000
  H   H4985     1.0  0.54251  0.92377  0.51135  1.0000
  S   S863      1.0  0.94550  0.48920  0.54260  1.0000
  C   C6228     1.0  0.91277  0.92868  0.45327  1.0000
  C   C6229     1.0  0.66225  0.70567  0.38261  1.0000
  S   S864      1.0  0.56190  0.76170  0.38109  1.0000
  C   C6230     1.0  0.73176  0.77218  0.39183  1.0000
  C   C6231     1.0  0.74161  0.78458  0.39185  1.0000
  H   H4986     1.0  0.95971  0.87184  0.40875  1.0000
  H   H4987     1.0  0.92698  0.93808  0.40825  1.0000
  H   H4988     1.0  0.72212  0.76799  0.40360  1.0000
  H   H4989     1.0  0.73962  0.78991  0.40361  1.0000
  P   P209      1.0  0.57937  0.79212  0.51525  1.0000
  C   C6232     1.0  0.61670  0.94062  0.51125  1.0000
  C   C6233     1.0  0.61678  0.92281  0.51169  1.0000
  C   C6234     1.0  0.61501  0.91084  0.52804  1.0000
  C   C6235     1.0  0.61332  0.91656  0.54380  1.0000
  H   H4990     1.0  0.61494  0.89713  0.52859  1.0000
  H   H4991     1.0  0.61169  0.90725  0.55637  1.0000
  C   C6236     1.0  0.63961  0.75989  0.38351  1.0000
  C   C6237     1.0  0.48994  0.97901  0.41539  1.0000
  H   H4992     1.0  0.94828  0.83397  0.42245  1.0000
  H   H4993     1.0  0.71947  0.83811  0.48568  1.0000
  H   H4994     1.0  0.96482  0.58237  0.55547  1.0000
  C   C6238     1.0  0.91047  0.91917  0.42254  1.0000
  H   H4995     1.0  0.50834  0.81905  0.39077  1.0000
  H   H4996     1.0  0.81352  0.81524  0.43155  1.0000
  H   H4997     1.0  0.76190  0.77269  0.48878  1.0000
  H   H4998     1.0  0.69919  0.57590  0.41904  1.0000
  H   H4999     1.0  0.49174  0.97193  0.39040  1.0000
  H   H5000     1.0  0.50409  0.97423  0.41511  1.0000
  C   C6239     1.0  0.51218  0.93465  0.45602  1.0000
  C   C6240     1.0  0.56303  0.97675  0.49227  1.0000
  C   C6241     1.0  0.57363  0.82384  0.55036  1.0000
  H   H5001     1.0  0.91281  0.72222  0.57538  1.0000
  C   C6242     1.0  0.98212  0.78748  0.54461  1.0000
  H   H5002     1.0  0.83320  0.81748  0.40163  1.0000
  H   H5003     1.0  0.68377  0.88642  0.49658  1.0000
  C   C6243     1.0  0.56003  0.77374  0.54585  1.0000
  H   H5004     1.0  0.92933  0.85102  0.47868  1.0000
  H   H5005     1.0  0.74381  0.78525  0.51454  1.0000
  C   C6244     1.0  0.49901  0.96567  0.50077  1.0000
  H   H5006     1.0  0.52278  0.94614  0.49596  1.0000
  H   H5007     1.0  0.89629  0.90998  0.46773  1.0000
  C   C6245     1.0  0.57784  0.74021  0.53880  1.0000
  C   C6246     1.0  0.66921  0.74260  0.38616  1.0000
  H   H5008     1.0  0.92926  0.94637  0.43553  1.0000
  H   H5009     1.0  0.86446  0.78752  0.50130  1.0000
  H   H5010     1.0  0.98465  0.70361  0.51745  1.0000
  H   H5011     1.0  0.69347  0.66145  0.40017  1.0000
  C   C6247     1.0  0.85840  0.91557  0.45639  1.0000
  C   C6248     1.0  0.85307  0.78216  0.48168  1.0000
  H   H5012     1.0  0.64801  0.81052  0.51780  1.0000
  C   C6249     1.0  0.57394  0.91104  0.47629  1.0000
  H   H5013     1.0  0.61087  0.77005  0.52948  1.0000
  C   C6250     1.0  0.96894  0.62654  0.56490  1.0000
  H   H5014     1.0  0.97017  0.63861  0.56798  1.0000
  C   C6251     1.0  0.90236  0.87217  0.44906  1.0000
  C   C6252     1.0  0.91366  0.84104  0.44723  1.0000
  H   H5015     1.0  0.79935  0.77249  0.39580  1.0000
  C   C6253     1.0  0.98641  0.94476  0.40573  1.0000
  H   H5016     1.0  0.90970  0.91611  0.41034  1.0000
  C   C6254     1.0  0.83951  0.82382  0.48220  1.0000
  C   C6255     1.0  0.54095  0.80743  0.48518  1.0000
  C   C6256     1.0  0.54954  0.80033  0.47005  1.0000
  C   C6257     1.0  0.56698  0.79038  0.46885  1.0000
  C   C6258     1.0  0.57609  0.78801  0.48246  1.0000
  C   C6259     1.0  0.56779  0.79564  0.49742  1.0000
  C   C6260     1.0  0.54992  0.80482  0.49898  1.0000
  H   H5017     1.0  0.84996  0.76692  0.52641  1.0000
  C   C6261     1.0  0.75394  0.79010  0.37653  1.0000
  H   H5018     1.0  0.96794  0.74001  0.53632  1.0000
  S   S865      1.0  0.81073  0.83890  0.55116  1.0000
  H   H5019     1.0  0.96452  0.84228  0.44112  1.0000
  H   H5020     1.0  0.83229  0.81356  0.48987  1.0000
  C   C6262     1.0  0.62762  0.79993  0.48432  1.0000
  C   C6263     1.0  0.60936  0.80062  0.49065  1.0000
  C   C6264     1.0  0.84326  0.91959  0.46955  1.0000
  C   C6265     1.0  0.97261  0.98059  0.39298  1.0000
  C   C6266     1.0  0.51897  0.74467  0.40265  1.0000
  C   C6267     1.0  0.85612  0.77992  0.49884  1.0000
  H   H5021     1.0  0.98178  0.79340  0.51662  1.0000
  H   H5022     1.0  0.68638  0.87983  0.39091  1.0000
  H   H5023     1.0  0.82545  0.75300  0.49107  1.0000
  H   H5024     1.0  0.54280  0.80263  0.45915  1.0000
  H   H5025     1.0  0.57361  0.78488  0.45710  1.0000
  H   H5026     1.0  0.58967  0.78042  0.48111  1.0000
  H   H5027     1.0  0.54300  0.81024  0.51070  1.0000
  C   C6268     1.0  0.55969  0.91040  0.49094  1.0000
  H   H5028     1.0  0.63227  0.80889  0.47211  1.0000
  H   H5029     1.0  0.60001  0.81008  0.48330  1.0000
  H   H5030     1.0  0.68374  0.83865  0.53691  1.0000
  C   C6269     1.0  0.71652  0.80512  0.48498  1.0000
  C   C6270     1.0  0.56023  0.94022  0.49319  1.0000
  C   C6271     1.0  0.68918  0.84538  0.52369  1.0000
  C   C6272     1.0  0.58885  0.72364  0.39691  1.0000
  P   P210      1.0  0.70961  0.81209  0.51893  1.0000
  C   C6273     1.0  0.70850  0.59391  0.39502  1.0000
  H   H5031     1.0  0.91083  0.88017  0.46910  1.0000
  H   H5032     1.0  0.96918  0.90423  0.45011  1.0000
  C   C6274     1.0  0.55305  0.92479  0.49956  1.0000
  H   H5033     1.0  0.59322  0.92613  0.45948  1.0000
  H   H5034     1.0  0.97437  0.48105  0.44591  1.0000
  C   C6275     1.0  0.62494  0.72508  0.38338  1.0000
  H   H5035     1.0  0.86519  0.86041  0.38000  1.0000
  H   H5036     1.0  0.67073  0.57716  0.41070  1.0000
  C   C6276     1.0  0.84626  0.74294  0.40412  1.0000
  C   C6277     1.0  0.84705  0.73669  0.42213  1.0000
  C   C6278     1.0  0.83997  0.74815  0.43411  1.0000
  C   C6279     1.0  0.83216  0.76587  0.42807  1.0000
  C   C6280     1.0  0.83152  0.77219  0.41005  1.0000
  Fe  Fe429     1.0  0.88301  0.64073  0.57254  1.0000
  H   H5037     1.0  0.53327  0.74380  0.39947  1.0000
  C   C6281     1.0  0.90819  0.82059  0.55816  1.0000
  Fe  Fe430     1.0  0.84057  0.83382  0.54452  1.0000
  H   H5038     1.0  0.88700  0.72667  0.42766  1.0000
  C   C6282     1.0  0.98663  0.83092  0.57502  1.0000
  H   H5039     1.0  0.67590  0.97773  0.55891  1.0000
  C   C6283     1.0  0.83867  0.76080  0.39791  1.0000
  H   H5040     1.0  0.95870  0.69521  0.55371  1.0000
  C   C6284     1.0  0.96595  0.59473  0.55808  1.0000
  C   C6285     1.0  0.83246  0.84131  0.48450  1.0000
  C   C6286     1.0  0.98162  0.83154  0.38089  1.0000
  C   C6287     1.0  0.95059  0.89318  0.44295  1.0000
  C   C6288     1.0  0.90042  0.79726  0.54872  1.0000
  H   H5041     1.0  0.49688  0.83751  0.44272  1.0000
  C   C6289     1.0  0.67452  0.82041  0.38186  1.0000
  H   H5042     1.0  0.50992  0.53270  0.40541  1.0000
  H   H5043     1.0  0.85275  0.72285  0.42687  1.0000
  H   H5044     1.0  0.84017  0.74324  0.44813  1.0000
  H   H5045     1.0  0.82610  0.77465  0.43741  1.0000
  H   H5046     1.0  0.96101  0.68623  0.52367  1.0000
  C   C6290     1.0  0.98774  0.68926  0.52163  1.0000
  C   C6291     1.0  0.69121  0.68537  0.37994  1.0000
  C   C6292     1.0  0.92031  0.93188  0.42124  1.0000
  C   C6293     1.0  0.71201  0.80536  0.55474  1.0000
  C   C6294     1.0  0.92476  0.81805  0.54630  1.0000
  C   C6295     1.0  0.50920  0.75128  0.38913  1.0000
  C   C6296     1.0  0.66136  0.96953  0.54412  1.0000
  C   C6297     1.0  0.56534  0.94468  0.56001  1.0000
  C   C6298     1.0  0.92279  0.86177  0.55366  1.0000
  C   C6299     1.0  0.57934  0.97701  0.49597  1.0000
  C   C6300     1.0  0.83926  0.90676  0.48490  1.0000
  H   H5047     1.0  0.67138  0.87055  0.52667  1.0000
  C   C6301     1.0  0.92154  0.93658  0.43659  1.0000
  C   C6302     1.0  0.55601  0.95292  0.52652  1.0000
  H   H5048     1.0  0.82761  0.90989  0.49516  1.0000
  H   H5049     1.0  0.52741  0.81512  0.48612  1.0000
  C   C6303     1.0  0.51032  0.73944  0.42026  1.0000
  C   C6304     1.0  0.95129  0.73803  0.56263  1.0000
  H   H5050     1.0  0.56086  0.72971  0.56314  1.0000
  H   H5051     1.0  0.93452  0.82574  0.54534  1.0000
  C   C6305     1.0  0.50347  0.84665  0.37778  1.0000
  C   C6306     1.0  0.51718  0.95854  0.50031  1.0000
  C   C6307     1.0  0.85526  0.81992  0.46958  1.0000
  H   H5052     1.0  0.98376  0.50111  0.46634  1.0000
  C   C6308     1.0  0.94798  0.88430  0.43106  1.0000
  H   H5053     1.0  0.83495  0.86865  0.47510  1.0000
  S   S866      1.0  0.97569  0.86455  0.47849  1.0000
  H   H5054     1.0  0.98493  0.77780  0.57182  1.0000
  H   H5055     1.0  0.83020  0.74999  0.52157  1.0000
  H   H5056     1.0  0.97986  0.53321  0.53965  1.0000
  C   C6309     1.0  0.85042  0.88993  0.48711  1.0000
  C   C6310     1.0  0.86558  0.88586  0.47400  1.0000
  H   H5057     1.0  0.64233  0.69706  0.40553  1.0000
  C   C6311     1.0  0.98272  0.86240  0.37767  1.0000
  C   C6312     1.0  0.98072  0.60232  0.54906  1.0000
  C   C6313     1.0  0.65977  0.77191  0.39317  1.0000
  H   H5058     1.0  0.55271  0.78663  0.54857  1.0000
  C   C6314     1.0  0.66713  0.67808  0.40451  1.0000
  C   C6315     1.0  0.86583  0.89897  0.41864  1.0000
  P   P211      1.0  0.88937  0.89395  0.44147  1.0000
  C   C6316     1.0  0.63374  0.77727  0.51018  1.0000
  C   C6317     1.0  0.93566  0.73318  0.57387  1.0000
  H   H5059     1.0  0.50890  0.92214  0.45633  1.0000
  C   C6318     1.0  0.75385  0.83738  0.57045  1.0000
  C   C6319     1.0  0.98738  0.77444  0.55895  1.0000
  C   C6320     1.0  0.92314  0.83865  0.46054  1.0000
  H   H5060     1.0  0.85497  0.90126  0.42980  1.0000
  C   C6321     1.0  0.56705  0.82819  0.51640  1.0000
  C   C6322     1.0  0.68474  0.67372  0.39531  1.0000
  Fe  Fe431     1.0  0.94150  0.50676  0.51629  1.0000
  C   C6323     1.0  0.88370  0.89483  0.42047  1.0000
  H   H5061     1.0  0.97705  0.82149  0.37725  1.0000
  C   C6324     1.0  0.86958  0.89861  0.45842  1.0000
  H   H5062     1.0  0.91373  0.93226  0.46523  1.0000
  C   C6325     1.0  0.67270  0.75640  0.39174  1.0000
  C   C6326     1.0  0.90293  0.91594  0.45463  1.0000
  C   C6327     1.0  0.90330  0.85772  0.44153  1.0000
  C   C6328     1.0  0.49869  0.53191  0.41660  1.0000
  C   C6329     1.0  0.72109  0.80194  0.56860  1.0000
  H   H5063     1.0  0.77374  0.75989  0.39694  1.0000
  C   C6330     1.0  0.65254  0.74413  0.38216  1.0000
  H   H5064     1.0  0.87373  0.75598  0.37760  1.0000
  C   C6331     1.0  0.64322  0.77370  0.38903  1.0000
  H   H5065     1.0  0.58463  0.72722  0.53598  1.0000
  H   H5066     1.0  0.93163  0.82592  0.46461  1.0000
  C   C6332     1.0  0.89729  0.89078  0.40583  1.0000
  C   C6333     1.0  0.84793  0.76828  0.51311  1.0000
  H   H5067     1.0  0.73468  0.91171  0.56897  1.0000
  C   C6334     1.0  0.87162  0.73312  0.56734  1.0000
  H   H5068     1.0  0.98126  0.69094  0.57158  1.0000
  C   C6335     1.0  0.85378  0.80229  0.44398  1.0000
  C   C6336     1.0  0.89598  0.79785  0.46971  1.0000
  H   H5069     1.0  0.86125  0.89215  0.52067  1.0000
  C   C6337     1.0  0.91461  0.79301  0.46691  1.0000
  C   C6338     1.0  0.67644  0.59532  0.38562  1.0000
  C   C6339     1.0  0.57353  0.81108  0.52568  1.0000
  C   C6340     1.0  0.63983  0.78827  0.49408  1.0000
  C   C6341     1.0  0.98572  0.78335  0.52779  1.0000
  C   C6342     1.0  0.63658  0.84119  0.38775  1.0000
  H   H5070     1.0  0.57692  0.82237  0.56317  1.0000
  Fe  Fe432     1.0  0.84278  0.79400  0.55330  1.0000
  C   C6343     1.0  0.70618  0.91369  0.57554  1.0000
  C   C6344     1.0  0.67360  0.95028  0.56908  1.0000
  H   H5071     1.0  0.82019  0.84423  0.49412  1.0000
  H   H5072     1.0  0.93899  0.87966  0.38222  1.0000
  C   C6345     1.0  0.96712  0.89752  0.44077  1.0000
  H   H5073     1.0  0.86286  0.86183  0.45285  1.0000
  H   H5074     1.0  0.58303  0.79617  0.54960  1.0000
  Fe  Fe433     1.0  0.81308  0.81681  0.57480  1.0000
  H   H5075     1.0  0.66396  0.59576  0.38215  1.0000
  C   C6346     1.0  0.83899  0.81284  0.41337  1.0000
  H   H5076     1.0  0.56538  0.83037  0.50284  1.0000
  H   H5077     1.0  0.86614  0.81057  0.39858  1.0000
  C   C6347     1.0  0.68234  0.86350  0.51806  1.0000
  H   H5078     1.0  0.55880  0.85612  0.51689  1.0000
  H   H5079     1.0  0.84791  0.90222  0.40118  1.0000
  C   C6348     1.0  0.50383  0.96688  0.45260  1.0000
  H   H5080     1.0  0.91113  0.88688  0.40707  1.0000
  H   H5081     1.0  0.66538  0.63326  0.38560  1.0000
  C   C6349     1.0  0.73921  0.80947  0.53323  1.0000
  H   H5082     1.0  0.87571  0.83103  0.44922  1.0000
  C   C6350     1.0  0.57481  0.94056  0.47865  1.0000
  C   C6351     1.0  0.94534  0.67502  0.57148  1.0000
  C   C6352     1.0  0.56490  0.93567  0.53322  1.0000
  C   C6353     1.0  0.82787  0.81163  0.43024  1.0000
  C   C6354     1.0  0.55675  0.96192  0.55338  1.0000
  C   C6355     1.0  0.85661  0.85120  0.46150  1.0000
  C   C6356     1.0  0.89616  0.77960  0.44948  1.0000
  H   H5083     1.0  0.58131  0.95178  0.47392  1.0000
  C   C6357     1.0  0.65588  0.69395  0.39816  1.0000
  H   H5084     1.0  0.70384  0.81410  0.48371  1.0000
  H   H5085     1.0  0.63321  0.78585  0.38992  1.0000
  C   C6358     1.0  0.73411  0.76547  0.37647  1.0000
  C   C6359     1.0  0.57710  0.80906  0.54260  1.0000
  C   C6360     1.0  0.59708  0.72029  0.37994  1.0000
  C   C6361     1.0  0.89062  0.87129  0.55924  1.0000
  H   H5086     1.0  0.74640  0.81263  0.51965  1.0000
  C   C6362     1.0  0.68924  0.87244  0.50107  1.0000
  H   H5087     1.0  0.96779  0.65368  0.53409  1.0000
  H   H5088     1.0  0.59174  0.85592  0.40064  1.0000
  C   C6363     1.0  0.49776  0.85944  0.42024  1.0000
  H   H5089     1.0  0.49643  0.55839  0.42020  1.0000
  H   H5090     1.0  0.93522  0.88102  0.43257  1.0000
  H   H5091     1.0  0.83999  0.77319  0.46574  1.0000
  C   C6364     1.0  0.80079  0.76352  0.38707  1.0000
  C   C6365     1.0  0.85750  0.80894  0.41170  1.0000
  H   H5092     1.0  0.64681  0.78328  0.54156  1.0000
  H   H5093     1.0  0.72158  0.80009  0.45855  1.0000
  P   P212      1.0  0.90405  0.83536  0.57344  1.0000
  C   C6366     1.0  0.70292  0.86324  0.48970  1.0000
  C   C6367     1.0  0.68022  0.58481  0.40181  1.0000
  C   C6368     1.0  0.89604  0.81005  0.55924  1.0000
  C   C6369     1.0  0.95265  0.60310  0.57043  1.0000
  C   C6370     1.0  0.66920  0.87474  0.41671  1.0000
  C   C6371     1.0  0.65700  0.86463  0.42776  1.0000
  C   C6372     1.0  0.65312  0.85123  0.42189  1.0000
  C   C6373     1.0  0.66143  0.84783  0.40484  1.0000
  H   H5094     1.0  0.85631  0.58453  0.56607  1.0000
  P   P213      1.0  0.65606  0.83071  0.39724  1.0000
  C   C6374     1.0  0.65177  0.81286  0.41604  1.0000
  C   C6375     1.0  0.60467  0.85330  0.39184  1.0000
  H   H5095     1.0  0.87632  0.48501  0.41290  1.0000
  C   C6376     1.0  0.67101  0.96679  0.55737  1.0000
  H   H5096     1.0  0.88055  0.89888  0.54876  1.0000
  S   S867      1.0  0.84994  0.85986  0.53661  1.0000
  C   C6377     1.0  0.83681  0.75867  0.51035  1.0000
  C   C6378     1.0  0.63785  0.80416  0.41809  1.0000
  C   C6379     1.0  0.63514  0.78988  0.43237  1.0000
  C   C6380     1.0  0.64621  0.78429  0.44475  1.0000
  C   C6381     1.0  0.66014  0.79287  0.44276  1.0000
  C   C6382     1.0  0.66302  0.80700  0.42838  1.0000
  H   H5097     1.0  0.94926  0.97176  0.39238  1.0000
  H   H5098     1.0  0.64324  0.76841  0.51782  1.0000
  C   C6383     1.0  0.97830  0.66100  0.53123  1.0000
  H   H5099     1.0  0.58509  0.96663  0.50597  1.0000
  C   C6384     1.0  0.55203  0.96600  0.53678  1.0000
  H   H5100     1.0  0.97461  0.83097  0.57089  1.0000
  H   H5101     1.0  0.69784  0.80562  0.55802  1.0000
  H   H5102     1.0  0.67259  0.88477  0.42153  1.0000
  H   H5103     1.0  0.65072  0.86701  0.44102  1.0000
  H   H5104     1.0  0.64369  0.84350  0.43076  1.0000
  H   H5105     1.0  0.56474  0.85225  0.54702  1.0000
  C   C6385     1.0  0.86387  0.83369  0.45942  1.0000
  H   H5106     1.0  0.49597  0.78934  0.37696  1.0000
  C   C6386     1.0  0.86484  0.80392  0.42695  1.0000
  H   H5107     1.0  0.51795  0.73448  0.43069  1.0000
  C   C6387     1.0  0.88664  0.79154  0.46063  1.0000
  H   H5108     1.0  0.62907  0.80829  0.40869  1.0000
  H   H5109     1.0  0.62419  0.78342  0.43394  1.0000
  H   H5110     1.0  0.64392  0.77341  0.45595  1.0000
  H   H5111     1.0  0.66870  0.78866  0.45238  1.0000
  H   H5112     1.0  0.67396  0.81343  0.42694  1.0000
  H   H5113     1.0  0.69509  0.82565  0.39214  1.0000
  Fe  Fe434     1.0  0.92498  0.51070  0.55426  1.0000
  H   H5114     1.0  0.93749  0.88226  0.53920  1.0000
  C   C6388     1.0  0.49118  0.54633  0.42500  1.0000
  S   S868      1.0  0.52364  0.85069  0.37965  1.0000
  C   C6389     1.0  0.83426  0.71404  0.51665  1.0000
  C   C6390     1.0  0.83146  0.71075  0.53521  1.0000
  C   C6391     1.0  0.84565  0.70871  0.54342  1.0000
  C   C6392     1.0  0.86265  0.71008  0.53314  1.0000
  C   C6393     1.0  0.86558  0.71360  0.51448  1.0000
  C   C6394     1.0  0.85126  0.71537  0.50630  1.0000
  P   P214      1.0  0.88806  0.71286  0.50151  1.0000
  C   C6395     1.0  0.89846  0.72977  0.50359  1.0000
  C   C6396     1.0  0.90047  0.69074  0.50889  1.0000
  C   C6397     1.0  0.91759  0.68806  0.51233  1.0000
  C   C6398     1.0  0.92685  0.67086  0.51824  1.0000
  C   C6399     1.0  0.91907  0.65625  0.52097  1.0000
  C   C6400     1.0  0.90195  0.65880  0.51787  1.0000
  C   C6401     1.0  0.89267  0.67596  0.51182  1.0000
  C   C6402     1.0  0.91424  0.73299  0.49142  1.0000
  C   C6403     1.0  0.92254  0.74608  0.49249  1.0000
  C   C6404     1.0  0.91509  0.75616  0.50564  1.0000
  C   C6405     1.0  0.89936  0.75315  0.51771  1.0000
  C   C6406     1.0  0.89098  0.74005  0.51670  1.0000
  C   C6407     1.0  0.88776  0.71689  0.47812  1.0000
  C   C6408     1.0  0.88055  0.73404  0.46946  1.0000
  C   C6409     1.0  0.88011  0.73748  0.45138  1.0000
  C   C6410     1.0  0.88712  0.72392  0.44175  1.0000
  C   C6411     1.0  0.89442  0.70684  0.45024  1.0000
  C   C6412     1.0  0.89474  0.70329  0.46838  1.0000
  H   H5115     1.0  0.82330  0.71534  0.51030  1.0000
  H   H5116     1.0  0.81836  0.70951  0.54329  1.0000
  H   H5117     1.0  0.84356  0.70563  0.55780  1.0000
  H   H5118     1.0  0.87361  0.70791  0.53979  1.0000
  H   H5119     1.0  0.85314  0.71747  0.49199  1.0000
  H   H5120     1.0  0.92375  0.69912  0.51090  1.0000
  H   H5121     1.0  0.93986  0.66886  0.52127  1.0000
  H   H5122     1.0  0.92624  0.64300  0.52577  1.0000
  H   H5123     1.0  0.89575  0.64745  0.52051  1.0000
  H   H5124     1.0  0.87934  0.67768  0.50966  1.0000
  H   H5125     1.0  0.92020  0.72532  0.48110  1.0000
  H   H5126     1.0  0.93472  0.74847  0.48307  1.0000
  H   H5127     1.0  0.92151  0.76633  0.50645  1.0000
  H   H5128     1.0  0.89364  0.76100  0.52788  1.0000
  H   H5129     1.0  0.87872  0.73818  0.52613  1.0000
  H   H5130     1.0  0.87530  0.74472  0.47675  1.0000
  H   H5131     1.0  0.87440  0.75069  0.44477  1.0000
  C   C6413     1.0  0.65899  0.78834  0.53683  1.0000
  H   H5132     1.0  0.89995  0.69634  0.44274  1.0000
  H   H5133     1.0  0.90055  0.69000  0.47465  1.0000
  H   H5134     1.0  0.65397  0.78821  0.48936  1.0000
  P   P215      1.0  0.86262  0.79836  0.46381  1.0000
  H   H5135     1.0  0.54588  0.97955  0.53179  1.0000
  C   C6414     1.0  0.67406  0.77957  0.54402  1.0000
  H   H5136     1.0  0.97665  0.77982  0.43397  1.0000
  H   H5137     1.0  0.98219  0.91330  0.39161  1.0000
  C   C6415     1.0  0.95436  0.61880  0.57404  1.0000
  H   H5138     1.0  0.83469  0.93271  0.46788  1.0000
  H   H5139     1.0  0.93993  0.89642  0.45403  1.0000
  C   C6416     1.0  0.58243  0.75556  0.52708  1.0000
  C   C6417     1.0  0.92932  0.80484  0.53625  1.0000
  C   C6418     1.0  0.83417  0.76037  0.49320  1.0000
  C   C6419     1.0  0.92443  0.87913  0.54491  1.0000
  H   H5140     1.0  0.51208  0.85570  0.41565  1.0000
  C   C6420     1.0  0.59861  0.72760  0.40720  1.0000
  C   C6421     1.0  0.61663  0.72821  0.40052  1.0000
  C   C6422     1.0  0.56443  0.74161  0.55408  1.0000
  C   C6423     1.0  0.65959  0.80377  0.52360  1.0000
  C   C6424     1.0  0.91713  0.79451  0.53739  1.0000
  C   C6425     1.0  0.84085  0.85502  0.47395  1.0000
  C   C6426     1.0  0.61539  0.77810  0.51664  1.0000
  H   H5141     1.0  0.93480  0.85164  0.55482  1.0000
  C   C6427     1.0  0.52908  0.93483  0.45814  1.0000
  C   C6428     1.0  0.90186  0.91085  0.43929  1.0000
  H   H5142     1.0  0.56912  0.92543  0.52544  1.0000
  H   H5143     1.0  0.59265  0.75430  0.51514  1.0000
  C   C6429     1.0  0.68960  0.78647  0.53830  1.0000
  H   H5144     1.0  0.57472  0.72380  0.40181  1.0000
  H   H5145     1.0  0.56815  0.58132  0.38022  1.0000
  H   H5146     1.0  0.59206  0.73064  0.42016  1.0000
  H   H5147     1.0  0.62397  0.73143  0.40862  1.0000
  C   C6430     1.0  0.53349  0.95097  0.45727  1.0000
  H   H5148     1.0  0.91060  0.90579  0.53591  1.0000
  C   C6431     1.0  0.79923  0.87943  0.51048  1.0000
  C   C6432     1.0  0.80251  0.88458  0.52467  1.0000
  C   C6433     1.0  0.78856  0.88826  0.53896  1.0000
  C   C6434     1.0  0.77136  0.88657  0.53919  1.0000
  C   C6435     1.0  0.76793  0.88139  0.52496  1.0000
  C   C6436     1.0  0.78205  0.87775  0.51061  1.0000
  P   P216      1.0  0.74622  0.87692  0.52665  1.0000
  C   C6437     1.0  0.74639  0.86917  0.50713  1.0000
  C   C6438     1.0  0.74227  0.86004  0.54670  1.0000
  C   C6439     1.0  0.75676  0.84895  0.55391  1.0000
  C   C6440     1.0  0.91154  0.86947  0.46277  1.0000
  H   H5149     1.0  0.54492  0.75947  0.56928  1.0000
  H   H5150     1.0  0.90368  0.88832  0.37833  1.0000
  C   C6441     1.0  0.72485  0.85837  0.55579  1.0000
  C   C6442     1.0  0.74330  0.88153  0.49145  1.0000
  C   C6443     1.0  0.74409  0.87568  0.47604  1.0000
  C   C6444     1.0  0.74802  0.85751  0.47615  1.0000
  C   C6445     1.0  0.75120  0.84517  0.49165  1.0000
  C   C6446     1.0  0.75051  0.85095  0.50709  1.0000
  C   C6447     1.0  0.72857  0.89663  0.52743  1.0000
  C   C6448     1.0  0.73176  0.91268  0.52902  1.0000
  C   C6449     1.0  0.71806  0.92788  0.52906  1.0000
  C   C6450     1.0  0.70111  0.92721  0.52750  1.0000
  C   C6451     1.0  0.69785  0.91140  0.52567  1.0000
  C   C6452     1.0  0.71157  0.89625  0.52538  1.0000
  H   H5151     1.0  0.81012  0.87617  0.49962  1.0000
  H   H5152     1.0  0.81598  0.88520  0.52484  1.0000
  H   H5153     1.0  0.79123  0.89189  0.55010  1.0000
  H   H5154     1.0  0.76086  0.88868  0.55073  1.0000
  H   H5155     1.0  0.78010  0.87296  0.49981  1.0000
  H   H5156     1.0  0.77039  0.84923  0.54689  1.0000
  C   C6453     1.0  0.67704  0.87188  0.39950  1.0000
  C   C6454     1.0  0.74295  0.78568  0.47202  1.0000
  C   C6455     1.0  0.74913  0.78162  0.48784  1.0000
  H   H5157     1.0  0.71342  0.86613  0.55041  1.0000
  H   H5158     1.0  0.74045  0.89568  0.49103  1.0000
  H   H5159     1.0  0.74161  0.88519  0.46396  1.0000
  H   H5160     1.0  0.74838  0.85299  0.46428  1.0000
  H   H5161     1.0  0.75449  0.83109  0.49153  1.0000
  H   H5162     1.0  0.75361  0.84126  0.51881  1.0000
  H   H5163     1.0  0.74481  0.91369  0.52990  1.0000
  H   H5164     1.0  0.72060  0.94026  0.53018  1.0000
  H   H5165     1.0  0.69056  0.93904  0.52743  1.0000
  H   H5166     1.0  0.68474  0.91097  0.52422  1.0000
  H   H5167     1.0  0.70897  0.88430  0.52330  1.0000
  C   C6456     1.0  0.73899  0.78923  0.50228  1.0000
  C   C6457     1.0  0.70931  0.84499  0.49502  1.0000
  H   H5168     1.0  0.88894  0.80668  0.47878  1.0000
  C   C6458     1.0  0.92404  0.78192  0.45502  1.0000
  C   C6459     1.0  0.56677  0.84075  0.54123  1.0000
  C   C6460     1.0  0.72117  0.80833  0.53692  1.0000
  H   H5169     1.0  0.68697  0.88622  0.56400  1.0000
  C   C6461     1.0  0.66659  0.93630  0.56760  1.0000
  C   C6462     1.0  0.95569  0.73649  0.54478  1.0000
  Fe  Fe435     1.0  0.60656  0.96870  0.56752  1.0000
  C   C6463     1.0  0.92200  0.85284  0.46835  1.0000
  H   H5170     1.0  0.68561  0.75519  0.39472  1.0000
  H   H5171     1.0  0.92180  0.79808  0.47373  1.0000
  H   H5172     1.0  0.93852  0.77879  0.45226  1.0000
  C   C6464     1.0  0.65696  0.93921  0.55417  1.0000
  C   C6465     1.0  0.65434  0.95574  0.54253  1.0000
  C   C6466     1.0  0.85833  0.74868  0.56694  1.0000
  H   H5173     1.0  0.88517  0.73376  0.56031  1.0000
  C   C6467     1.0  0.78618  0.75643  0.38774  1.0000
  C   C6468     1.0  0.84235  0.77199  0.47886  1.0000
  C   C6469     1.0  0.95847  0.68526  0.56585  1.0000
  C   C6470     1.0  0.49061  0.75290  0.39319  1.0000
  C   C6471     1.0  0.70245  0.83588  0.51206  1.0000
  C   C6472     1.0  0.60309  0.78966  0.50673  1.0000
  H   H5174     1.0  0.92220  0.76666  0.43705  1.0000
  H   H5175     1.0  0.87902  0.80219  0.42534  1.0000
  C   C6473     1.0  0.72292  0.80163  0.50071  1.0000
  H   H5176     1.0  0.88927  0.77421  0.44268  1.0000
  C   C6474     1.0  0.57378  0.77241  0.53072  1.0000
  C   C6475     1.0  0.68994  0.80256  0.52579  1.0000
  H   H5177     1.0  0.55409  0.97224  0.56094  1.0000
  H   H5178     1.0  0.66278  0.78254  0.39731  1.0000
  C   C6476     1.0  0.87297  0.88161  0.51917  1.0000
  C   C6477     1.0  0.94450  0.73017  0.53795  1.0000
  C   C6478     1.0  0.67497  0.81089  0.51811  1.0000
  H   H5179     1.0  0.65095  0.92896  0.55287  1.0000
  H   H5180     1.0  0.64638  0.95799  0.53263  1.0000
  C   C6479     1.0  0.67289  0.85871  0.39342  1.0000
  H   H5181     1.0  0.94250  0.80237  0.52788  1.0000
  C   C6480     1.0  0.56922  0.93154  0.55002  1.0000
  H   H5182     1.0  0.92027  0.56381  0.56909  1.0000
  S   S869      1.0  0.59162  0.79285  0.38402  1.0000
  H   H5183     1.0  0.61849  0.84186  0.41335  1.0000
  H   H5184     1.0  0.54672  0.95113  0.45858  1.0000
  C   C6481     1.0  0.96200  0.87914  0.41742  1.0000
  C   C6482     1.0  0.52097  0.96692  0.45454  1.0000
  C   C6483     1.0  0.92905  0.72512  0.54905  1.0000
  C   C6484     1.0  0.74830  0.80606  0.54707  1.0000
  C   C6485     1.0  0.66661  0.87319  0.56372  1.0000
  S   S870      1.0  0.81303  0.79592  0.56044  1.0000
  H   H5185     1.0  0.97928  0.56545  0.50054  1.0000
  H   H5186     1.0  0.76230  0.80674  0.54406  1.0000
  H   H5187     1.0  0.67878  0.85691  0.37993  1.0000
  H   H5188     1.0  0.98591  0.62685  0.51204  1.0000
  S   S871      1.0  0.86411  0.76894  0.55468  1.0000
  C   C6486     1.0  0.87536  0.89592  0.38778  1.0000
  H   H5189     1.0  0.67590  0.86274  0.55763  1.0000
  C   C6487     1.0  0.90584  0.85765  0.56098  1.0000
  C   C6488     1.0  0.49136  0.51669  0.42221  1.0000
  C   C6489     1.0  0.69220  0.81991  0.38250  1.0000
  Fe  Fe436     1.0  0.98159  0.83497  0.48157  1.0000
  C   C6490     1.0  0.67283  0.88638  0.56761  1.0000
  H   H5190     1.0  0.67971  0.73096  0.38481  1.0000
  H   H5191     1.0  0.92067  0.71962  0.54396  1.0000
  C   C6491     1.0  0.97376  0.79342  0.43567  1.0000
  C   C6492     1.0  0.70478  0.60443  0.37880  1.0000
  H   H5192     1.0  0.70380  0.92664  0.56702  1.0000
  Fe  Fe437     1.0  0.56494  0.78907  0.38236  1.0000
  H   H5193     1.0  0.88330  0.81130  0.56833  1.0000
  Fe  Fe438     1.0  0.90687  0.66465  0.57357  1.0000
  H   H5194     1.0  0.96027  0.74291  0.56748  1.0000
  C   C6493     1.0  0.97978  0.81570  0.44791  1.0000
  C   C6494     1.0  0.97880  0.88295  0.41549  1.0000
  H   H5195     1.0  0.64351  0.86319  0.56478  1.0000
  C   C6495     1.0  0.98119  0.89245  0.42707  1.0000
  C   C6496     1.0  0.64838  0.87322  0.56804  1.0000
  C   C6497     1.0  0.88969  0.48654  0.38536  1.0000
  H   H5196     1.0  0.49882  0.48685  0.45699  1.0000
  H   H5197     1.0  0.49101  0.95853  0.49717  1.0000
  H   H5198     1.0  0.87733  0.86885  0.56446  1.0000
  H   H5199     1.0  0.89097  0.78920  0.54966  1.0000
  C   C6498     1.0  0.49966  0.95059  0.45312  1.0000
  H   H5200     1.0  0.49712  0.50584  0.41519  1.0000
  Fe  Fe439     1.0  0.54722  0.82774  0.38255  1.0000
  C   C6499     1.0  0.89235  0.88859  0.55039  1.0000
  C   C6500     1.0  0.72198  0.84651  0.57217  1.0000
  C   C6501     1.0  0.49185  0.74074  0.42439  1.0000
  H   H5201     1.0  0.56948  0.94162  0.57264  1.0000
  S   S872      1.0  0.84286  0.81321  0.56961  1.0000
  H   H5202     1.0  0.86764  0.84254  0.56713  1.0000
  C   C6502     1.0  0.73932  0.80189  0.56476  1.0000
  S   S873      1.0  0.90108  0.50616  0.57597  1.0000
  C   C6503     1.0  0.48918  0.84916  0.43550  1.0000
  C   C6504     1.0  0.84083  0.74774  0.57604  1.0000
  H   H5203     1.0  0.74637  0.79911  0.57552  1.0000
  C   C6505     1.0  0.97551  0.54273  0.59528  1.0000
  H   H5204     1.0  0.87593  0.48769  0.69397  1.0000
  C   C6506     1.0  0.57790  0.93982  0.66005  1.0000
  Fe  Fe440     1.0  0.67434  0.81626  0.61524  1.0000
  S   S874      1.0  0.69738  0.82652  0.61723  1.0000
  C   C6507     1.0  0.70966  0.95795  0.75613  1.0000
  Fe  Fe441     1.0  0.66481  0.80343  0.65549  1.0000
  S   S875      1.0  0.68731  0.81247  0.66073  1.0000
  S   S876      1.0  0.64410  0.79133  0.67715  1.0000
  Fe  Fe442     1.0  0.67908  0.83705  0.64062  1.0000
  S   S877      1.0  0.67680  0.86600  0.64019  1.0000
  Fe  Fe443     1.0  0.70346  0.80116  0.63679  1.0000
  S   S878      1.0  0.73084  0.78360  0.63278  1.0000
  S   S879      1.0  0.65541  0.82892  0.63693  1.0000
  S   S880      1.0  0.68164  0.79000  0.63339  1.0000
  C   C6508     1.0  0.92728  0.50481  0.62637  1.0000
  S   S881      1.0  0.66955  0.73857  0.74484  1.0000
  C   C6509     1.0  0.57267  0.82484  0.71312  1.0000
  Fe  Fe444     1.0  0.89255  0.64020  0.60749  1.0000
  H   H5205     1.0  0.52903  0.93857  0.74991  1.0000
  S   S882      1.0  0.90073  0.61991  0.63111  1.0000
  C   C6510     1.0  0.89803  0.70767  0.63788  1.0000
  S   S883      1.0  0.89271  0.66931  0.60081  1.0000
  S   S884      1.0  0.86646  0.64373  0.59964  1.0000
  C   C6511     1.0  0.84861  0.83675  0.61123  1.0000
  H   H5206     1.0  0.50178  0.85374  0.75567  1.0000
  P   P217      1.0  0.75681  0.73480  0.67283  1.0000
  H   H5207     1.0  0.82303  0.73048  0.59201  1.0000
  C   C6512     1.0  0.74662  0.97730  0.71500  1.0000
  S   S885      1.0  0.79540  0.82293  0.60064  1.0000
  H   H5208     1.0  0.61011  0.97497  0.66164  1.0000
  C   C6513     1.0  0.60766  0.96427  0.70596  1.0000
  Fe  Fe445     1.0  0.86118  0.56274  0.72722  1.0000
  S   S886      1.0  0.87509  0.57966  0.73561  1.0000
  S   S887      1.0  0.87766  0.54162  0.71188  1.0000
  Fe  Fe446     1.0  0.82410  0.58277  0.74157  1.0000
  S   S888      1.0  0.83474  0.60113  0.75128  1.0000
  S   S889      1.0  0.79535  0.58724  0.73957  1.0000
  Fe  Fe447     1.0  0.85450  0.60261  0.72529  1.0000
  S   S890      1.0  0.85907  0.62929  0.70859  1.0000
  Fe  Fe448     1.0  0.85441  0.57661  0.76090  1.0000
  H   H5209     1.0  0.65302  0.88868  0.71198  1.0000
  S   S891      1.0  0.84244  0.58602  0.71475  1.0000
  S   S892      1.0  0.84189  0.55787  0.75341  1.0000
  H   H5210     1.0  0.51255  0.74280  0.72488  1.0000
  Fe  Fe449     1.0  0.66057  0.95788  0.71347  1.0000
  S   S893      1.0  0.68486  0.93793  0.71987  1.0000
  H   H5211     1.0  0.49523  0.73049  0.75419  1.0000
  S   S894      1.0  0.70191  0.94537  0.67745  1.0000
  Fe  Fe450     1.0  0.68454  0.92746  0.69641  1.0000
  S   S895      1.0  0.68941  0.89743  0.70050  1.0000
  Fe  Fe451     1.0  0.69998  0.95759  0.70063  1.0000
  S   S896      1.0  0.65882  0.94595  0.69148  1.0000
  C   C6514     1.0  0.57604  0.84256  0.73224  1.0000
  C   C6515     1.0  0.95987  0.57949  0.61512  1.0000
  C   C6516     1.0  0.75965  0.91293  0.68306  1.0000
  H   H5212     1.0  0.50751  0.91654  0.75026  1.0000
  C   C6517     1.0  0.86700  0.52508  0.71103  1.0000
  C   C6518     1.0  0.84919  0.52512  0.71957  1.0000
  C   C6519     1.0  0.84108  0.51157  0.71901  1.0000
  C   C6520     1.0  0.85071  0.49796  0.70988  1.0000
  H   H5213     1.0  0.61016  0.95881  0.76697  1.0000
  C   C6521     1.0  0.87659  0.51156  0.70178  1.0000
  H   H5214     1.0  0.84168  0.53560  0.72657  1.0000
  H   H5215     1.0  0.82731  0.51162  0.72565  1.0000
  C   C6522     1.0  0.83743  0.50244  0.66165  1.0000
  H   H5216     1.0  0.89035  0.51150  0.69512  1.0000
  C   C6523     1.0  0.56426  0.91697  0.68163  1.0000
  H   H5217     1.0  0.54947  0.81307  0.72191  1.0000
  H   H5218     1.0  0.54877  0.94161  0.72004  1.0000
  S   S897      1.0  0.90899  0.63516  0.58103  1.0000
  H   H5219     1.0  0.53818  0.82587  0.74890  1.0000
  P   P218      1.0  0.49034  0.55909  0.76481  1.0000
  H   H5220     1.0  0.63902  0.89250  0.64485  1.0000
  H   H5221     1.0  0.65079  0.91368  0.68601  1.0000
  C   C6524     1.0  0.58216  0.83557  0.71676  1.0000
  C   C6525     1.0  0.51611  0.90351  0.75277  1.0000
  H   H5222     1.0  0.62600  0.88417  0.73539  1.0000
  C   C6526     1.0  0.64033  0.89776  0.71098  1.0000
  C   C6527     1.0  0.89018  0.62341  0.65264  1.0000
  C   C6528     1.0  0.88011  0.64004  0.65561  1.0000
  C   C6529     1.0  0.87109  0.64205  0.67298  1.0000
  C   C6530     1.0  0.87166  0.62727  0.68721  1.0000
  C   C6531     1.0  0.88197  0.61077  0.68420  1.0000
  C   C6532     1.0  0.89157  0.60898  0.66705  1.0000
  H   H5223     1.0  0.87930  0.65126  0.64454  1.0000
  H   H5224     1.0  0.86325  0.65488  0.67529  1.0000
  H   H5225     1.0  0.88272  0.59940  0.69515  1.0000
  H   H5226     1.0  0.89996  0.59632  0.66493  1.0000
  H   H5227     1.0  0.95714  0.65075  0.61034  1.0000
  C   C6533     1.0  0.91442  0.54103  0.73851  1.0000
  H   H5228     1.0  0.73195  0.91778  0.69617  1.0000
  H   H5229     1.0  0.91371  0.54615  0.69186  1.0000
  H   H5230     1.0  0.97753  0.76260  0.60174  1.0000
  C   C6534     1.0  0.92274  0.50661  0.75886  1.0000
  C   C6535     1.0  0.91424  0.50053  0.64146  1.0000
  C   C6536     1.0  0.63803  0.92929  0.74272  1.0000
  C   C6537     1.0  0.62998  0.94554  0.74780  1.0000
  C   C6538     1.0  0.96434  0.54142  0.61230  1.0000
  C   C6539     1.0  0.90521  0.49050  0.59529  1.0000
  S   S898      1.0  0.84433  0.69489  0.59606  1.0000
  H   H5231     1.0  0.64816  0.92872  0.73067  1.0000
  C   C6540     1.0  0.65146  0.77656  0.69573  1.0000
  C   C6541     1.0  0.63901  0.77306  0.71163  1.0000
  C   C6542     1.0  0.64449  0.76139  0.72671  1.0000
  C   C6543     1.0  0.66241  0.75288  0.72586  1.0000
  C   C6544     1.0  0.67480  0.75598  0.70977  1.0000
  C   C6545     1.0  0.66941  0.76814  0.69483  1.0000
  H   H5232     1.0  0.62510  0.77945  0.71235  1.0000
  H   H5233     1.0  0.63477  0.75874  0.73888  1.0000
  H   H5234     1.0  0.68865  0.74939  0.70904  1.0000
  H   H5235     1.0  0.67906  0.77095  0.68261  1.0000
  C   C6546     1.0  0.74831  0.79500  0.62319  1.0000
  C   C6547     1.0  0.74802  0.81071  0.62813  1.0000
  C   C6548     1.0  0.76251  0.81927  0.62112  1.0000
  C   C6549     1.0  0.77721  0.81224  0.60892  1.0000
  C   C6550     1.0  0.77737  0.79663  0.60380  1.0000
  C   C6551     1.0  0.76304  0.78790  0.61111  1.0000
  H   H5236     1.0  0.73687  0.81584  0.63783  1.0000
  H   H5237     1.0  0.76236  0.83128  0.62522  1.0000
  C   C6552     1.0  0.91890  0.56820  0.58133  1.0000
  H   H5238     1.0  0.76339  0.77560  0.60744  1.0000
  C   C6553     1.0  0.67931  0.87437  0.65768  1.0000
  C   C6554     1.0  0.67938  0.89250  0.65466  1.0000
  C   C6555     1.0  0.68267  0.89967  0.66761  1.0000
  C   C6556     1.0  0.68536  0.88878  0.68396  1.0000
  C   C6557     1.0  0.68457  0.87074  0.68731  1.0000
  C   C6558     1.0  0.68154  0.86352  0.67420  1.0000
  H   H5239     1.0  0.67713  0.90101  0.64210  1.0000
  H   H5240     1.0  0.68311  0.91363  0.66492  1.0000
  H   H5241     1.0  0.68658  0.86231  0.69996  1.0000
  H   H5242     1.0  0.68117  0.84958  0.67676  1.0000
  C   C6559     1.0  0.60817  0.92264  0.70948  1.0000
  C   C6560     1.0  0.67320  0.97308  0.76156  1.0000
  H   H5243     1.0  0.70410  0.70665  0.75044  1.0000
  C   C6561     1.0  0.76260  0.58069  0.75607  1.0000
  C   C6562     1.0  0.77862  0.58300  0.75854  1.0000
  H   H5244     1.0  0.87766  0.49585  0.60857  1.0000
  C   C6563     1.0  0.85878  0.57545  0.57835  1.0000
  C   C6564     1.0  0.65588  0.91778  0.60530  1.0000
  H   H5245     1.0  0.76084  0.58161  0.74277  1.0000
  C   C6565     1.0  0.97845  0.57771  0.60903  1.0000
  H   H5246     1.0  0.68542  0.88103  0.60276  1.0000
  C   C6566     1.0  0.65239  0.82471  0.57939  1.0000
  C   C6567     1.0  0.69771  0.94925  0.75339  1.0000
  C   C6568     1.0  0.57201  0.72542  0.76358  1.0000
  H   H5247     1.0  0.74127  0.88109  0.58697  1.0000
  C   C6569     1.0  0.97612  0.60858  0.60964  1.0000
  H   H5248     1.0  0.68391  0.76780  0.75595  1.0000
  C   C6570     1.0  0.59228  0.96119  0.70263  1.0000
  H   H5249     1.0  0.93458  0.65475  0.59213  1.0000
  H   H5250     1.0  0.69275  0.85564  0.73401  1.0000
  C   C6571     1.0  0.57284  0.93757  0.72997  1.0000
  C   C6572     1.0  0.97134  0.75115  0.60598  1.0000
  H   H5251     1.0  0.79356  0.68478  0.70782  1.0000
  H   H5252     1.0  0.59749  0.90533  0.73379  1.0000
  H   H5253     1.0  0.75635  0.96504  0.71393  1.0000
  C   C6573     1.0  0.80355  0.72712  0.63571  1.0000
  C   C6574     1.0  0.98702  0.84418  0.58346  1.0000
  C   C6575     1.0  0.62515  0.89529  0.72420  1.0000
  C   C6576     1.0  0.97104  0.72110  0.62267  1.0000
  C   C6577     1.0  0.83663  0.73123  0.58531  1.0000
  H   H5254     1.0  0.72986  0.74008  0.62142  1.0000
  C   C6578     1.0  0.93623  0.51624  0.75031  1.0000
  H   H5255     1.0  0.83392  0.49633  0.67558  1.0000
  H   H5256     1.0  0.82915  0.50334  0.62151  1.0000
  C   C6579     1.0  0.51879  0.89168  0.74155  1.0000
  C   C6580     1.0  0.90093  0.53154  0.74705  1.0000
  H   H5257     1.0  0.78633  0.71086  0.65417  1.0000
  C   C6581     1.0  0.55056  0.82854  0.74014  1.0000
  H   H5258     1.0  0.69308  0.74375  0.67125  1.0000
  H   H5259     1.0  0.92967  0.80111  0.58080  1.0000
  H   H5260     1.0  0.62971  0.92202  0.65341  1.0000
  C   C6582     1.0  0.50031  0.50369  0.75139  1.0000
  H   H5261     1.0  0.63697  0.94872  0.63125  1.0000
  C   C6583     1.0  0.78556  0.88539  0.59275  1.0000
  H   H5262     1.0  0.82104  0.48951  0.65351  1.0000
  H   H5263     1.0  0.63301  0.90943  0.58713  1.0000
  H   H5264     1.0  0.50619  0.76519  0.74649  1.0000
  C   C6584     1.0  0.92285  0.51903  0.61263  1.0000
  C   C6585     1.0  0.90533  0.52890  0.61390  1.0000
  C   C6586     1.0  0.89192  0.52419  0.62866  1.0000
  C   C6587     1.0  0.89664  0.51014  0.64261  1.0000
  P   P219      1.0  0.86925  0.53708  0.63094  1.0000
  C   C6588     1.0  0.86711  0.55047  0.64689  1.0000
  C   C6589     1.0  0.86516  0.55205  0.61029  1.0000
  C   C6590     1.0  0.85544  0.56954  0.61039  1.0000
  H   H5265     1.0  0.53621  0.57657  0.71177  1.0000
  C   C6591     1.0  0.93195  0.81047  0.58732  1.0000
  C   C6592     1.0  0.57958  0.86418  0.76338  1.0000
  C   C6593     1.0  0.87137  0.54634  0.59403  1.0000
  C   C6594     1.0  0.85185  0.55296  0.66048  1.0000
  C   C6595     1.0  0.85111  0.56300  0.67288  1.0000
  C   C6596     1.0  0.86529  0.57106  0.67140  1.0000
  C   C6597     1.0  0.88002  0.56938  0.65737  1.0000
  C   C6598     1.0  0.88091  0.55914  0.64519  1.0000
  C   C6599     1.0  0.85396  0.52197  0.63812  1.0000
  C   C6600     1.0  0.84960  0.51371  0.65614  1.0000
  H   H5266     1.0  0.84519  0.59480  0.59450  1.0000
  H   H5267     1.0  0.98696  0.56518  0.60665  1.0000
  C   C6601     1.0  0.83467  0.50643  0.63120  1.0000
  C   C6602     1.0  0.84644  0.51813  0.62568  1.0000
  H   H5268     1.0  0.91760  0.48926  0.65197  1.0000
  C   C6603     1.0  0.69201  0.90531  0.58528  1.0000
  H   H5269     1.0  0.93293  0.52224  0.60084  1.0000
  H   H5270     1.0  0.90243  0.54006  0.60325  1.0000
  H   H5271     1.0  0.88676  0.50639  0.65433  1.0000
  H   H5272     1.0  0.85010  0.57416  0.62275  1.0000
  H   H5273     1.0  0.65908  0.97900  0.76312  1.0000
  C   C6604     1.0  0.90540  0.72162  0.62617  1.0000
  H   H5274     1.0  0.56808  0.97357  0.69260  1.0000
  H   H5275     1.0  0.84057  0.54718  0.66165  1.0000
  H   H5276     1.0  0.83967  0.56438  0.68379  1.0000
  H   H5277     1.0  0.86492  0.57862  0.68110  1.0000
  H   H5278     1.0  0.89091  0.57576  0.65605  1.0000
  H   H5279     1.0  0.89246  0.55787  0.63447  1.0000
  H   H5280     1.0  0.97535  0.85463  0.58576  1.0000
  C   C6605     1.0  0.67947  0.95684  0.75608  1.0000
  C   C6606     1.0  0.69427  0.89826  0.76064  1.0000
  H   H5281     1.0  0.91718  0.48907  0.73690  1.0000
  H   H5282     1.0  0.84974  0.52390  0.61166  1.0000
  H   H5283     1.0  0.69883  0.74415  0.63900  1.0000
  H   H5284     1.0  0.88964  0.59482  0.60798  1.0000
  C   C6607     1.0  0.74161  0.91296  0.68511  1.0000
  H   H5285     1.0  0.75096  0.75725  0.72738  1.0000
  H   H5286     1.0  0.94179  0.84333  0.61040  1.0000
  C   C6608     1.0  0.63334  0.91359  0.75350  1.0000
  C   C6609     1.0  0.93895  0.83412  0.60406  1.0000
  C   C6610     1.0  0.79468  0.75869  0.63526  1.0000
  C   C6611     1.0  0.75219  0.68500  0.70282  1.0000
  C   C6612     1.0  0.76842  0.67881  0.70845  1.0000
  C   C6613     1.0  0.84993  0.71565  0.58555  1.0000
  H   H5287     1.0  0.67016  0.95036  0.75360  1.0000
  C   C6614     1.0  0.59855  0.80348  0.77053  1.0000
  C   C6615     1.0  0.48927  0.75504  0.71341  1.0000
  H   H5288     1.0  0.87328  0.77763  0.58495  1.0000
  C   C6616     1.0  0.78105  0.68955  0.70330  1.0000
  H   H5289     1.0  0.55304  0.78651  0.76109  1.0000
  P   P220      1.0  0.92801  0.48416  0.77133  1.0000
  C   C6617     1.0  0.91282  0.76788  0.60878  1.0000
  C   C6618     1.0  0.63759  0.86373  0.68823  1.0000
  C   C6619     1.0  0.63522  0.85430  0.67671  1.0000
  C   C6620     1.0  0.63587  0.83604  0.68219  1.0000
  C   C6621     1.0  0.63942  0.82706  0.69893  1.0000
  C   C6622     1.0  0.64188  0.83639  0.71058  1.0000
  C   C6623     1.0  0.64075  0.85483  0.70513  1.0000
  P   P221      1.0  0.64671  0.82484  0.73219  1.0000
  C   C6624     1.0  0.62729  0.81739  0.74715  1.0000
  C   C6625     1.0  0.66461  0.80563  0.73020  1.0000
  C   C6626     1.0  0.66768  0.79261  0.74545  1.0000
  C   C6627     1.0  0.68200  0.77809  0.74421  1.0000
  C   C6628     1.0  0.69341  0.77649  0.72779  1.0000
  C   C6629     1.0  0.69052  0.78945  0.71256  1.0000
  C   C6630     1.0  0.67628  0.80405  0.71376  1.0000
  S   S899      1.0  0.98693  0.66699  0.60472  1.0000
  C   C6631     1.0  0.58354  0.94388  0.67354  1.0000
  P   P222      1.0  0.94894  0.56100  0.61887  1.0000
  C   C6632     1.0  0.60056  0.80554  0.75218  1.0000
  C   C6633     1.0  0.61485  0.81245  0.74054  1.0000
  C   C6634     1.0  0.65512  0.83943  0.74062  1.0000
  C   C6635     1.0  0.64393  0.84959  0.75283  1.0000
  C   C6636     1.0  0.68504  0.69560  0.77228  1.0000
  H   H5290     1.0  0.67085  0.91038  0.74974  1.0000
  C   C6637     1.0  0.90504  0.51440  0.75717  1.0000
  C   C6638     1.0  0.67281  0.84167  0.73390  1.0000
  H   H5291     1.0  0.63743  0.87785  0.68388  1.0000
  H   H5292     1.0  0.63321  0.86105  0.66344  1.0000
  H   H5293     1.0  0.63396  0.82873  0.67330  1.0000
  H   H5294     1.0  0.64057  0.81278  0.70266  1.0000
  H   H5295     1.0  0.64278  0.86227  0.71373  1.0000
  H   H5296     1.0  0.65908  0.79356  0.75836  1.0000
  P   P223      1.0  0.66904  0.91520  0.58336  1.0000
  H   H5297     1.0  0.70408  0.76487  0.72680  1.0000
  H   H5298     1.0  0.69892  0.78790  0.69972  1.0000
  H   H5299     1.0  0.67445  0.81400  0.70182  1.0000
  H   H5300     1.0  0.83811  0.84383  0.58731  1.0000
  H   H5301     1.0  0.62264  0.93563  0.68449  1.0000
  C   C6639     1.0  0.62315  0.92441  0.69566  1.0000
  H   H5302     1.0  0.59143  0.80114  0.74702  1.0000
  H   H5303     1.0  0.61638  0.81326  0.72649  1.0000
  C   C6640     1.0  0.97853  0.73618  0.61764  1.0000
  C   C6641     1.0  0.53799  0.86963  0.75966  1.0000
  H   H5304     1.0  0.70178  0.89341  0.74872  1.0000
  H   H5305     1.0  0.63009  0.84876  0.75762  1.0000
  H   H5306     1.0  0.68157  0.83441  0.72405  1.0000
  C   C6642     1.0  0.77657  0.73858  0.65591  1.0000
  C   C6643     1.0  0.75036  0.75149  0.68638  1.0000
  C   C6644     1.0  0.53432  0.76293  0.74356  1.0000
  H   H5307     1.0  0.83557  0.83711  0.62001  1.0000
  C   C6645     1.0  0.89909  0.78284  0.61069  1.0000
  C   C6646     1.0  0.58084  0.73556  0.76918  1.0000
  H   H5308     1.0  0.77702  0.91309  0.58133  1.0000
  C   C6647     1.0  0.55446  0.93907  0.73169  1.0000
  H   H5309     1.0  0.88726  0.53748  0.74578  1.0000
  H   H5310     1.0  0.93348  0.48230  0.58565  1.0000
  H   H5311     1.0  0.67860  0.64245  0.75936  1.0000
  H   H5312     1.0  0.93534  0.69813  0.59688  1.0000
  C   C6648     1.0  0.64199  0.90428  0.63518  1.0000
  S   S900      1.0  0.67307  0.97923  0.64649  1.0000
  C   C6649     1.0  0.63914  0.91197  0.69645  1.0000
  S   S901      1.0  0.63719  0.96487  0.73526  1.0000
  C   C6650     1.0  0.64255  0.89934  0.58066  1.0000
  H   H5313     1.0  0.92240  0.53956  0.63813  1.0000
  C   C6651     1.0  0.93204  0.53342  0.74021  1.0000
  H   H5314     1.0  0.74235  0.67672  0.70695  1.0000
  C   C6652     1.0  0.68391  0.62928  0.76637  1.0000
  H   H5315     1.0  0.60811  0.84275  0.59114  1.0000
  H   H5316     1.0  0.51231  0.89558  0.73028  1.0000
  C   C6653     1.0  0.65037  0.93444  0.61024  1.0000
  C   C6654     1.0  0.74156  0.76876  0.67972  1.0000
  C   C6655     1.0  0.77208  0.90696  0.66866  1.0000
  C   C6656     1.0  0.94956  0.81702  0.60471  1.0000
  H   H5317     1.0  0.81275  0.71604  0.63048  1.0000
  C   C6657     1.0  0.57044  0.85039  0.77233  1.0000
  H   H5318     1.0  0.76018  0.73421  0.70938  1.0000
  H   H5319     1.0  0.56260  0.67635  0.75795  1.0000
  C   C6658     1.0  0.77965  0.75588  0.64863  1.0000
  C   C6659     1.0  0.74002  0.77772  0.70708  1.0000
  C   C6660     1.0  0.95760  0.66021  0.59781  1.0000
  C   C6661     1.0  0.95626  0.72101  0.61621  1.0000
  C   C6662     1.0  0.98717  0.52764  0.59005  1.0000
  C   C6663     1.0  0.60903  0.90755  0.72337  1.0000
  C   C6664     1.0  0.94604  0.80522  0.59635  1.0000
  H   H5320     1.0  0.90697  0.53328  0.66972  1.0000
  H   H5321     1.0  0.87403  0.79776  0.60379  1.0000
  C   C6665     1.0  0.91874  0.71840  0.61110  1.0000
  H   H5322     1.0  0.75524  0.63472  0.74611  1.0000
  H   H5323     1.0  0.71812  0.73999  0.68593  1.0000
  H   H5324     1.0  0.75510  0.73581  0.63580  1.0000
  C   C6666     1.0  0.73856  0.73726  0.66207  1.0000
  H   H5325     1.0  0.60091  0.87676  0.76253  1.0000
  C   C6667     1.0  0.51632  0.77052  0.74898  1.0000
  H   H5326     1.0  0.73745  0.57308  0.76875  1.0000
  H   H5327     1.0  0.58386  0.85051  0.73484  1.0000
  C   C6668     1.0  0.89825  0.76025  0.58929  1.0000
  C   C6669     1.0  0.70958  0.67792  0.75480  1.0000
  C   C6670     1.0  0.78859  0.72425  0.64919  1.0000
  H   H5328     1.0  0.91348  0.58400  0.62502  1.0000
  H   H5329     1.0  0.98232  0.61988  0.60728  1.0000
  C   C6671     1.0  0.72759  0.88789  0.58653  1.0000
  H   H5330     1.0  0.63897  0.97375  0.66899  1.0000
  C   C6672     1.0  0.91697  0.54142  0.66558  1.0000
  H   H5331     1.0  0.56395  0.92324  0.65356  1.0000
  H   H5332     1.0  0.89938  0.79157  0.61902  1.0000
  C   C6673     1.0  0.92471  0.70100  0.60810  1.0000
  H   H5333     1.0  0.79691  0.77209  0.62968  1.0000
  H   H5334     1.0  0.79620  0.88283  0.58141  1.0000
  H   H5335     1.0  0.50194  0.49066  0.74858  1.0000
  C   C6674     1.0  0.54754  0.76918  0.74740  1.0000
  H   H5336     1.0  0.73858  0.77217  0.66656  1.0000
  H   H5337     1.0  0.97528  0.55543  0.58600  1.0000
  S   S902      1.0  0.62537  0.97640  0.57968  1.0000
  C   C6675     1.0  0.74860  0.70190  0.69196  1.0000
  H   H5338     1.0  0.55703  0.90636  0.68467  1.0000
  H   H5339     1.0  0.73599  0.78783  0.71507  1.0000
  C   C6676     1.0  0.98644  0.59228  0.60603  1.0000
  H   H5340     1.0  0.95134  0.76270  0.59012  1.0000
  H   H5341     1.0  0.73295  0.93394  0.64119  1.0000
  C   C6677     1.0  0.90159  0.58556  0.60326  1.0000
  C   C6678     1.0  0.94970  0.59589  0.61890  1.0000
  H   H5342     1.0  0.52360  0.60697  0.75263  1.0000
  C   C6679     1.0  0.80663  0.74433  0.62881  1.0000
  C   C6680     1.0  0.91735  0.68709  0.61988  1.0000
  H   H5343     1.0  0.92215  0.67364  0.61763  1.0000
  H   H5344     1.0  0.73010  0.79520  0.68446  1.0000
  C   C6681     1.0  0.56989  0.92102  0.69517  1.0000
  H   H5345     1.0  0.95224  0.57105  0.65121  1.0000
  H   H5346     1.0  0.76392  0.91775  0.69255  1.0000
  H   H5347     1.0  0.92330  0.76503  0.61615  1.0000
  H   H5348     1.0  0.96071  0.81301  0.61141  1.0000
  H   H5349     1.0  0.72131  0.67728  0.74416  1.0000
  C   C6682     1.0  0.92144  0.82778  0.58627  1.0000
  C   C6683     1.0  0.55388  0.72536  0.77077  1.0000
  H   H5350     1.0  0.57550  0.87359  0.75189  1.0000
  C   C6684     1.0  0.58021  0.97559  0.69492  1.0000
  H   H5351     1.0  0.93634  0.56505  0.68248  1.0000
  C   C6685     1.0  0.97091  0.67023  0.59196  1.0000
  C   C6686     1.0  0.76681  0.62581  0.76916  1.0000
  C   C6687     1.0  0.54274  0.78259  0.75718  1.0000
  C   C6688     1.0  0.92496  0.83951  0.59486  1.0000
  C   C6689     1.0  0.88235  0.83570  0.58831  1.0000
  H   H5352     1.0  0.87860  0.53283  0.59366  1.0000
  H   H5353     1.0  0.57922  0.71771  0.75357  1.0000
  H   H5354     1.0  0.56720  0.91325  0.70860  1.0000
  C   C6690     1.0  0.86397  0.83257  0.61827  1.0000
  C   C6691     1.0  0.88077  0.83211  0.60689  1.0000
  H   H5355     1.0  0.93551  0.59765  0.62410  1.0000
  S   S903      1.0  0.54294  0.71339  0.76269  1.0000
  H   H5356     1.0  0.94458  0.55340  0.58540  1.0000
  S   S904      1.0  0.67247  0.81706  0.58718  1.0000
  H   H5357     1.0  0.58127  0.94700  0.64640  1.0000
  C   C6692     1.0  0.52872  0.57913  0.72468  1.0000
  H   H5358     1.0  0.50191  0.58870  0.77074  1.0000
  C   C6693     1.0  0.69681  0.94316  0.62252  1.0000
  C   C6694     1.0  0.67679  0.90797  0.76118  1.0000
  H   H5359     1.0  0.89741  0.75160  0.58116  1.0000
  H   H5360     1.0  0.78035  0.62319  0.76154  1.0000
  H   H5361     1.0  0.72388  0.95247  0.75325  1.0000
  C   C6695     1.0  0.77475  0.90237  0.59272  1.0000
  C   C6696     1.0  0.94861  0.73617  0.60484  1.0000
  S   S905      1.0  0.67565  0.97842  0.69587  1.0000
  H   H5362     1.0  0.86284  0.82976  0.63258  1.0000
  H   H5363     1.0  0.89242  0.82892  0.61271  1.0000
  C   C6697     1.0  0.69723  0.92619  0.62033  1.0000
  C   C6698     1.0  0.86846  0.49804  0.70117  1.0000
  C   C6699     1.0  0.81738  0.51706  0.76727  1.0000
  C   C6700     1.0  0.74931  0.57596  0.77076  1.0000
  C   C6701     1.0  0.72315  0.91414  0.63405  1.0000
  C   C6702     1.0  0.71037  0.91175  0.62598  1.0000
  P   P224      1.0  0.74038  0.89564  0.64130  1.0000
  C   C6703     1.0  0.73214  0.87524  0.65040  1.0000
  C   C6704     1.0  0.75820  0.89181  0.62235  1.0000
  C   C6705     1.0  0.76925  0.87484  0.62232  1.0000
  H   H5364     1.0  0.65302  0.94646  0.60094  1.0000
  C   C6706     1.0  0.72304  0.93144  0.63551  1.0000
  H   H5365     1.0  0.94997  0.51055  0.75141  1.0000
  C   C6707     1.0  0.76109  0.90560  0.60746  1.0000
  C   C6708     1.0  0.72844  0.86658  0.63886  1.0000
  C   C6709     1.0  0.72279  0.85046  0.64534  1.0000
  C   C6710     1.0  0.72163  0.84231  0.66330  1.0000
  C   C6711     1.0  0.72571  0.85056  0.67487  1.0000
  C   C6712     1.0  0.73077  0.86704  0.66851  1.0000
  C   C6713     1.0  0.74829  0.90143  0.65804  1.0000
  H   H5366     1.0  0.97707  0.70923  0.63114  1.0000
  H   H5367     1.0  0.49687  0.76038  0.70058  1.0000
  C   C6714     1.0  0.72949  0.97899  0.71225  1.0000
  H   H5368     1.0  0.94071  0.49685  0.62516  1.0000
  C   C6715     1.0  0.76645  0.90122  0.65616  1.0000
  H   H5369     1.0  0.68707  0.92410  0.61472  1.0000
  H   H5370     1.0  0.59361  0.93497  0.74423  1.0000
  C   C6716     1.0  0.96495  0.52464  0.62383  1.0000
  C   C6717     1.0  0.59399  0.86602  0.76931  1.0000
  H   H5371     1.0  0.71005  0.89876  0.62448  1.0000
  H   H5372     1.0  0.76740  0.86399  0.63369  1.0000
  C   C6718     1.0  0.53133  0.59290  0.73106  1.0000
  C   C6719     1.0  0.56835  0.93357  0.76214  1.0000
  H   H5373     1.0  0.94244  0.54090  0.73375  1.0000
  C   C6720     1.0  0.70982  0.94580  0.62994  1.0000
  H   H5374     1.0  0.73009  0.87223  0.62480  1.0000
  H   H5375     1.0  0.71907  0.84443  0.63644  1.0000
  H   H5376     1.0  0.71712  0.82987  0.66830  1.0000
  H   H5377     1.0  0.72444  0.84447  0.68888  1.0000
  H   H5378     1.0  0.73358  0.87317  0.67785  1.0000
  H   H5379     1.0  0.85547  0.51597  0.66605  1.0000
  H   H5380     1.0  0.63513  0.81754  0.77136  1.0000
  H   H5381     1.0  0.58929  0.68330  0.76313  1.0000
  C   C6721     1.0  0.73594  0.90722  0.67267  1.0000
  H   H5382     1.0  0.77624  0.89692  0.64497  1.0000
  H   H5383     1.0  0.82792  0.62312  0.61265  1.0000
  C   C6722     1.0  0.92564  0.54510  0.64770  1.0000
  C   C6723     1.0  0.57923  0.93479  0.69129  1.0000
  C   C6724     1.0  0.93836  0.55590  0.64220  1.0000
  C   C6725     1.0  0.90333  0.57978  0.58762  1.0000
  H   H5384     1.0  0.79110  0.85844  0.60752  1.0000
  H   H5385     1.0  0.95666  0.52305  0.63704  1.0000
  C   C6726     1.0  0.65057  0.86110  0.75888  1.0000
  C   C6727     1.0  0.93114  0.56807  0.60651  1.0000
  C   C6728     1.0  0.62123  0.97811  0.65110  1.0000
  C   C6729     1.0  0.85003  0.84048  0.59281  1.0000
  H   H5386     1.0  0.94965  0.62276  0.61939  1.0000
  C   C6730     1.0  0.50677  0.57190  0.75168  1.0000
  C   C6731     1.0  0.91533  0.57961  0.61274  1.0000
  H   H5387     1.0  0.97677  0.49661  0.62725  1.0000
  C   C6732     1.0  0.80437  0.53039  0.75991  1.0000
  C   C6733     1.0  0.57958  0.93544  0.74528  1.0000
  H   H5388     1.0  0.83059  0.51407  0.75908  1.0000
  C   C6734     1.0  0.52976  0.87479  0.74493  1.0000
  C   C6735     1.0  0.67288  0.61687  0.77317  1.0000
  H   H5389     1.0  0.89264  0.58438  0.58031  1.0000
  C   C6736     1.0  0.66814  0.86327  0.75214  1.0000
  C   C6737     1.0  0.95652  0.75114  0.59947  1.0000
  H   H5390     1.0  0.68628  0.95427  0.61872  1.0000
  C   C6738     1.0  0.91262  0.75653  0.59789  1.0000
  H   H5391     1.0  0.95110  0.70895  0.61999  1.0000
  C   C6739     1.0  0.61662  0.94617  0.76323  1.0000
  C   C6740     1.0  0.63687  0.92083  0.64002  1.0000
  H   H5392     1.0  0.89837  0.67953  0.64380  1.0000
  C   C6741     1.0  0.94238  0.56284  0.65495  1.0000
  C   C6742     1.0  0.50936  0.58586  0.75792  1.0000
  C   C6743     1.0  0.93276  0.56234  0.59070  1.0000
  C   C6744     1.0  0.64102  0.93588  0.62753  1.0000
  H   H5393     1.0  0.51111  0.49355  0.77523  1.0000
  C   C6745     1.0  0.63613  0.83105  0.59014  1.0000
  H   H5394     1.0  0.77119  0.66572  0.71687  1.0000
  C   C6746     1.0  0.88439  0.77501  0.59151  1.0000
  H   H5395     1.0  0.75289  0.91884  0.60724  1.0000
  H   H5396     1.0  0.89443  0.50717  0.76351  1.0000
  H   H5397     1.0  0.95457  0.79215  0.59642  1.0000
  S   S906      1.0  0.72510  0.96038  0.70704  1.0000
  C   C6747     1.0  0.67923  0.85366  0.73953  1.0000
  H   H5398     1.0  0.82725  0.64670  0.76312  1.0000
  C   C6748     1.0  0.86745  0.71666  0.57662  1.0000
  C   C6749     1.0  0.62066  0.83773  0.58288  1.0000
  C   C6750     1.0  0.55019  0.93443  0.76382  1.0000
  C   C6751     1.0  0.98752  0.51102  0.60146  1.0000
  P   P225      1.0  0.55209  0.84789  0.76428  1.0000
  Fe  Fe452     1.0  0.86794  0.67260  0.59059  1.0000
  C   C6752     1.0  0.62526  0.81496  0.76568  1.0000
  C   C6753     1.0  0.55684  0.82138  0.72477  1.0000
  H   H5399     1.0  0.65528  0.88974  0.61459  1.0000
  C   C6754     1.0  0.77751  0.70645  0.69244  1.0000
  C   C6755     1.0  0.51141  0.78465  0.75797  1.0000
  C   C6756     1.0  0.86680  0.83979  0.58141  1.0000
  C   C6757     1.0  0.65145  0.90275  0.61795  1.0000
  C   C6758     1.0  0.95778  0.61026  0.61634  1.0000
  C   C6759     1.0  0.73665  0.78186  0.68990  1.0000
  H   H5400     1.0  0.64013  0.90100  0.74985  1.0000
  C   C6760     1.0  0.74173  0.73706  0.64386  1.0000
  H   H5401     1.0  0.71634  0.86589  0.60366  1.0000
  C   C6761     1.0  0.72092  0.73958  0.67192  1.0000
  P   P226      1.0  0.92925  0.73614  0.59671  1.0000
  C   C6762     1.0  0.49522  0.53743  0.75915  1.0000
  C   C6763     1.0  0.70993  0.74180  0.64550  1.0000
  H   H5402     1.0  0.72185  0.90754  0.67431  1.0000
  C   C6764     1.0  0.69596  0.88808  0.59555  1.0000
  C   C6765     1.0  0.70669  0.74173  0.66367  1.0000
  C   C6766     1.0  0.70004  0.69452  0.75840  1.0000
  C   C6767     1.0  0.49016  0.53566  0.74407  1.0000
  H   H5403     1.0  0.59151  0.95393  0.66992  1.0000
  C   C6768     1.0  0.49811  0.74519  0.72708  1.0000
  P   P227      1.0  0.58778  0.93907  0.70841  1.0000
  H   H5404     1.0  0.91117  0.55431  0.73062  1.0000
  H   H5405     1.0  0.78876  0.79096  0.59464  1.0000
  C   C6769     1.0  0.74846  0.76048  0.71400  1.0000
  H   H5406     1.0  0.78606  0.90703  0.66707  1.0000
  C   C6770     1.0  0.76128  0.71275  0.68661  1.0000
  H   H5407     1.0  0.77041  0.76733  0.65293  1.0000
  H   H5408     1.0  0.57763  0.81918  0.70126  1.0000
  C   C6771     1.0  0.78277  0.87164  0.60753  1.0000
  H   H5409     1.0  0.71300  0.98057  0.76370  1.0000
  C   C6772     1.0  0.90396  0.69041  0.63470  1.0000
  H   H5410     1.0  0.71388  0.79947  0.58233  1.0000
  C   C6773     1.0  0.83009  0.49866  0.64920  1.0000
  H   H5411     1.0  0.73591  0.70640  0.68786  1.0000
  H   H5412     1.0  0.51456  0.55816  0.72970  1.0000
  H   H5413     1.0  0.52245  0.90765  0.77604  1.0000
  C   C6774     1.0  0.73480  0.63433  0.77043  1.0000
  C   C6775     1.0  0.75243  0.63203  0.76048  1.0000
  P   P228      1.0  0.71574  0.64087  0.75994  1.0000
  C   C6776     1.0  0.56821  0.66890  0.76945  1.0000
  C   C6777     1.0  0.70386  0.66232  0.76483  1.0000
  H   H5414     1.0  0.73427  0.82721  0.59245  1.0000
  C   C6778     1.0  0.50550  0.50531  0.76634  1.0000
  Fe  Fe453     1.0  0.67615  0.96471  0.67421  1.0000
  H   H5415     1.0  0.53169  0.86582  0.73610  1.0000
  C   C6779     1.0  0.58322  0.67284  0.77243  1.0000
  C   C6780     1.0  0.63761  0.97728  0.65528  1.0000
  H   H5416     1.0  0.89413  0.55738  0.76927  1.0000
  H   H5417     1.0  0.70269  0.93688  0.74871  1.0000
  C   C6781     1.0  0.93348  0.55935  0.67278  1.0000
  C   C6782     1.0  0.92076  0.54869  0.67808  1.0000
  C   C6783     1.0  0.72201  0.64079  0.73640  1.0000
  C   C6784     1.0  0.71397  0.65454  0.72403  1.0000
  C   C6785     1.0  0.71858  0.65396  0.70590  1.0000
  C   C6786     1.0  0.73101  0.63953  0.70004  1.0000
  C   C6787     1.0  0.73858  0.62550  0.71234  1.0000
  C   C6788     1.0  0.73388  0.62598  0.73047  1.0000
  C   C6789     1.0  0.97643  0.50952  0.61837  1.0000
  Fe  Fe454     1.0  0.64985  0.74258  0.77050  1.0000
  C   C6790     1.0  0.51643  0.56869  0.73491  1.0000
  C   C6791     1.0  0.70158  0.62479  0.76882  1.0000
  C   C6792     1.0  0.71361  0.87936  0.59600  1.0000
  H   H5418     1.0  0.53807  0.75169  0.73704  1.0000
  H   H5419     1.0  0.70940  0.95900  0.63172  1.0000
  H   H5420     1.0  0.70850  0.84521  0.57903  1.0000
  C   C6793     1.0  0.85241  0.58122  0.59445  1.0000
  S   S907      1.0  0.58240  0.97718  0.58799  1.0000
  H   H5421     1.0  0.61688  0.95356  0.71248  1.0000
  S   S908      1.0  0.50891  0.68286  0.77453  1.0000
  H   H5422     1.0  0.65914  0.62052  0.77159  1.0000
  H   H5423     1.0  0.70385  0.66552  0.72833  1.0000
  H   H5424     1.0  0.71226  0.66457  0.69644  1.0000
  H   H5425     1.0  0.73446  0.63901  0.68602  1.0000
  H   H5426     1.0  0.74788  0.61406  0.70792  1.0000
  H   H5427     1.0  0.73946  0.61473  0.73991  1.0000
  C   C6794     1.0  0.78574  0.69341  0.62299  1.0000
  C   C6795     1.0  0.76827  0.69537  0.63294  1.0000
  C   C6796     1.0  0.76485  0.68645  0.65073  1.0000
  C   C6797     1.0  0.77889  0.67544  0.65854  1.0000
  C   C6798     1.0  0.79644  0.67311  0.64850  1.0000
  C   C6799     1.0  0.79977  0.68239  0.63073  1.0000
  P   P229      1.0  0.81509  0.65982  0.65829  1.0000
  C   C6800     1.0  0.82943  0.67520  0.65501  1.0000
  C   C6801     1.0  0.80869  0.64980  0.68156  1.0000
  C   C6802     1.0  0.81749  0.65124  0.69423  1.0000
  C   C6803     1.0  0.81334  0.64233  0.71195  1.0000
  C   C6804     1.0  0.80080  0.63153  0.71708  1.0000
  C   C6805     1.0  0.79232  0.62961  0.70451  1.0000
  C   C6806     1.0  0.79634  0.63860  0.68678  1.0000
  C   C6807     1.0  0.84481  0.67504  0.64141  1.0000
  C   C6808     1.0  0.85477  0.68820  0.63778  1.0000
  C   C6809     1.0  0.84944  0.70162  0.64760  1.0000
  C   C6810     1.0  0.83415  0.70186  0.66116  1.0000
  C   C6811     1.0  0.82410  0.68880  0.66473  1.0000
  C   C6812     1.0  0.82663  0.64141  0.64752  1.0000
  C   C6813     1.0  0.82174  0.63890  0.63268  1.0000
  C   C6814     1.0  0.83138  0.62474  0.62439  1.0000
  C   C6815     1.0  0.84596  0.61311  0.63078  1.0000
  C   C6816     1.0  0.85064  0.61536  0.64571  1.0000
  C   C6817     1.0  0.84087  0.62928  0.65419  1.0000
  H   H5428     1.0  0.78851  0.70050  0.60926  1.0000
  H   H5429     1.0  0.75741  0.70391  0.62690  1.0000
  H   H5430     1.0  0.75132  0.68821  0.65847  1.0000
  H   H5431     1.0  0.77598  0.66906  0.67242  1.0000
  H   H5432     1.0  0.81329  0.68119  0.62284  1.0000
  H   H5433     1.0  0.82820  0.65844  0.69044  1.0000
  H   H5434     1.0  0.82063  0.64303  0.72150  1.0000
  H   H5435     1.0  0.79825  0.62403  0.73063  1.0000
  H   H5436     1.0  0.78325  0.62051  0.70844  1.0000
  H   H5437     1.0  0.79026  0.63636  0.67702  1.0000
  H   H5438     1.0  0.84891  0.66513  0.63320  1.0000
  H   H5439     1.0  0.86634  0.68831  0.62694  1.0000
  H   H5440     1.0  0.85698  0.71199  0.64444  1.0000
  H   H5441     1.0  0.82991  0.71239  0.66863  1.0000
  H   H5442     1.0  0.81202  0.68942  0.67487  1.0000
  H   H5443     1.0  0.81071  0.64784  0.62732  1.0000
  C   C6818     1.0  0.75368  0.74741  0.70369  1.0000
  H   H5444     1.0  0.85395  0.60266  0.62393  1.0000
  H   H5445     1.0  0.86212  0.60659  0.65049  1.0000
  H   H5446     1.0  0.84460  0.63071  0.66585  1.0000
  H   H5447     1.0  0.88793  0.71017  0.64958  1.0000
  H   H5448     1.0  0.59445  0.83824  0.70769  1.0000
  C   C6819     1.0  0.88482  0.78634  0.60215  1.0000
  C   C6820     1.0  0.56033  0.83886  0.74424  1.0000
  H   H5449     1.0  0.91704  0.85292  0.59422  1.0000
  C   C6821     1.0  0.72743  0.73940  0.63563  1.0000
  C   C6822     1.0  0.54320  0.93744  0.74858  1.0000
  H   H5450     1.0  0.67309  0.87249  0.75661  1.0000
  H   H5451     1.0  0.63551  0.83096  0.60394  1.0000
  C   C6823     1.0  0.56819  0.92642  0.66409  1.0000
  H   H5452     1.0  0.81818  0.74659  0.61833  1.0000
  H   H5453     1.0  0.90085  0.73481  0.62908  1.0000
  H   H5454     1.0  0.78737  0.71470  0.68870  1.0000
  H   H5455     1.0  0.54083  0.60099  0.72312  1.0000
  H   H5456     1.0  0.56147  0.76294  0.74364  1.0000
  C   C6824     1.0  0.49274  0.51886  0.74022  1.0000
  H   H5457     1.0  0.59478  0.73569  0.76344  1.0000
  H   H5458     1.0  0.87779  0.70472  0.57666  1.0000
  C   C6825     1.0  0.78089  0.58168  0.77580  1.0000
  C   C6826     1.0  0.73646  0.83634  0.57970  1.0000
  C   C6827     1.0  0.52443  0.89851  0.76733  1.0000
  H   H5459     1.0  0.80748  0.53738  0.74618  1.0000
  C   C6828     1.0  0.82314  0.63844  0.77600  1.0000
  C   C6829     1.0  0.62035  0.91410  0.76918  1.0000
  H   H5460     1.0  0.94453  0.62492  0.58411  1.0000
  H   H5461     1.0  0.64205  0.86847  0.76873  1.0000
  C   C6830     1.0  0.52163  0.59627  0.74767  1.0000
  H   H5462     1.0  0.71542  0.88699  0.77518  1.0000
  H   H5463     1.0  0.84895  0.62076  0.77542  1.0000
  C   C6831     1.0  0.94483  0.66255  0.58756  1.0000
  C   C6832     1.0  0.86831  0.55803  0.57812  1.0000
  C   C6833     1.0  0.70339  0.97406  0.76190  1.0000
  S   S909      1.0  0.63063  0.76835  0.77261  1.0000
  C   C6834     1.0  0.50306  0.52209  0.77018  1.0000
  C   C6835     1.0  0.89089  0.48817  0.60964  1.0000
  C   C6836     1.0  0.61186  0.93040  0.77402  1.0000
  H   H5464     1.0  0.77736  0.54524  0.76456  1.0000
  H   H5465     1.0  0.57375  0.93144  0.77393  1.0000
  C   C6837     1.0  0.53521  0.88160  0.77088  1.0000
  C   C6838     1.0  0.78742  0.53499  0.77033  1.0000
  C   C6839     1.0  0.70194  0.89472  0.77550  1.0000
  H   H5466     1.0  0.50605  0.82429  0.74839  1.0000
  H   H5467     1.0  0.67762  0.70847  0.77502  1.0000
  C   C6840     1.0  0.52473  0.79018  0.76263  1.0000
  H   H5468     1.0  0.62228  0.88601  0.58014  1.0000
  C   C6841     1.0  0.66703  0.91452  0.77639  1.0000
  H   H5469     1.0  0.94109  0.59741  0.57731  1.0000
  S   S910      1.0  0.84025  0.48100  0.70970  1.0000
  H   H5470     1.0  0.49793  0.79620  0.72584  1.0000
  C   C6842     1.0  0.49313  0.84472  0.76336  1.0000
  H   H5471     1.0  0.55908  0.80913  0.77531  1.0000
  H   H5472     1.0  0.52122  0.80002  0.77081  1.0000
  C   C6843     1.0  0.49563  0.82795  0.75946  1.0000
  H   H5473     1.0  0.68063  0.94862  0.57961  1.0000
  C   C6844     1.0  0.63639  0.88618  0.57662  1.0000
  C   C6845     1.0  0.66087  0.89935  0.57646  1.0000
  C   C6846     1.0  0.51057  0.72177  0.89057  1.0000
  S   S911      1.0  0.73579  0.56583  0.80605  1.0000
  S   S912      1.0  0.50793  0.50226  0.82003  1.0000
  Fe  Fe455     1.0  0.56391  0.53899  0.91509  1.0000
  S   S913      1.0  0.57402  0.51892  0.89756  1.0000
  S   S914      1.0  0.56895  0.52827  0.94306  1.0000
  Fe  Fe456     1.0  0.55033  0.56780  0.88502  1.0000
  S   S915      1.0  0.55976  0.54994  0.86511  1.0000
  S   S916      1.0  0.53602  0.59662  0.88020  1.0000
  Fe  Fe457     1.0  0.54844  0.52965  0.88769  1.0000
  S   S917      1.0  0.52995  0.51208  0.88780  1.0000
  Fe  Fe458     1.0  0.58447  0.54092  0.87680  1.0000
  S   S918      1.0  0.61296  0.53463  0.86168  1.0000
  S   S919      1.0  0.53739  0.54809  0.90696  1.0000
  S   S920      1.0  0.57595  0.56035  0.89498  1.0000
  Fe  Fe459     1.0  0.72065  0.58207  0.82672  1.0000
  S   S921      1.0  0.73297  0.59360  0.84237  1.0000
  Fe  Fe460     1.0  0.68279  0.59320  0.84726  1.0000
  S   S922      1.0  0.69182  0.60549  0.86497  1.0000
  S   S923      1.0  0.65321  0.59720  0.84967  1.0000
  Fe  Fe461     1.0  0.70952  0.61667  0.83989  1.0000
  H   H5474     1.0  0.86514  0.57755  0.86448  1.0000
  Fe  Fe462     1.0  0.71417  0.58152  0.86597  1.0000
  S   S924      1.0  0.72214  0.56451  0.89110  1.0000
  S   S925      1.0  0.69891  0.60621  0.82203  1.0000
  S   S926      1.0  0.70346  0.56811  0.85058  1.0000
  H   H5475     1.0  0.50683  0.52282  0.78208  1.0000
  C   C6847     1.0  0.50139  0.87238  0.87244  1.0000
  S   S927      1.0  0.61717  0.75096  0.81474  1.0000
  S   S928      1.0  0.49421  0.71698  0.79430  1.0000
  Fe  Fe463     1.0  0.63839  0.76590  0.79851  1.0000
  S   S929      1.0  0.64421  0.79072  0.80311  1.0000
  Fe  Fe464     1.0  0.63761  0.72635  0.80927  1.0000
  S   S930      1.0  0.63909  0.70130  0.83075  1.0000
  Fe  Fe465     1.0  0.91363  0.48568  0.87196  1.0000
  Fe  Fe466     1.0  0.58286  0.86939  0.84106  1.0000
  S   S931      1.0  0.55977  0.89002  0.85169  1.0000
  S   S932      1.0  0.58869  0.84002  0.85325  1.0000
  Fe  Fe467     1.0  0.59482  0.89513  0.80772  1.0000
  S   S933      1.0  0.57312  0.91790  0.81505  1.0000
  H   H5476     1.0  0.56205  0.48857  0.96752  1.0000
  Fe  Fe468     1.0  0.57958  0.90812  0.84237  1.0000
  S   S934      1.0  0.57855  0.92944  0.85726  1.0000
  Fe  Fe469     1.0  0.55507  0.89827  0.82371  1.0000
  S   S935      1.0  0.52916  0.90734  0.81382  1.0000
  S   S936      1.0  0.60293  0.88673  0.83418  1.0000
  S   S937      1.0  0.57630  0.87638  0.81408  1.0000
  H   H5477     1.0  0.86859  0.48703  0.87975  1.0000
  H   H5478     1.0  0.74614  0.63847  0.87399  1.0000
  C   C6848     1.0  0.76315  0.51778  0.85866  1.0000
  C   C6849     1.0  0.59272  0.91658  0.91700  1.0000
  H   H5479     1.0  0.51970  0.80664  0.85321  1.0000
  H   H5480     1.0  0.60376  0.90525  0.91789  1.0000
  Fe  Fe470     1.0  0.92474  0.51766  0.84501  1.0000
  S   S938      1.0  0.89834  0.50996  0.85683  1.0000
  S   S939      1.0  0.92975  0.52764  0.81512  1.0000
  Fe  Fe471     1.0  0.93639  0.50641  0.88118  1.0000
  S   S940      1.0  0.91056  0.49792  0.89538  1.0000
  S   S941      1.0  0.95812  0.50018  0.89722  1.0000
  C   C6850     1.0  0.60033  0.49093  0.93713  1.0000
  Fe  Fe472     1.0  0.89794  0.52304  0.87873  1.0000
  S   S942      1.0  0.87356  0.54287  0.88781  1.0000
  H   H5481     1.0  0.54302  0.78839  0.79880  1.0000
  S   S943      1.0  0.92346  0.53261  0.86598  1.0000
  H   H5482     1.0  0.59882  0.55820  0.92101  1.0000
  P   P230      1.0  0.83053  0.49175  0.79497  1.0000
  C   C6851     1.0  0.51342  0.55756  0.85923  1.0000
  H   H5483     1.0  0.48998  0.63393  0.78209  1.0000
  C   C6852     1.0  0.56510  0.94655  0.91360  1.0000
  H   H5484     1.0  0.75942  0.53873  0.89209  1.0000
  H   H5485     1.0  0.92562  0.49785  0.92672  1.0000
  H   H5486     1.0  0.62717  0.97289  0.94503  1.0000
  C   C6853     1.0  0.69727  0.59505  0.78410  1.0000
  S   S944      1.0  0.79819  0.56436  0.96635  1.0000
  C   C6854     1.0  0.70825  0.60751  0.77751  1.0000
  S   S945      1.0  0.85910  0.57263  0.78872  1.0000
  H   H5487     1.0  0.85842  0.60882  0.84825  1.0000
  Fe  Fe473     1.0  0.77289  0.56891  0.95628  1.0000
  S   S946      1.0  0.76512  0.59057  0.93313  1.0000
  H   H5488     1.0  0.71027  0.95226  0.80204  1.0000
  S   S947      1.0  0.77582  0.54029  0.95554  1.0000
  C   C6855     1.0  0.82444  0.59415  0.84128  1.0000
  H   H5489     1.0  0.55650  0.61749  0.88983  1.0000
  C   C6856     1.0  0.61726  0.96477  0.95080  1.0000
  C   C6857     1.0  0.51380  0.89395  0.81586  1.0000
  P   P231      1.0  0.57084  0.95998  0.94032  1.0000
  C   C6858     1.0  0.50227  0.50415  0.85531  1.0000
  C   C6859     1.0  0.95890  0.51502  0.91014  1.0000
  C   C6860     1.0  0.96154  0.53857  0.93026  1.0000
  C   C6861     1.0  0.94914  0.54362  0.91909  1.0000
  C   C6862     1.0  0.94769  0.53186  0.90921  1.0000
  H   H5490     1.0  0.59329  0.83245  0.80584  1.0000
  H   H5491     1.0  0.93818  0.53600  0.90056  1.0000
  C   C6863     1.0  0.85956  0.53473  0.90756  1.0000
  C   C6864     1.0  0.84541  0.54665  0.91561  1.0000
  C   C6865     1.0  0.83462  0.54059  0.93193  1.0000
  C   C6866     1.0  0.83764  0.52257  0.93998  1.0000
  C   C6867     1.0  0.85158  0.51057  0.93177  1.0000
  C   C6868     1.0  0.86253  0.51665  0.91553  1.0000
  H   H5492     1.0  0.84307  0.56065  0.90946  1.0000
  H   H5493     1.0  0.82402  0.54986  0.93835  1.0000
  H   H5494     1.0  0.85387  0.49658  0.93794  1.0000
  H   H5495     1.0  0.87314  0.50733  0.90915  1.0000
  C   C6869     1.0  0.88010  0.55803  0.81335  1.0000
  C   C6870     1.0  0.89553  0.54788  0.81944  1.0000
  C   C6871     1.0  0.91054  0.54107  0.80747  1.0000
  H   H5496     1.0  0.83256  0.61954  0.83360  1.0000
  H   H5497     1.0  0.86856  0.56319  0.82275  1.0000
  H   H5498     1.0  0.89586  0.54552  0.83340  1.0000
  C   C6872     1.0  0.56024  0.65556  0.78145  1.0000
  C   C6873     1.0  0.51915  0.82676  0.86718  1.0000
  H   H5499     1.0  0.97995  0.49689  0.92218  1.0000
  C   C6874     1.0  0.59714  0.93463  0.86188  1.0000
  C   C6875     1.0  0.61277  0.92186  0.86394  1.0000
  C   C6876     1.0  0.62635  0.92591  0.86972  1.0000
  C   C6877     1.0  0.62468  0.94286  0.87309  1.0000
  C   C6878     1.0  0.60930  0.95579  0.87050  1.0000
  C   C6879     1.0  0.59553  0.95161  0.86513  1.0000
  H   H5500     1.0  0.61410  0.90867  0.86172  1.0000
  H   H5501     1.0  0.63814  0.91580  0.87182  1.0000
  Fe  Fe474     1.0  0.61062  0.75185  0.78858  1.0000
  H   H5502     1.0  0.58343  0.96152  0.86374  1.0000
  C   C6880     1.0  0.51621  0.87590  0.82418  1.0000
  H   H5503     1.0  0.52806  0.86967  0.82947  1.0000
  C   C6881     1.0  0.62869  0.80422  0.81721  1.0000
  C   C6882     1.0  0.62919  0.82231  0.81423  1.0000
  C   C6883     1.0  0.61697  0.83344  0.82514  1.0000
  C   C6884     1.0  0.60442  0.82644  0.83940  1.0000
  C   C6885     1.0  0.60423  0.80830  0.84263  1.0000
  C   C6886     1.0  0.61604  0.79728  0.83138  1.0000
  H   H5504     1.0  0.63896  0.82779  0.80334  1.0000
  H   H5505     1.0  0.61732  0.84740  0.82256  1.0000
  H   H5506     1.0  0.59483  0.80282  0.85386  1.0000
  H   H5507     1.0  0.61568  0.78333  0.83395  1.0000
  H   H5508     1.0  0.66084  0.64747  0.81378  1.0000
  C   C6887     1.0  0.59015  0.66360  0.78754  1.0000
  C   C6888     1.0  0.85157  0.56794  0.95328  1.0000
  Fe  Fe475     1.0  0.64377  0.97454  0.88326  1.0000
  H   H5509     1.0  0.79999  0.49095  0.96037  1.0000
  C   C6889     1.0  0.58957  0.54915  0.97273  1.0000
  C   C6890     1.0  0.89450  0.55475  0.78322  1.0000
  C   C6891     1.0  0.64747  0.64581  0.81468  1.0000
  H   H5510     1.0  0.60983  0.80567  0.79149  1.0000
  S   S948      1.0  0.58145  0.76096  0.78677  1.0000
  C   C6892     1.0  0.69201  0.66087  0.83197  1.0000
  C   C6893     1.0  0.67577  0.65588  0.84068  1.0000
  C   C6894     1.0  0.65970  0.66853  0.84051  1.0000
  C   C6895     1.0  0.65968  0.68612  0.83123  1.0000
  C   C6896     1.0  0.67590  0.69113  0.82248  1.0000
  H   H5511     1.0  0.67557  0.64231  0.84765  1.0000
  H   H5512     1.0  0.64720  0.66457  0.84722  1.0000
  C   C6897     1.0  0.73351  0.57262  0.90256  1.0000
  C   C6898     1.0  0.73666  0.56260  0.91913  1.0000
  C   C6899     1.0  0.74602  0.56828  0.92860  1.0000
  C   C6900     1.0  0.75257  0.58391  0.92151  1.0000
  C   C6901     1.0  0.74904  0.59422  0.90508  1.0000
  C   C6902     1.0  0.73956  0.58857  0.89554  1.0000
  H   H5513     1.0  0.73171  0.55044  0.92478  1.0000
  H   H5514     1.0  0.74767  0.56075  0.94164  1.0000
  H   H5515     1.0  0.75387  0.60643  0.89966  1.0000
  H   H5516     1.0  0.73709  0.59642  0.88276  1.0000
  C   C6903     1.0  0.62448  0.55195  0.85754  1.0000
  C   C6904     1.0  0.61505  0.56890  0.85984  1.0000
  C   C6905     1.0  0.62401  0.58280  0.85644  1.0000
  C   C6906     1.0  0.64267  0.57964  0.85175  1.0000
  C   C6907     1.0  0.65229  0.56269  0.84933  1.0000
  C   C6908     1.0  0.64314  0.54889  0.85197  1.0000
  H   H5517     1.0  0.60079  0.57133  0.86419  1.0000
  H   H5518     1.0  0.61638  0.59596  0.85777  1.0000
  H   H5519     1.0  0.66669  0.56019  0.84552  1.0000
  H   H5520     1.0  0.65053  0.53578  0.85011  1.0000
  C   C6909     1.0  0.53242  0.60752  0.85878  1.0000
  C   C6910     1.0  0.52564  0.62592  0.85544  1.0000
  C   C6911     1.0  0.52222  0.63491  0.83858  1.0000
  C   C6912     1.0  0.52569  0.62551  0.82499  1.0000
  C   C6913     1.0  0.53605  0.59821  0.84513  1.0000
  H   H5521     1.0  0.52291  0.63320  0.86595  1.0000
  H   H5522     1.0  0.51674  0.64906  0.83617  1.0000
  H   H5523     1.0  0.54137  0.58408  0.84759  1.0000
  C   C6914     1.0  0.51385  0.50577  0.83866  1.0000
  C   C6915     1.0  0.95021  0.48992  0.79031  1.0000
  C   C6916     1.0  0.50716  0.50678  0.87006  1.0000
  C   C6917     1.0  0.52372  0.51094  0.86838  1.0000
  C   C6918     1.0  0.53531  0.51280  0.85170  1.0000
  C   C6919     1.0  0.53043  0.51006  0.83690  1.0000
  C   C6920     1.0  0.85149  0.58375  0.95798  1.0000
  H   H5524     1.0  0.64273  0.48917  0.91294  1.0000
  H   H5525     1.0  0.54819  0.51586  0.85030  1.0000
  H   H5526     1.0  0.53951  0.51124  0.82408  1.0000
  H   H5527     1.0  0.77484  0.61688  0.79442  1.0000
  C   C6921     1.0  0.57126  0.54211  0.95610  1.0000
  C   C6922     1.0  0.58805  0.54105  0.95951  1.0000
  C   C6923     1.0  0.84173  0.48324  0.89154  1.0000
  C   C6924     1.0  0.76538  0.52969  0.88298  1.0000
  C   C6925     1.0  0.60364  0.48842  0.95417  1.0000
  H   H5528     1.0  0.79216  0.53934  0.81824  1.0000
  C   C6926     1.0  0.57889  0.58953  0.84222  1.0000
  C   C6927     1.0  0.54091  0.82080  0.84057  1.0000
  C   C6928     1.0  0.54906  0.83420  0.84110  1.0000
  C   C6929     1.0  0.54210  0.84405  0.85452  1.0000
  C   C6930     1.0  0.52720  0.84029  0.86781  1.0000
  C   C6931     1.0  0.73191  0.63157  0.78904  1.0000
  C   C6932     1.0  0.53283  0.86274  0.89012  1.0000
  C   C6933     1.0  0.52763  0.87848  0.89674  1.0000
  C   C6934     1.0  0.54018  0.88501  0.90145  1.0000
  C   C6935     1.0  0.55790  0.87570  0.89990  1.0000
  C   C6936     1.0  0.56301  0.85968  0.89396  1.0000
  C   C6937     1.0  0.55049  0.85309  0.88931  1.0000
  H   H5529     1.0  0.54597  0.81345  0.82994  1.0000
  H   H5530     1.0  0.56063  0.83723  0.83101  1.0000
  H   H5531     1.0  0.54815  0.85490  0.85421  1.0000
  H   H5532     1.0  0.51395  0.88583  0.89805  1.0000
  H   H5533     1.0  0.53621  0.89742  0.90608  1.0000
  H   H5534     1.0  0.56769  0.88095  0.90319  1.0000
  H   H5535     1.0  0.57677  0.85248  0.89258  1.0000
  H   H5536     1.0  0.55479  0.84061  0.88480  1.0000
  P   P232      1.0  0.80582  0.60187  0.83009  1.0000
  C   C6938     1.0  0.80053  0.58277  0.82567  1.0000
  C   C6939     1.0  0.88105  0.56831  0.93483  1.0000
  C   C6940     1.0  0.86626  0.56036  0.94157  1.0000
  H   H5537     1.0  0.58482  0.90977  0.89599  1.0000
  H   H5538     1.0  0.54580  0.49407  0.91853  1.0000
  C   C6941     1.0  0.86620  0.59207  0.95102  1.0000
  C   C6942     1.0  0.88109  0.58405  0.93957  1.0000
  P   P233      1.0  0.86575  0.61290  0.95662  1.0000
  C   C6943     1.0  0.84387  0.62697  0.95633  1.0000
  H   H5539     1.0  0.56828  0.82877  0.79550  1.0000
  H   H5540     1.0  0.50622  0.80298  0.93235  1.0000
  H   H5541     1.0  0.79348  0.50725  0.80967  1.0000
  C   C6944     1.0  0.56138  0.60943  0.90155  1.0000
  H   H5542     1.0  0.50730  0.82398  0.87690  1.0000
  C   C6945     1.0  0.63297  0.66001  0.81678  1.0000
  H   H5543     1.0  0.49696  0.72137  0.89759  1.0000
  H   H5544     1.0  0.77212  0.55395  0.84235  1.0000
  H   H5545     1.0  0.51828  0.85343  0.79097  1.0000
  H   H5546     1.0  0.78679  0.63471  0.80943  1.0000
  C   C6946     1.0  0.83366  0.62599  0.94467  1.0000
  C   C6947     1.0  0.88218  0.62402  0.94039  1.0000
  C   C6948     1.0  0.87706  0.63840  0.92689  1.0000
  C   C6949     1.0  0.88994  0.64667  0.91424  1.0000
  C   C6950     1.0  0.90800  0.64060  0.91493  1.0000
  C   C6951     1.0  0.91321  0.62627  0.92829  1.0000
  C   C6952     1.0  0.90036  0.61804  0.94095  1.0000
  H   H5547     1.0  0.89245  0.56230  0.92578  1.0000
  H   H5548     1.0  0.86620  0.54834  0.93762  1.0000
  C   C6953     1.0  0.79653  0.51329  0.79566  1.0000
  H   H5549     1.0  0.92123  0.95973  0.90588  1.0000
  H   H5550     1.0  0.89270  0.58990  0.93403  1.0000
  C   C6954     1.0  0.81162  0.57450  0.81192  1.0000
  H   H5551     1.0  0.80242  0.61786  0.86095  1.0000
  H   H5552     1.0  0.58734  0.60251  0.95081  1.0000
  C   C6955     1.0  0.78354  0.52663  0.78824  1.0000
  C   C6956     1.0  0.85057  0.51545  0.79532  1.0000
  H   H5553     1.0  0.89894  0.96347  0.88754  1.0000
  C   C6957     1.0  0.76978  0.61700  0.84054  1.0000
  H   H5554     1.0  0.77649  0.63327  0.87994  1.0000
  C   C6958     1.0  0.78937  0.62006  0.85798  1.0000
  H   H5555     1.0  0.83890  0.61700  0.93548  1.0000
  H   H5556     1.0  0.86318  0.64328  0.92602  1.0000
  H   H5557     1.0  0.88592  0.65777  0.90386  1.0000
  H   H5558     1.0  0.91798  0.64697  0.90510  1.0000
  H   H5559     1.0  0.92723  0.62149  0.92880  1.0000
  H   H5560     1.0  0.90459  0.60692  0.95114  1.0000
  C   C6959     1.0  0.83897  0.50429  0.80566  1.0000
  C   C6960     1.0  0.59924  0.85430  0.78435  1.0000
  H   H5561     1.0  0.53537  0.48409  0.95078  1.0000
  C   C6961     1.0  0.62113  0.48596  0.95651  1.0000
  C   C6962     1.0  0.91006  0.97099  0.90589  1.0000
  C   C6963     1.0  0.67481  0.91136  0.79121  1.0000
  C   C6964     1.0  0.91364  0.97902  0.96699  1.0000
  P   P234      1.0  0.66242  0.91902  0.81130  1.0000
  C   C6965     1.0  0.65828  0.89919  0.82758  1.0000
  C   C6966     1.0  0.67451  0.93202  0.81767  1.0000
  C   C6967     1.0  0.66763  0.93834  0.83356  1.0000
  H   H5562     1.0  0.89337  0.51190  0.93112  1.0000
  H   H5563     1.0  0.49786  0.91481  0.84812  1.0000
  C   C6968     1.0  0.69852  0.94813  0.81097  1.0000
  C   C6969     1.0  0.68983  0.93737  0.80618  1.0000
  C   C6970     1.0  0.66306  0.89514  0.84424  1.0000
  C   C6971     1.0  0.65973  0.87961  0.85650  1.0000
  C   C6972     1.0  0.65194  0.86786  0.85211  1.0000
  C   C6973     1.0  0.64753  0.87159  0.83542  1.0000
  C   C6974     1.0  0.65062  0.88721  0.82321  1.0000
  C   C6975     1.0  0.64169  0.93411  0.80782  1.0000
  C   C6976     1.0  0.62508  0.93017  0.81715  1.0000
  C   C6977     1.0  0.60937  0.94275  0.81495  1.0000
  C   C6978     1.0  0.61010  0.95929  0.80359  1.0000
  H   H5564     1.0  0.81742  0.55259  0.79866  1.0000
  C   C6979     1.0  0.64228  0.95070  0.79635  1.0000
  H   H5565     1.0  0.54300  0.55197  0.96363  1.0000
  C   C6980     1.0  0.61921  0.95153  0.96602  1.0000
  C   C6981     1.0  0.63952  0.62696  0.94381  1.0000
  H   H5566     1.0  0.69818  0.89802  0.80234  1.0000
  H   H5567     1.0  0.90693  0.50948  0.79386  1.0000
  H   H5568     1.0  0.65534  0.93521  0.84221  1.0000
  C   C6982     1.0  0.89752  0.97311  0.89555  1.0000
  H   H5569     1.0  0.69849  0.96225  0.83084  1.0000
  C   C6983     1.0  0.90358  0.49662  0.79999  1.0000
  H   H5570     1.0  0.69492  0.93367  0.79334  1.0000
  H   H5571     1.0  0.66936  0.90380  0.84790  1.0000
  H   H5572     1.0  0.66320  0.87669  0.86944  1.0000
  H   H5573     1.0  0.64931  0.85586  0.86163  1.0000
  H   H5574     1.0  0.64148  0.86248  0.83200  1.0000
  H   H5575     1.0  0.64684  0.89003  0.81040  1.0000
  H   H5576     1.0  0.62410  0.91764  0.82634  1.0000
  H   H5577     1.0  0.59658  0.93971  0.82215  1.0000
  C   C6984     1.0  0.75566  0.52885  0.87093  1.0000
  H   H5578     1.0  0.67107  0.95356  0.85079  1.0000
  H   H5579     1.0  0.51989  0.55155  0.78312  1.0000
  C   C6985     1.0  0.53277  0.60720  0.82822  1.0000
  C   C6986     1.0  0.52605  0.81699  0.85368  1.0000
  C   C6987     1.0  0.64467  0.62931  0.81429  1.0000
  H   H5580     1.0  0.62546  0.60322  0.87965  1.0000
  H   H5581     1.0  0.70248  0.58180  0.79108  1.0000
  Fe  Fe476     1.0  0.97539  0.54979  0.96572  1.0000
  C   C6988     1.0  0.84291  0.57059  0.85896  1.0000
  Fe  Fe477     1.0  0.51170  0.66597  0.80144  1.0000
  C   C6989     1.0  0.97236  0.52149  0.93167  1.0000
  Fe  Fe478     1.0  0.49809  0.69750  0.81969  1.0000
  H   H5582     1.0  0.74231  0.53694  0.87105  1.0000
  C   C6990     1.0  0.52198  0.94942  0.96797  1.0000
  H   H5583     1.0  0.88718  0.50596  0.82327  1.0000
  C   C6991     1.0  0.85373  0.58224  0.85810  1.0000
  C   C6992     1.0  0.57640  0.64789  0.83890  1.0000
  C   C6993     1.0  0.62727  0.64368  0.88483  1.0000
  C   C6994     1.0  0.63524  0.48607  0.94154  1.0000
  C   C6995     1.0  0.83014  0.61304  0.79941  1.0000
  C   C6996     1.0  0.87945  0.56134  0.79528  1.0000
  H   H5584     1.0  0.74186  0.62813  0.84884  1.0000
  C   C6997     1.0  0.54454  0.73563  0.78348  1.0000
  C   C6998     1.0  0.80944  0.64815  0.95673  1.0000
  H   H5585     1.0  0.53049  0.73587  0.78891  1.0000
  H   H5586     1.0  0.80344  0.50012  0.87013  1.0000
  C   C6999     1.0  0.84992  0.59986  0.84897  1.0000
  H   H5587     1.0  0.57307  0.61422  0.85048  1.0000
  C   C7000     1.0  0.80871  0.55882  0.80934  1.0000
  H   H5588     1.0  0.78559  0.55438  0.87276  1.0000
  C   C7001     1.0  0.67641  0.94896  0.83837  1.0000
  C   C7002     1.0  0.62934  0.62962  0.87647  1.0000
  C   C7003     1.0  0.58587  0.59567  0.91700  1.0000
  C   C7004     1.0  0.50839  0.54863  0.81100  1.0000
  C   C7005     1.0  0.50757  0.55230  0.79302  1.0000
  H   H5589     1.0  0.79603  0.65609  0.95715  1.0000
  C   C7006     1.0  0.75514  0.62587  0.85136  1.0000
  C   C7007     1.0  0.61979  0.64199  0.90301  1.0000
  H   H5590     1.0  0.68516  0.65166  0.78783  1.0000
  C   C7008     1.0  0.62414  0.61381  0.88635  1.0000
  C   C7009     1.0  0.58941  0.92889  0.92787  1.0000
  H   H5591     1.0  0.56044  0.63624  0.80593  1.0000
  C   C7010     1.0  0.61331  0.58797  0.93959  1.0000
  H   H5592     1.0  0.77749  0.58102  0.84746  1.0000
  H   H5593     1.0  0.67838  0.63477  0.95924  1.0000
  C   C7011     1.0  0.49729  0.56057  0.87139  1.0000
  H   H5594     1.0  0.59693  0.63829  0.85460  1.0000
  C   C7012     1.0  0.54969  0.60137  0.91588  1.0000
  C   C7013     1.0  0.58192  0.65048  0.79995  1.0000
  C   C7014     1.0  0.78631  0.57513  0.83670  1.0000
  C   C7015     1.0  0.50133  0.81688  0.92699  1.0000
  S   S949      1.0  0.71233  0.64527  0.83236  1.0000
  H   H5595     1.0  0.57881  0.57838  0.94257  1.0000
  C   C7016     1.0  0.59616  0.58851  0.81242  1.0000
  C   C7017     1.0  0.58327  0.64523  0.85425  1.0000
  C   C7018     1.0  0.63839  0.57022  0.89932  1.0000
  H   H5596     1.0  0.58832  0.61241  0.89052  1.0000
  C   C7019     1.0  0.64728  0.55442  0.89354  1.0000
  C   C7020     1.0  0.81258  0.61664  0.80920  1.0000
  C   C7021     1.0  0.83298  0.50417  0.82397  1.0000
  C   C7022     1.0  0.80565  0.64224  0.78567  1.0000
  H   H5597     1.0  0.64533  0.58103  0.89615  1.0000
  C   C7023     1.0  0.78702  0.61389  0.84382  1.0000
  C   C7024     1.0  0.77466  0.62885  0.86883  1.0000
  H   H5598     1.0  0.52438  0.54724  0.86323  1.0000
  H   H5599     1.0  0.60175  0.66698  0.78949  1.0000
  H   H5600     1.0  0.51457  0.80002  0.81802  1.0000
  H   H5601     1.0  0.62559  0.61382  0.81637  1.0000
  H   H5602     1.0  0.75556  0.51728  0.84929  1.0000
  H   H5603     1.0  0.66821  0.68099  0.79365  1.0000
  H   H5604     1.0  0.67604  0.70468  0.81537  1.0000
  H   H5605     1.0  0.65590  0.61815  0.81320  1.0000
  C   C7025     1.0  0.67771  0.57337  0.91036  1.0000
  C   C7026     1.0  0.68188  0.55775  0.92281  1.0000
  C   C7027     1.0  0.68336  0.55869  0.93967  1.0000
  C   C7028     1.0  0.68106  0.57524  0.94394  1.0000
  C   C7029     1.0  0.67781  0.59095  0.93121  1.0000
  C   C7030     1.0  0.67530  0.58994  0.91465  1.0000
  P   P235      1.0  0.67612  0.61219  0.93650  1.0000
  C   C7031     1.0  0.65447  0.61708  0.95081  1.0000
  C   C7032     1.0  0.69278  0.61134  0.94864  1.0000
  C   C7033     1.0  0.69016  0.62419  0.95886  1.0000
  C   C7034     1.0  0.60352  0.59140  0.97037  1.0000
  C   C7035     1.0  0.57534  0.83913  0.78787  1.0000
  C   C7036     1.0  0.72073  0.59718  0.95812  1.0000
  C   C7037     1.0  0.70839  0.59809  0.94797  1.0000
  C   C7038     1.0  0.55363  0.48253  0.92580  1.0000
  H   H5606     1.0  0.59788  0.96899  0.80203  1.0000
  P   P236      1.0  0.59018  0.63887  0.81996  1.0000
  C   C7039     1.0  0.89228  0.49468  0.81679  1.0000
  C   C7040     1.0  0.65238  0.61031  0.96925  1.0000
  C   C7041     1.0  0.68051  0.62877  0.91637  1.0000
  C   C7042     1.0  0.69430  0.62413  0.90211  1.0000
  C   C7043     1.0  0.69764  0.63665  0.88629  1.0000
  C   C7044     1.0  0.68751  0.65399  0.88469  1.0000
  C   C7045     1.0  0.67438  0.65897  0.89912  1.0000
  C   C7046     1.0  0.67105  0.64648  0.91501  1.0000
  H   H5607     1.0  0.67704  0.57263  0.89712  1.0000
  H   H5608     1.0  0.68429  0.54494  0.91924  1.0000
  H   H5609     1.0  0.68675  0.54664  0.94933  1.0000
  H   H5610     1.0  0.68213  0.57575  0.95707  1.0000
  H   H5611     1.0  0.67196  0.60184  0.90483  1.0000
  C   C7047     1.0  0.58965  0.84114  0.79383  1.0000
  C   C7048     1.0  0.56827  0.93407  0.90298  1.0000
  H   H5612     1.0  0.92820  0.50913  0.97578  1.0000
  H   H5613     1.0  0.73257  0.58673  0.95783  1.0000
  H   H5614     1.0  0.71109  0.58840  0.93973  1.0000
  C   C7049     1.0  0.74632  0.62554  0.79764  1.0000
  C   C7050     1.0  0.58727  0.58002  0.82872  1.0000
  C   C7051     1.0  0.51549  0.56799  0.84205  1.0000
  H   H5615     1.0  0.60453  0.66866  0.82072  1.0000
  H   H5616     1.0  0.71848  0.63389  0.79696  1.0000
  H   H5617     1.0  0.70239  0.61075  0.90313  1.0000
  H   H5618     1.0  0.70801  0.63290  0.87517  1.0000
  H   H5619     1.0  0.69001  0.66357  0.87230  1.0000
  H   H5620     1.0  0.66690  0.67257  0.89798  1.0000
  H   H5621     1.0  0.66123  0.65074  0.92619  1.0000
  H   H5622     1.0  0.79615  0.65357  0.78033  1.0000
  C   C7052     1.0  0.62737  0.62692  0.81607  1.0000
  H   H5623     1.0  0.64055  0.57340  0.93290  1.0000
  C   C7053     1.0  0.55323  0.74621  0.78865  1.0000
  H   H5624     1.0  0.83984  0.60176  0.80445  1.0000
  C   C7054     1.0  0.57239  0.65109  0.86943  1.0000
  Fe  Fe479     1.0  0.52079  0.70168  0.78251  1.0000
  C   C7055     1.0  0.60019  0.59476  0.95324  1.0000
  H   H5625     1.0  0.64072  0.63150  0.92959  1.0000
  C   C7056     1.0  0.62006  0.58166  0.97387  1.0000
  H   H5626     1.0  0.62719  0.97606  0.78533  1.0000
  H   H5627     1.0  0.76739  0.49270  0.97105  1.0000
  H   H5628     1.0  0.54858  0.65254  0.77911  1.0000
  C   C7057     1.0  0.51474  0.82747  0.80545  1.0000
  C   C7058     1.0  0.81647  0.63648  0.94497  1.0000
  H   H5629     1.0  0.60847  0.62518  0.92683  1.0000
  C   C7059     1.0  0.63858  0.54027  0.89734  1.0000
  C   C7060     1.0  0.49403  0.90230  0.85512  1.0000
  C   C7061     1.0  0.76707  0.57786  0.79054  1.0000
  C   C7062     1.0  0.75756  0.63175  0.86552  1.0000
  C   C7063     1.0  0.51090  0.82550  0.91112  1.0000
  C   C7064     1.0  0.79013  0.50820  0.87058  1.0000
  C   C7065     1.0  0.58887  0.61588  0.82346  1.0000
  H   H5630     1.0  0.57774  0.64884  0.88126  1.0000
  C   C7066     1.0  0.61719  0.61176  0.90471  1.0000
  P   P237      1.0  0.51671  0.85468  0.88352  1.0000
  H   H5631     1.0  0.94078  0.55682  0.91785  1.0000
  C   C7067     1.0  0.52385  0.83931  0.79229  1.0000
  H   H5632     1.0  0.58880  0.97515  0.90462  1.0000
  H   H5633     1.0  0.55459  0.95827  0.91180  1.0000
  H   H5634     1.0  0.82268  0.58001  0.80326  1.0000
  C   C7068     1.0  0.79113  0.49633  0.95103  1.0000
  H   H5635     1.0  0.59250  0.48879  0.96540  1.0000
  H   H5636     1.0  0.92587  0.57388  0.94953  1.0000
  H   H5637     1.0  0.63149  0.51721  0.95557  1.0000
  C   C7069     1.0  0.62111  0.54177  0.90724  1.0000
  H   H5638     1.0  0.72182  0.60365  0.77950  1.0000
  C   C7070     1.0  0.78271  0.51936  0.88296  1.0000
  H   H5639     1.0  0.51597  0.72545  0.82451  1.0000
  C   C7071     1.0  0.54672  0.81441  0.78364  1.0000
  H   H5640     1.0  0.48935  0.78804  0.80248  1.0000
  C   C7072     1.0  0.69205  0.67855  0.82298  1.0000
  H   H5641     1.0  0.52332  0.75308  0.82732  1.0000
  H   H5642     1.0  0.51122  0.94487  0.96555  1.0000
  C   C7073     1.0  0.62658  0.96325  0.79420  1.0000
  H   H5643     1.0  0.61026  0.85590  0.78912  1.0000
  H   H5644     1.0  0.60253  0.54829  0.97527  1.0000
  C   C7074     1.0  0.69187  0.95382  0.82713  1.0000
  S   S950      1.0  0.62926  0.72600  0.78437  1.0000
  C   C7075     1.0  0.64073  0.51297  0.96452  1.0000
  C   C7076     1.0  0.97117  0.50985  0.92148  1.0000
  C   C7077     1.0  0.55121  0.95718  0.95766  1.0000
  H   H5645     1.0  0.77049  0.53076  0.79634  1.0000
  C   C7078     1.0  0.50799  0.73247  0.83485  1.0000
  H   H5646     1.0  0.64218  0.97246  0.82792  1.0000
  C   C7079     1.0  0.58977  0.95693  0.95033  1.0000
  H   H5647     1.0  0.60368  0.61291  0.79700  1.0000
  C   C7080     1.0  0.81967  0.64948  0.96808  1.0000
  H   H5648     1.0  0.49590  0.55249  0.88476  1.0000
  H   H5649     1.0  0.52325  0.81820  0.90442  1.0000
  H   H5650     1.0  0.79320  0.58363  0.77775  1.0000
  H   H5651     1.0  0.61423  0.53091  0.91005  1.0000
  C   C7081     1.0  0.61228  0.55747  0.91320  1.0000
  C   C7082     1.0  0.83539  0.62389  0.78293  1.0000
  H   H5652     1.0  0.59797  0.92669  0.93718  1.0000
  C   C7083     1.0  0.57942  0.60651  0.90202  1.0000
  S   S951      1.0  0.52126  0.63641  0.80390  1.0000
  P   P238      1.0  0.60925  0.59190  0.91740  1.0000
  C   C7084     1.0  0.61567  0.65765  0.81869  1.0000
  C   C7085     1.0  0.57972  0.60732  0.83969  1.0000
  H   H5653     1.0  0.81397  0.48348  0.90300  1.0000
  H   H5654     1.0  0.82730  0.97409  0.94356  1.0000
  H   H5655     1.0  0.50236  0.83258  0.81394  1.0000
  C   C7086     1.0  0.61460  0.62617  0.91287  1.0000
  H   H5656     1.0  0.58811  0.79728  0.77965  1.0000
  C   C7087     1.0  0.87459  0.90107  0.97146  1.0000
  C   C7088     1.0  0.89614  0.91763  0.97183  1.0000
  C   C7089     1.0  0.50605  0.88879  0.86373  1.0000
  C   C7090     1.0  0.80037  0.63143  0.80222  1.0000
  H   H5657     1.0  0.58699  0.56604  0.83099  1.0000
  H   H5658     1.0  0.54582  0.75454  0.79806  1.0000
  H   H5659     1.0  0.64522  0.52830  0.89226  1.0000
  H   H5660     1.0  0.92166  0.53965  0.77993  1.0000
  C   C7091     1.0  0.82832  0.57646  0.85058  1.0000
  C   C7092     1.0  0.61089  0.80817  0.77724  1.0000
  H   H5661     1.0  0.61145  0.63883  0.94986  1.0000
  C   C7093     1.0  0.60260  0.96757  0.94298  1.0000
  H   H5662     1.0  0.50470  0.85236  0.83278  1.0000
  C   C7094     1.0  0.79460  0.55130  0.82042  1.0000
  C   C7095     1.0  0.85461  0.49345  0.88288  1.0000
  C   C7096     1.0  0.78333  0.55952  0.83401  1.0000
  H   H5663     1.0  0.76763  0.61245  0.82969  1.0000
  C   C7097     1.0  0.57551  0.94398  0.92629  1.0000
  C   C7098     1.0  0.83530  0.60583  0.84064  1.0000
  H   H5664     1.0  0.66833  0.97466  0.80303  1.0000
  C   C7099     1.0  0.55456  0.65948  0.86946  1.0000
  C   C7100     1.0  0.54767  0.66234  0.85419  1.0000
  C   C7101     1.0  0.55852  0.65650  0.83900  1.0000
  H   H5665     1.0  0.56039  0.93625  0.89301  1.0000
  C   C7102     1.0  0.82377  0.49154  0.89606  1.0000
  C   C7103     1.0  0.63185  0.48880  0.92448  1.0000
  H   H5666     1.0  0.54704  0.58369  0.94154  1.0000
  H   H5667     1.0  0.94281  0.49642  0.94915  1.0000
  C   C7104     1.0  0.61273  0.64121  0.81800  1.0000
  H   H5668     1.0  0.51907  0.89109  0.86315  1.0000
  C   C7105     1.0  0.53989  0.83285  0.78120  1.0000
  H   H5669     1.0  0.54601  0.66367  0.88134  1.0000
  H   H5670     1.0  0.53382  0.66882  0.85417  1.0000
  H   H5671     1.0  0.55276  0.65841  0.82754  1.0000
  Fe  Fe480     1.0  0.79948  0.53545  0.96778  1.0000
  H   H5672     1.0  0.52119  0.54513  0.81486  1.0000
  H   H5673     1.0  0.50342  0.58962  0.82364  1.0000
  C   C7106     1.0  0.92026  0.50931  0.96648  1.0000
  C   C7107     1.0  0.50301  0.86615  0.82596  1.0000
  S   S952      1.0  0.64187  0.94707  0.88100  1.0000
  H   H5674     1.0  0.84019  0.56159  0.95863  1.0000
  C   C7108     1.0  0.91023  0.55482  0.96581  1.0000
  C   C7109     1.0  0.55605  0.55152  0.96581  1.0000
  H   H5675     1.0  0.57877  0.69776  0.79467  1.0000
  H   H5676     1.0  0.58242  0.93487  0.97123  1.0000
  H   H5677     1.0  0.91177  0.54845  0.95485  1.0000
  H   H5678     1.0  0.78617  0.49883  0.84899  1.0000
  H   H5679     1.0  0.67100  0.59017  0.78754  1.0000
  C   C7110     1.0  0.49844  0.90203  0.80894  1.0000
  H   H5680     1.0  0.88617  0.62855  0.97283  1.0000
  H   H5681     1.0  0.60781  0.96885  0.87307  1.0000
  H   H5682     1.0  0.83980  0.58958  0.96681  1.0000
  H   H5683     1.0  0.80851  0.63540  0.93621  1.0000
  H   H5684     1.0  0.92306  0.58903  0.97413  1.0000
  C   C7111     1.0  0.52162  0.80916  0.80776  1.0000
  C   C7112     1.0  0.83686  0.63902  0.96781  1.0000
  H   H5685     1.0  0.86866  0.89508  0.96422  1.0000
  S   S953      1.0  0.94041  0.49225  0.85875  1.0000
  C   C7113     1.0  0.75145  0.57458  0.78803  1.0000
  C   C7114     1.0  0.91814  0.56944  0.96265  1.0000
  H   H5686     1.0  0.85488  0.51627  0.78106  1.0000
  H   H5687     1.0  0.58674  0.49320  0.93537  1.0000
  C   C7115     1.0  0.63002  0.57844  0.94321  1.0000
  C   C7116     1.0  0.50163  0.75739  0.84965  1.0000
  H   H5688     1.0  0.89337  0.91074  0.94828  1.0000
  H   H5689     1.0  0.50829  0.74906  0.89175  1.0000
  H   H5690     1.0  0.60262  0.58113  0.80195  1.0000
  H   H5691     1.0  0.76870  0.57687  0.80386  1.0000
  H   H5692     1.0  0.63508  0.67282  0.81714  1.0000
  C   C7117     1.0  0.85076  0.52563  0.82150  1.0000
  C   C7118     1.0  0.81340  0.50807  0.78509  1.0000
  H   H5693     1.0  0.93874  0.49917  0.79580  1.0000
  H   H5694     1.0  0.49812  0.50533  0.88290  1.0000
  C   C7119     1.0  0.91006  0.54475  0.78929  1.0000
  H   H5695     1.0  0.90703  0.92428  0.96474  1.0000
  H   H5696     1.0  0.53820  0.94753  0.94220  1.0000
  C   C7120     1.0  0.62112  0.62461  0.97360  1.0000
  C   C7121     1.0  0.91895  0.50301  0.93865  1.0000
  C   C7122     1.0  0.65199  0.52417  0.96384  1.0000
  H   H5697     1.0  0.70457  0.68250  0.81623  1.0000
  S   S954      1.0  0.82399  0.51493  0.96020  1.0000
  H   H5698     1.0  0.63504  0.63088  0.86231  1.0000
  C   C7123     1.0  0.51214  0.74809  0.83645  1.0000
  C   C7124     1.0  0.58206  0.91910  0.90467  1.0000
  S   S955      1.0  0.96392  0.55457  0.94096  1.0000
  H   H5699     1.0  0.66074  0.55336  0.88562  1.0000
  H   H5700     1.0  0.52815  0.56578  0.83277  1.0000
  C   C7125     1.0  0.67955  0.59977  0.78210  1.0000
  H   H5701     1.0  0.61805  0.65291  0.90950  1.0000
  C   C7126     1.0  0.78039  0.50745  0.85847  1.0000
  H   H5702     1.0  0.82020  0.56715  0.85135  1.0000
  H   H5703     1.0  0.63135  0.65590  0.87718  1.0000
  C   C7127     1.0  0.57408  0.58734  0.93119  1.0000
  H   H5704     1.0  0.84602  0.55696  0.86609  1.0000
  C   C7128     1.0  0.59397  0.68921  0.89463  1.0000
  C   C7129     1.0  0.61112  0.69286  0.88906  1.0000
  C   C7130     1.0  0.61491  0.70614  0.87411  1.0000
  C   C7131     1.0  0.60157  0.71587  0.86477  1.0000
  C   C7132     1.0  0.58429  0.71231  0.87022  1.0000
  C   C7133     1.0  0.58063  0.69882  0.88519  1.0000
  P   P239      1.0  0.56741  0.72455  0.85750  1.0000
  C   C7134     1.0  0.56974  0.74743  0.85069  1.0000
  C   C7135     1.0  0.57110  0.71538  0.83794  1.0000
  C   C7136     1.0  0.55663  0.71337  0.83205  1.0000
  C   C7137     1.0  0.55951  0.70650  0.81682  1.0000
  C   C7138     1.0  0.57675  0.70224  0.80692  1.0000
  C   C7139     1.0  0.59120  0.70463  0.81236  1.0000
  C   C7140     1.0  0.58843  0.71107  0.82786  1.0000
  C   C7141     1.0  0.57374  0.75560  0.86247  1.0000
  C   C7142     1.0  0.57593  0.77321  0.85714  1.0000
  C   C7143     1.0  0.57425  0.78273  0.84000  1.0000
  C   C7144     1.0  0.56998  0.77478  0.82833  1.0000
  C   C7145     1.0  0.56757  0.75723  0.83369  1.0000
  C   C7146     1.0  0.54530  0.72344  0.87091  1.0000
  C   C7147     1.0  0.53881  0.70778  0.87438  1.0000
  C   C7148     1.0  0.52146  0.70701  0.88403  1.0000
  S   S956      1.0  0.65957  0.74115  0.79515  1.0000
  C   C7149     1.0  0.59682  0.60644  0.80972  1.0000
  C   C7150     1.0  0.53420  0.73826  0.87744  1.0000
  H   H5705     1.0  0.59097  0.67894  0.90623  1.0000
  H   H5706     1.0  0.62153  0.68542  0.89624  1.0000
  H   H5707     1.0  0.62828  0.70880  0.86947  1.0000
  H   H5708     1.0  0.60489  0.72605  0.85314  1.0000
  H   H5709     1.0  0.56752  0.69569  0.88972  1.0000
  H   H5710     1.0  0.54306  0.71745  0.83890  1.0000
  H   H5711     1.0  0.54827  0.70522  0.81225  1.0000
  C   C7151     1.0  0.49382  0.72572  0.84696  1.0000
  H   H5712     1.0  0.60456  0.70172  0.80446  1.0000
  H   H5713     1.0  0.59983  0.71305  0.83161  1.0000
  H   H5714     1.0  0.57521  0.74836  0.87575  1.0000
  H   H5715     1.0  0.57907  0.77942  0.86626  1.0000
  H   H5716     1.0  0.57632  0.79624  0.83573  1.0000
  H   H5717     1.0  0.56881  0.78208  0.81501  1.0000
  H   H5718     1.0  0.56426  0.75130  0.82444  1.0000
  H   H5719     1.0  0.54701  0.69638  0.86911  1.0000
  H   H5720     1.0  0.51626  0.69517  0.88598  1.0000
  S   S957      1.0  0.50650  0.77714  0.85147  1.0000
  H   H5721     1.0  0.49345  0.54495  0.83806  1.0000
  H   H5722     1.0  0.53846  0.75075  0.87451  1.0000
  C   C7152     1.0  0.50450  0.84344  0.90398  1.0000
  H   H5723     1.0  0.48971  0.50043  0.85698  1.0000
  H   H5724     1.0  0.87849  0.52456  0.95761  1.0000
  C   C7153     1.0  0.60656  0.94086  0.97338  1.0000
  C   C7154     1.0  0.61438  0.49127  0.92228  1.0000
  P   P240      1.0  0.79543  0.52090  0.89829  1.0000
  C   C7155     1.0  0.78656  0.51087  0.92107  1.0000
  C   C7156     1.0  0.81859  0.51018  0.89199  1.0000
  C   C7157     1.0  0.83161  0.52032  0.88317  1.0000
  C   C7158     1.0  0.84952  0.51198  0.87865  1.0000
  S   S958      1.0  0.61524  0.89404  0.78233  1.0000
  S   S959      1.0  0.52565  0.68362  0.80841  1.0000
  C   C7159     1.0  0.76811  0.51176  0.92728  1.0000
  C   C7160     1.0  0.76129  0.50503  0.94519  1.0000
  C   C7161     1.0  0.77278  0.49731  0.95705  1.0000
  H   H5725     1.0  0.85538  0.53393  0.82752  1.0000
  C   C7162     1.0  0.79799  0.50321  0.93319  1.0000
  C   C7163     1.0  0.79476  0.54392  0.89761  1.0000
  C   C7164     1.0  0.78959  0.55740  0.88345  1.0000
  C   C7165     1.0  0.78935  0.57511  0.88309  1.0000
  C   C7166     1.0  0.79492  0.57944  0.89643  1.0000
  C   C7167     1.0  0.80041  0.56608  0.91034  1.0000
  C   C7168     1.0  0.80029  0.54839  0.91099  1.0000
  H   H5726     1.0  0.82811  0.53469  0.88008  1.0000
  H   H5727     1.0  0.85952  0.51996  0.87232  1.0000
  C   C7169     1.0  0.51697  0.73735  0.88734  1.0000
  H   H5728     1.0  0.75881  0.51805  0.91860  1.0000
  H   H5729     1.0  0.74701  0.50632  0.95007  1.0000
  C   C7170     1.0  0.62070  0.57197  0.90899  1.0000
  H   H5730     1.0  0.81216  0.50310  0.92914  1.0000
  H   H5731     1.0  0.53563  0.59994  0.81767  1.0000
  H   H5732     1.0  0.78441  0.58554  0.87278  1.0000
  H   H5733     1.0  0.79430  0.59321  0.89643  1.0000
  H   H5734     1.0  0.80412  0.56960  0.92098  1.0000
  H   H5735     1.0  0.80446  0.53823  0.92198  1.0000
  C   C7171     1.0  0.85660  0.52585  0.80327  1.0000
  H   H5736     1.0  0.57190  0.58309  0.85485  1.0000
  C   C7172     1.0  0.55604  0.59028  0.93065  1.0000
  H   H5737     1.0  0.53579  0.60328  0.91527  1.0000
  H   H5738     1.0  0.59983  0.53346  0.95234  1.0000
  C   C7173     1.0  0.90082  0.51096  0.94112  1.0000
  C   C7174     1.0  0.83894  0.51478  0.83186  1.0000
  C   C7175     1.0  0.76374  0.62232  0.78774  1.0000
  C   C7176     1.0  0.56703  0.64636  0.79664  1.0000
  C   C7177     1.0  0.89239  0.51812  0.95626  1.0000
  C   C7178     1.0  0.68920  0.66351  0.77921  1.0000
  C   C7179     1.0  0.71795  0.60978  0.96849  1.0000
  C   C7180     1.0  0.62295  0.63097  0.95521  1.0000
  H   H5739     1.0  0.61167  0.49372  0.90904  1.0000
  C   C7181     1.0  0.84789  0.48212  0.77837  1.0000
  C   C7182     1.0  0.90201  0.51731  0.96912  1.0000
  C   C7183     1.0  0.91120  0.48194  0.79175  1.0000
  H   H5740     1.0  0.65497  0.95396  0.78941  1.0000
  H   H5741     1.0  0.83435  0.51470  0.84597  1.0000
  C   C7184     1.0  0.54934  0.96184  0.97407  1.0000
  C   C7185     1.0  0.88849  0.90991  0.96249  1.0000
  C   C7186     1.0  0.50138  0.58150  0.83693  1.0000
  H   H5742     1.0  0.86575  0.53419  0.79518  1.0000
  H   H5743     1.0  0.65149  0.53673  0.95436  1.0000
  C   C7187     1.0  0.59196  0.94345  0.96551  1.0000
  H   H5744     1.0  0.74385  0.62324  0.81203  1.0000
  H   H5745     1.0  0.96682  0.49474  0.80533  1.0000
  H   H5746     1.0  0.98205  0.51753  0.94010  1.0000
  C   C7188     1.0  0.96623  0.48738  0.79580  1.0000
  C   C7189     1.0  0.63334  0.57530  0.96031  1.0000
  H   H5747     1.0  0.64617  0.56789  0.96317  1.0000
  C   C7190     1.0  0.89821  0.97390  0.96655  1.0000
  C   C7191     1.0  0.53766  0.80263  0.79693  1.0000
  C   C7192     1.0  0.67967  0.68010  0.78272  1.0000
  C   C7193     1.0  0.53735  0.95100  0.95471  1.0000
  C   C7194     1.0  0.92865  0.50216  0.95134  1.0000
  H   H5748     1.0  0.60145  0.97805  0.93127  1.0000
  C   C7195     1.0  0.57139  0.74620  0.78151  1.0000
  H   H5749     1.0  0.49639  0.91598  0.80261  1.0000
  H   H5750     1.0  0.64884  0.48421  0.94306  1.0000
  H   H5751     1.0  0.54124  0.87790  0.78248  1.0000
  S   S960      1.0  0.48923  0.70541  0.84638  1.0000
  C   C7196     1.0  0.70270  0.62337  0.96878  1.0000
  H   H5752     1.0  0.60180  0.93087  0.78611  1.0000
  H   H5753     1.0  0.66352  0.60188  0.97493  1.0000
  C   C7197     1.0  0.69218  0.90106  0.79081  1.0000
  H   H5754     1.0  0.82357  0.49612  0.83212  1.0000
  H   H5755     1.0  0.86958  0.48104  0.79086  1.0000
  C   C7198     1.0  0.49103  0.55611  0.78797  1.0000
  C   C7199     1.0  0.49276  0.54856  0.82408  1.0000
  H   H5756     1.0  0.63060  0.94951  0.97202  1.0000
  H   H5757     1.0  0.72773  0.60901  0.97616  1.0000
  H   H5758     1.0  0.67175  0.52836  0.97571  1.0000
  C   C7200     1.0  0.66344  0.51945  0.97581  1.0000
  H   H5759     1.0  0.54154  0.93292  0.77696  1.0000
  H   H5760     1.0  0.65345  0.92191  0.77654  1.0000
