data_image0
_chemical_formula_structural       FeS2FeS2FeSFeS3FeS2HSFeHFeCSCFeS2FeCSFeCFeHS2FeHFeS2FeCFeCFeCS2CHSC3H2C2H2C3H3SH2CPC2HCSCHC7H4C6H4CHCH2C6H5C4PC5HC12H4C2H11C6SCH4CHC4HCHCHCH3C3H3C3H2C2HC6PSH4C2SC2HC2SHCHC3HCHC10PC18H19CH2CSPC19H18CH4C4H2SCHCH3C2HCHC4PCHCHC2H2SC2H2SC4HCH2C5HC3HCH2CHCH4C3H2C2H4FeHC2SH2C4HC4HCHCHCH2CHC5HCHSH2FeS2CFeH2C2HFeSH3C3H3SH3CHC2H3CSHC2HC6H2C8H2SHCH3SCPC5H2C6HC3HC2H14CHSC7PC3H2CSH2FeH2CH2C2H3CSFeSFeS2FeS2FeSFeS3FeS2CHC3FeHS2C3HCH3C8H4C6H5C8H4C6H4C3HCH2C2SH2SC7H3C2HC3H3CHCHC6HCH3C2H5C4HCPCHCFeC2PC2H2C3H4C7HC3HCHC2H3PCH5CH3CHC3HSCHCH2C9H5C2HPC2SH2CH3CHC2H3C4HC2HC2HC2HCHCH2C3HC2H2C4HCHCH3C3H2C5H2CHCH3PCPHCPC2HC2HCHC2HCPC3H4CHCSH3CHC3HC2H2CPH4C2SH4CHC3FeHC2HC2HC2HC9HC2SC2HCFeS2FeS2FeSFeS3FeS2H3FeSCFeS2FeSCS2HC6H3CHC6H4C6H5C7H4CH2CHC6H5CHSFeHSHCHCHC3HCH2C2HCH5CHC3HCH3C3HC6H4C5PC8H2C4HC6H17CH2CHC7HCH9CH2PC7HC4HSCHC3HC2H9CHCSH2C6PC15HC2H12CH3C2H2C3PCHC2HC12H3CHCH2CH5CH2C2H2CH6C3HC4H2CSHCPC3HCH2C2HC4HCH2C2H3CHCH2CPCHC4HCH2CHCH6C2HSC3SC2HSCFeHFeCHCH3C2FeS2H4PCS2H2C3HC2H3C2H2FeHC5SH2C2HC5H5CHSHCHCH2FeC4H2C2H2C2HC3HC3H2C2H2CHC4HC4HSH3PCHC6HCH3FeSHCH3C2SCH3FeHSFeHCHCS2FeS2FeS2FeSFeS3FeS2FeS2FeSFeS3FeH3FeSCHSHFeHFeSCSC2HC3SH3C2HC6H2CHCH2CHFeCH2CHCHCH2C6H4C6H4C2PH2C6H3C6PC17HCH4CH4CH6C3HC6HCH2C2H6C2HPH2SHC4HCHC3FeCHCHC5HCHCH5CH2CHCH2C3H2FeCH2C8PC9H2C4H11C2H5CPC2HSC5PC13PHC3HCH11C2HCH2CH2CH4CHCHC4SH2C2HCH2C4H3C3H4C2HC4HC5HCHSHC3HSHC5HC2H4CS2CH3C2HCHC2HC3H3SCSHC3HC4H4CHPC7H4PC3H3CH2CH2C2HCFeC2HCH4C2H4CH3C5PC18HCH4CH10CH2CHCH3C2H3CHC2HC2HCHCH4CHC6H3CHCSC4SHC3HC5H6C2HC2HFeS2FeSCFeSFeSFeS2FeHSFeCFeHS2FeH2SCH3CHFeS2FeHSFeHSFeS2FeS2FeSFeS3FeS2CHC6H5C3H2C2H2SC3HC4HCH2CH2CHCH4C6HCH2C4H4C8H4C4H2C6H4SC7PC18H18CHC2HC2SCHCHC4HCH3C3H2CHCHCHC7PC18H20C2PC9H7C7HC2HC3H3C3HC2HC2HSCSPCHC2HC5HCFeCHCHCPH2C2HCSCHC2H2CH2C2FeH2SC3SCHCHSH2C3SHC3H3C3H2SHCH3CHPCH2CHC2HC3HC4HCFePC3HSHC3HCHCHCHCHCSC4SH2CH3CHC4PCHCH3C2HC2H2C2H4C3H5CHSCH4CHCSH2FeSH5FeHCSFeC2FeS3HC3SCH3CSHC2SH2SHC5H4CHC6H4C2FeHCHC4FeC7H5C2FeCSC2HC2HC2H3CHFeCHCH2CHCH3CH3CHSC3HC4H2C3SHC5SC3H2CHSCHC2HCH3C6PC14H5CH9C2H3CH2PHCH3FeH5C2PSCPCH2SH2C4FeH6CSCHSHCHC2FeH2C4H3SCH2CH3CHSHCFeSHFeS2FeHCS2C2HCHC2S2C2FeSCH2CHC2H2C3H2CHC4H2C3H2CH2CHC6H2C10HC6PCHSCHCHC2HSC7H2C2H3C2H2CH8C6H3CHC2HC2H2C3HCHPCHCHCHC2H4CSC3HCHC2PCH2CH2CFeH2C3PC3HC2H2CHC2H3C2HC2HCHCHCFeCHSCHCH2C3H3C2HC2HC4H2FeSFeHSCHS2FeSCFeS2FeS2CSH3FeS2FeS2FeSFeS3FeS4FeS3FeS2FeS2FeSFeS3C6H4C6H2C7H4C4H2C5H3C2HCHC3HC2HFeC7H3FeC7H4C4H3CHCHC6HC6PC15HC2H18C6PC14H16C7H8C3H2CHC4H3CHC6PC18H16FeH2C2HCH2CFeCHC3SC4H4C2HC3SCHC2H2FeCHC3HCPSC2H3PH2C2HCH2C2H2CH2C3HC4PH2CSFeCHCH2CHCHC4H2C2HCHCH3CH2CSH2CHC2HCHC2H3CHCHCHCH2C2H3PCH2C3HC2HCHCHC3SC9H5CHC2H4C7H2CHSCH2CHCH2CH2CH2FeC2HCHCHC2HC3HC4HCH2PC2H2CFeCHCH2C3HCH2CHC3HC2SH2CHSH2CH3FeS2C2FeCH2CH5CH2C2HC8H3C2HCHCHCSH2C2HC4H2CHSH2C2H5CH2CHC2HSHCH2C2H2C4HC2H2CH2CH2C2SHCHC2HC5HCH2CH3C10H2C3PH2CH3C2PHC3HC7HCH3CPHC3H2CHCFeH2CPCSHC2HCHCHCSCHCHSCPH2CHCHCHCH5CHCFeHFeC2HCH2
_chemical_formula_sum              "Fe128 S256 H1536 C1920 P64"
_cell_length_a       50.2233
_cell_length_b       50.643
_cell_length_c       50.2187
_cell_angle_alpha    90.3599
_cell_angle_beta     87.6951
_cell_angle_gamma    89.047

_space_group_name_H-M_alt    "P 1"
_space_group_IT_number       1

loop_
  _space_group_symop_operation_xyz
  'x, y, z'

loop_
  _atom_site_type_symbol
  _atom_site_label
  _atom_site_symmetry_multiplicity
  _atom_site_fract_x
  _atom_site_fract_y
  _atom_site_fract_z
  _atom_site_occupancy
  Fe  Fe1       1.0  0.19620  0.18037  0.20198  1.0000
  S   S1        1.0  0.18961  0.22330  0.21396  1.0000
  S   S2        1.0  0.15985  0.15600  0.19129  1.0000
  Fe  Fe2       1.0  0.25540  0.18238  0.21308  1.0000
  S   S3        1.0  0.25322  0.22456  0.22592  1.0000
  S   S4        1.0  0.29605  0.16240  0.20974  1.0000
  Fe  Fe3       1.0  0.21554  0.21427  0.24837  1.0000
  S   S5        1.0  0.20876  0.23794  0.28665  1.0000
  Fe  Fe4       1.0  0.22794  0.23087  0.19106  1.0000
  S   S6        1.0  0.24056  0.26636  0.16699  1.0000
  S   S7        1.0  0.21954  0.17084  0.23860  1.0000
  S   S8        1.0  0.23255  0.18901  0.17599  1.0000
  Fe  Fe5       1.0  0.09877  0.05975  0.07665  1.0000
  S   S9        1.0  0.05835  0.07892  0.07224  1.0000
  S   S10       1.0  0.13592  0.07995  0.09232  1.0000
  H   H1        1.0  0.06528  0.17058  0.00991  1.0000
  S   S11       1.0  0.02226  0.25235  0.48633  1.0000
  Fe  Fe6       1.0  0.06115  0.06417  0.02991  1.0000
  H   H2        1.0  0.48405  0.30089  0.27459  1.0000
  Fe  Fe7       1.0  0.04205  0.03880  0.08142  1.0000
  C   C1        1.0  0.49090  0.06318  0.49609  1.0000
  S   S12       1.0  0.10251  0.04793  0.03312  1.0000
  C   C2        1.0  0.22295  0.32889  0.27723  1.0000
  Fe  Fe8       1.0  0.20903  0.21916  0.43706  1.0000
  S   S13       1.0  0.20534  0.20654  0.48001  1.0000
  S   S14       1.0  0.20702  0.18983  0.40304  1.0000
  Fe  Fe9       1.0  0.21786  0.27583  0.45184  1.0000
  C   C3        1.0  0.04341  0.12978  0.11708  1.0000
  S   S15       1.0  0.22208  0.31640  0.43427  1.0000
  Fe  Fe10      1.0  0.24142  0.23174  0.48543  1.0000
  C   C4        1.0  0.08069  0.16091  0.07479  1.0000
  Fe  Fe11      1.0  0.18032  0.24364  0.48656  1.0000
  H   H3        1.0  0.37121  0.10908  0.20886  1.0000
  S   S16       1.0  0.24643  0.24211  0.44205  1.0000
  S   S17       1.0  0.18096  0.25375  0.44319  1.0000
  Fe  Fe12      1.0  0.47680  0.16757  0.48604  1.0000
  H   H4        1.0  0.25681  0.31173  0.33177  1.0000
  Fe  Fe13      1.0  0.42704  0.20934  0.27981  1.0000
  S   S18       1.0  0.45652  0.20059  0.24584  1.0000
  S   S19       1.0  0.38204  0.21105  0.28412  1.0000
  Fe  Fe14      1.0  0.47021  0.22506  0.31670  1.0000
  C   C5        1.0  0.32062  0.23580  0.49087  1.0000
  Fe  Fe15      1.0  0.47653  0.23833  0.25786  1.0000
  C   C6        1.0  0.07395  0.16154  0.02709  1.0000
  Fe  Fe16      1.0  0.48093  0.18044  0.27700  1.0000
  C   C7        1.0  0.29277  0.10785  0.25050  1.0000
  S   S20       1.0  0.44510  0.24834  0.28926  1.0000
  S   S21       1.0  0.45003  0.18675  0.30998  1.0000
  C   C8        1.0  0.40919  0.30451  0.25761  1.0000
  H   H5        1.0  0.43948  0.07160  0.45556  1.0000
  S   S22       1.0  0.00618  0.03262  0.10930  1.0000
  C   C9        1.0  0.40524  0.12956  0.19310  1.0000
  C   C10       1.0  0.46828  0.07601  0.29865  1.0000
  C   C11       1.0  0.47413  0.10272  0.29370  1.0000
  H   H6        1.0  0.44927  0.07091  0.30779  1.0000
  H   H7        1.0  0.45980  0.11808  0.29948  1.0000
  C   C12       1.0  0.48558  0.17788  0.42040  1.0000
  C   C13       1.0  0.49824  0.10938  0.28074  1.0000
  H   H8        1.0  0.01647  0.17929  0.11959  1.0000
  H   H9        1.0  0.18021  0.30916  0.38394  1.0000
  C   C14       1.0  0.46777  0.22055  0.40761  1.0000
  C   C15       1.0  0.47110  0.20099  0.42680  1.0000
  C   C16       1.0  0.28071  0.30381  0.47687  1.0000
  H   H10       1.0  0.39830  0.33759  0.38692  1.0000
  H   H11       1.0  0.45673  0.23849  0.41282  1.0000
  H   H12       1.0  0.49883  0.18972  0.35440  1.0000
  S   S23       1.0  0.47747  0.02239  0.29650  1.0000
  H   H13       1.0  0.24740  0.29899  0.12069  1.0000
  H   H14       1.0  0.06150  0.32883  0.48834  1.0000
  C   C17       1.0  0.31037  0.30604  0.39573  1.0000
  P   P1        1.0  0.07447  0.17420  0.10802  1.0000
  C   C18       1.0  0.38279  0.01554  0.27063  1.0000
  C   C19       1.0  0.33232  0.12070  0.27306  1.0000
  H   H15       1.0  0.42002  0.01204  0.31719  1.0000
  C   C20       1.0  0.46226  0.06216  0.39213  1.0000
  S   S24       1.0  0.04139  0.02587  0.03876  1.0000
  C   C21       1.0  0.00614  0.21978  0.11241  1.0000
  H   H16       1.0  0.34557  0.06879  0.23072  1.0000
  C   C22       1.0  0.42835  0.02305  0.35740  1.0000
  C   C23       1.0  0.32023  0.17588  0.23012  1.0000
  C   C24       1.0  0.34739  0.17009  0.22491  1.0000
  C   C25       1.0  0.36685  0.18034  0.24141  1.0000
  C   C26       1.0  0.35907  0.19668  0.26299  1.0000
  C   C27       1.0  0.33195  0.20207  0.26831  1.0000
  C   C28       1.0  0.31260  0.19181  0.25198  1.0000
  H   H17       1.0  0.35326  0.15787  0.20791  1.0000
  H   H18       1.0  0.38772  0.17578  0.23734  1.0000
  H   H19       1.0  0.32593  0.21453  0.28505  1.0000
  H   H20       1.0  0.29175  0.19593  0.25654  1.0000
  C   C29       1.0  0.20723  0.22364  0.31859  1.0000
  C   C30       1.0  0.21210  0.19669  0.32244  1.0000
  C   C31       1.0  0.21170  0.18641  0.34844  1.0000
  C   C32       1.0  0.20692  0.20307  0.37064  1.0000
  C   C33       1.0  0.20200  0.22999  0.36674  1.0000
  C   C34       1.0  0.20192  0.24016  0.34079  1.0000
  H   H21       1.0  0.21621  0.18384  0.30543  1.0000
  H   H22       1.0  0.21534  0.16554  0.35138  1.0000
  H   H23       1.0  0.19828  0.24296  0.38371  1.0000
  H   H24       1.0  0.19835  0.26103  0.33785  1.0000
  C   C35       1.0  0.23373  0.29756  0.18180  1.0000
  H   H25       1.0  0.08101  0.22947  0.09354  1.0000
  C   C36       1.0  0.20993  0.30269  0.19644  1.0000
  H   H26       1.0  0.26981  0.31427  0.16581  1.0000
  H   H27       1.0  0.19587  0.28702  0.19992  1.0000
  C   C37       1.0  0.14204  0.10106  0.12005  1.0000
  C   C38       1.0  0.16715  0.11291  0.12156  1.0000
  C   C39       1.0  0.17307  0.12964  0.14313  1.0000
  C   C40       1.0  0.15393  0.13473  0.16363  1.0000
  C   C41       1.0  0.12895  0.12268  0.16223  1.0000
  C   C42       1.0  0.12290  0.10618  0.14054  1.0000
  H   H28       1.0  0.18218  0.10908  0.10592  1.0000
  H   H29       1.0  0.19244  0.13856  0.14389  1.0000
  H   H30       1.0  0.11424  0.12602  0.17823  1.0000
  H   H31       1.0  0.10359  0.09712  0.13987  1.0000
  H   H32       1.0  0.28130  0.27156  0.09621  1.0000
  C   C43       1.0  0.07586  0.24582  0.47534  1.0000
  C   C44       1.0  0.06705  0.28071  0.37269  1.0000
  C   C45       1.0  0.07516  0.25412  0.36957  1.0000
  C   C46       1.0  0.05749  0.23598  0.35905  1.0000
  P   P2        1.0  0.10861  0.24347  0.37668  1.0000
  C   C47       1.0  0.12410  0.23320  0.34515  1.0000
  C   C48       1.0  0.12588  0.27016  0.39201  1.0000
  C   C49       1.0  0.14847  0.28150  0.37972  1.0000
  C   C50       1.0  0.16211  0.30124  0.39292  1.0000
  C   C51       1.0  0.02357  0.27037  0.35661  1.0000
  H   H33       1.0  0.41250  0.13687  0.36491  1.0000
  C   C52       1.0  0.11727  0.27868  0.41761  1.0000
  C   C53       1.0  0.13430  0.20738  0.34129  1.0000
  C   C54       1.0  0.14476  0.19934  0.31626  1.0000
  C   C55       1.0  0.14517  0.21693  0.29496  1.0000
  C   C56       1.0  0.13512  0.24263  0.29863  1.0000
  C   C57       1.0  0.12439  0.25069  0.32356  1.0000
  C   C58       1.0  0.10934  0.21738  0.40101  1.0000
  C   C59       1.0  0.13407  0.20832  0.40972  1.0000
  C   C60       1.0  0.13532  0.18943  0.42980  1.0000
  C   C61       1.0  0.11188  0.17962  0.44157  1.0000
  C   C62       1.0  0.08715  0.18859  0.43313  1.0000
  C   C63       1.0  0.08583  0.20746  0.41296  1.0000
  H   H34       1.0  0.11789  0.23836  0.46651  1.0000
  H   H35       1.0  0.44192  0.14915  0.18242  1.0000
  H   H36       1.0  0.06367  0.21557  0.35572  1.0000
  H   H37       1.0  0.15607  0.27466  0.36041  1.0000
  C   C64       1.0  0.12755  0.33911  0.49544  1.0000
  C   C65       1.0  0.39055  0.11667  0.21326  1.0000
  H   H38       1.0  0.39859  0.16738  0.32922  1.0000
  H   H39       1.0  0.10039  0.26955  0.42771  1.0000
  H   H40       1.0  0.13425  0.19330  0.35738  1.0000
  H   H41       1.0  0.15308  0.17959  0.31347  1.0000
  H   H42       1.0  0.15398  0.21086  0.27575  1.0000
  H   H43       1.0  0.11641  0.27059  0.32602  1.0000
  H   H44       1.0  0.15246  0.21605  0.40113  1.0000
  H   H45       1.0  0.15457  0.18270  0.43643  1.0000
  H   H46       1.0  0.11288  0.16536  0.45752  1.0000
  H   H47       1.0  0.06898  0.18145  0.44276  1.0000
  H   H48       1.0  0.06646  0.21477  0.40756  1.0000
  C   C66       1.0  0.15318  0.18856  0.12155  1.0000
  C   C67       1.0  0.15144  0.20531  0.14375  1.0000
  C   C68       1.0  0.12650  0.21267  0.15497  1.0000
  C   C69       1.0  0.10329  0.20331  0.14396  1.0000
  C   C70       1.0  0.10483  0.18631  0.12168  1.0000
  C   C71       1.0  0.13004  0.17893  0.11063  1.0000
  S   S25       1.0  0.39971  0.22711  0.50446  1.0000
  C   C72       1.0  0.20260  0.33692  0.48207  1.0000
  H   H49       1.0  0.35511  0.08211  0.46909  1.0000
  H   H50       1.0  0.16944  0.21197  0.15273  1.0000
  H   H51       1.0  0.12529  0.22515  0.17259  1.0000
  H   H52       1.0  0.08414  0.20901  0.15308  1.0000
  C   C73       1.0  0.04227  0.24799  0.09786  1.0000
  H   H53       1.0  0.43269  0.06913  0.24733  1.0000
  C   C74       1.0  0.23526  0.31297  0.29590  1.0000
  C   C75       1.0  0.44054  0.30673  0.34174  1.0000
  C   C76       1.0  0.42858  0.31373  0.36642  1.0000
  C   C77       1.0  0.43076  0.31719  0.31832  1.0000
  H   H54       1.0  0.23496  0.29167  0.29352  1.0000
  C   C78       1.0  0.48692  0.05576  0.29198  1.0000
  H   H55       1.0  0.19770  0.31707  0.48757  1.0000
  C   C79       1.0  0.43372  0.30629  0.21525  1.0000
  H   H56       1.0  0.21354  0.31995  0.26041  1.0000
  C   C80       1.0  0.48918  0.31361  0.25802  1.0000
  H   H57       1.0  0.45757  0.29325  0.34073  1.0000
  H   H58       1.0  0.03104  0.09074  0.17089  1.0000
  H   H59       1.0  0.44089  0.31193  0.29957  1.0000
  C   C81       1.0  0.31810  0.32554  0.30079  1.0000
  C   C82       1.0  0.50082  0.26924  0.44691  1.0000
  C   C83       1.0  0.32560  0.31753  0.16457  1.0000
  H   H60       1.0  0.47511  0.10051  0.48280  1.0000
  H   H61       1.0  0.39960  0.29290  0.27319  1.0000
  H   H62       1.0  0.42129  0.27026  0.23410  1.0000
  C   C84       1.0  0.42106  0.29164  0.23537  1.0000
  C   C85       1.0  0.40569  0.10180  0.34188  1.0000
  C   C86       1.0  0.39237  0.06177  0.26238  1.0000
  H   H63       1.0  0.08040  0.29537  0.38000  1.0000
  H   H64       1.0  0.44109  0.09542  0.41140  1.0000
  C   C87       1.0  0.30342  0.30491  0.08107  1.0000
  C   C88       1.0  0.43043  0.13936  0.19807  1.0000
  H   H65       1.0  0.43454  0.12175  0.26274  1.0000
  C   C89       1.0  0.27977  0.29719  0.50383  1.0000
  C   C90       1.0  0.50084  0.31952  0.21133  1.0000
  C   C91       1.0  0.09965  0.12605  0.04605  1.0000
  C   C92       1.0  0.49573  0.17387  0.39425  1.0000
  C   C93       1.0  0.42604  0.12393  0.24350  1.0000
  C   C94       1.0  0.39159  0.13627  0.30134  1.0000
  P   P3        1.0  0.38256  0.09624  0.26458  1.0000
  S   S26       1.0  0.08225  0.02000  0.08864  1.0000
  H   H66       1.0  0.34513  0.32407  0.37783  1.0000
  H   H67       1.0  0.38489  0.03295  0.40427  1.0000
  H   H68       1.0  0.41164  0.08851  0.35745  1.0000
  H   H69       1.0  0.34144  0.13428  0.28643  1.0000
  C   C95       1.0  0.30736  0.08772  0.23721  1.0000
  C   C96       1.0  0.37180  0.07350  0.45753  1.0000
  S   S27       1.0  0.50335  0.21757  0.28624  1.0000
  C   C97       1.0  0.34525  0.32927  0.30466  1.0000
  C   C98       1.0  0.39796  0.09171  0.31742  1.0000
  H   H70       1.0  0.46199  0.20374  0.44637  1.0000
  C   C99       1.0  0.08876  0.13804  0.02393  1.0000
  C   C100      1.0  0.47641  0.27424  0.46059  1.0000
  S   S28       1.0  0.49097  0.15389  0.44483  1.0000
  H   H71       1.0  0.36900  0.22433  0.20958  1.0000
  C   C101      1.0  0.37477  0.04215  0.27136  1.0000
  H   H72       1.0  0.11103  0.10773  0.04373  1.0000
  C   C102      1.0  0.40067  0.11413  0.23880  1.0000
  C   C103      1.0  0.40617  0.12906  0.34612  1.0000
  C   C104      1.0  0.26793  0.32487  0.38360  1.0000
  H   H73       1.0  0.29410  0.14049  0.27795  1.0000
  C   C105      1.0  0.01527  0.24459  0.10461  1.0000
  H   H74       1.0  0.32163  0.29149  0.40659  1.0000
  C   C106      1.0  0.34718  0.10042  0.25987  1.0000
  C   C107      1.0  0.28258  0.30629  0.39771  1.0000
  C   C108      1.0  0.24760  0.32450  0.31753  1.0000
  C   C109      1.0  0.15325  0.30977  0.41836  1.0000
  C   C110      1.0  0.32718  0.10626  0.34129  1.0000
  C   C111      1.0  0.30230  0.10037  0.33148  1.0000
  C   C112      1.0  0.28132  0.11875  0.33427  1.0000
  C   C113      1.0  0.28518  0.14301  0.34684  1.0000
  C   C114      1.0  0.31021  0.14924  0.35657  1.0000
  C   C115      1.0  0.33112  0.13053  0.35386  1.0000
  P   P4        1.0  0.31464  0.18018  0.37399  1.0000
  C   C116      1.0  0.30102  0.17634  0.40767  1.0000
  C   C117      1.0  0.34946  0.18944  0.37244  1.0000
  C   C118      1.0  0.36797  0.17714  0.38886  1.0000
  C   C119      1.0  0.39436  0.18566  0.38888  1.0000
  C   C120      1.0  0.40276  0.20575  0.37174  1.0000
  C   C121      1.0  0.38485  0.21733  0.35458  1.0000
  C   C122      1.0  0.35834  0.20927  0.35488  1.0000
  C   C123      1.0  0.31578  0.18251  0.43002  1.0000
  C   C124      1.0  0.30508  0.17826  0.45570  1.0000
  C   C125      1.0  0.27897  0.16961  0.45949  1.0000
  C   C126      1.0  0.26367  0.16469  0.43748  1.0000
  C   C127      1.0  0.27467  0.16785  0.41170  1.0000
  C   C128      1.0  0.29534  0.20560  0.35822  1.0000
  C   C129      1.0  0.29204  0.20488  0.33060  1.0000
  C   C130      1.0  0.27695  0.22448  0.31846  1.0000
  C   C131      1.0  0.26549  0.24513  0.33372  1.0000
  C   C132      1.0  0.26861  0.24598  0.36121  1.0000
  C   C133      1.0  0.28362  0.22636  0.37346  1.0000
  H   H75       1.0  0.34342  0.09199  0.33915  1.0000
  H   H76       1.0  0.26857  0.15691  0.34883  1.0000
  H   H77       1.0  0.35045  0.13454  0.36142  1.0000
  H   H78       1.0  0.36195  0.16126  0.40199  1.0000
  H   H79       1.0  0.40839  0.17674  0.40216  1.0000
  H   H80       1.0  0.42323  0.21215  0.37146  1.0000
  H   H81       1.0  0.39165  0.23238  0.34074  1.0000
  H   H82       1.0  0.34505  0.21851  0.34116  1.0000
  H   H83       1.0  0.33531  0.19098  0.42807  1.0000
  H   H84       1.0  0.31693  0.18210  0.47277  1.0000
  H   H85       1.0  0.27044  0.16732  0.47952  1.0000
  H   H86       1.0  0.24310  0.15879  0.44033  1.0000
  H   H87       1.0  0.26220  0.16429  0.39504  1.0000
  H   H88       1.0  0.30091  0.18907  0.31843  1.0000
  H   H89       1.0  0.27356  0.22335  0.29728  1.0000
  H   H90       1.0  0.25321  0.25983  0.32433  1.0000
  H   H91       1.0  0.25856  0.26128  0.37314  1.0000
  H   H92       1.0  0.28564  0.22717  0.39483  1.0000
  H   H93       1.0  0.12476  0.30390  0.45093  1.0000
  C   C134      1.0  0.44092  0.13630  0.22322  1.0000
  H   H94       1.0  0.31813  0.29287  0.07002  1.0000
  H   H95       1.0  0.48589  0.03494  0.36692  1.0000
  C   C135      1.0  0.34597  0.30699  0.17980  1.0000
  S   S29       1.0  0.43638  0.15597  0.50202  1.0000
  P   P5        1.0  0.34667  0.27232  0.18766  1.0000
  C   C136      1.0  0.33079  0.27087  0.22041  1.0000
  C   C137      1.0  0.32924  0.25233  0.16445  1.0000
  C   C138      1.0  0.31387  0.23104  0.17357  1.0000
  C   C139      1.0  0.30210  0.21430  0.15541  1.0000
  C   C140      1.0  0.30583  0.21840  0.12806  1.0000
  C   C141      1.0  0.32171  0.23909  0.11880  1.0000
  C   C142      1.0  0.33344  0.25599  0.13692  1.0000
  C   C143      1.0  0.34581  0.26737  0.24313  1.0000
  C   C144      1.0  0.33316  0.26708  0.26841  1.0000
  C   C145      1.0  0.30551  0.27046  0.27117  1.0000
  C   C146      1.0  0.29054  0.27486  0.24874  1.0000
  C   C147      1.0  0.30312  0.27515  0.22342  1.0000
  C   C148      1.0  0.37989  0.25834  0.18605  1.0000
  C   C149      1.0  0.40020  0.26988  0.17029  1.0000
  C   C150      1.0  0.42548  0.25779  0.16793  1.0000
  C   C151      1.0  0.43059  0.23425  0.18133  1.0000
  C   C152      1.0  0.41015  0.22224  0.19627  1.0000
  C   C153      1.0  0.38483  0.23410  0.19840  1.0000
  C   C154      1.0  0.45631  0.08909  0.39689  1.0000
  H   H96       1.0  0.34708  0.05289  0.43048  1.0000
  H   H97       1.0  0.30860  0.24699  0.47745  1.0000
  H   H98       1.0  0.31223  0.30462  0.15457  1.0000
  H   H99       1.0  0.37778  0.31649  0.20582  1.0000
  H   H100      1.0  0.31124  0.22691  0.19465  1.0000
  H   H101      1.0  0.29032  0.19790  0.16265  1.0000
  H   H102      1.0  0.29660  0.20531  0.11413  1.0000
  H   H103      1.0  0.32504  0.24188  0.09759  1.0000
  H   H104      1.0  0.34606  0.27167  0.12953  1.0000
  H   H105      1.0  0.36721  0.26467  0.24149  1.0000
  H   H106      1.0  0.34483  0.26364  0.28579  1.0000
  H   H107      1.0  0.29573  0.27002  0.29070  1.0000
  H   H108      1.0  0.26911  0.27773  0.25082  1.0000
  H   H109      1.0  0.29118  0.27843  0.20616  1.0000
  H   H110      1.0  0.39657  0.28809  0.15976  1.0000
  H   H111      1.0  0.44131  0.26689  0.15611  1.0000
  H   H112      1.0  0.45039  0.22532  0.18013  1.0000
  H   H113      1.0  0.41387  0.20369  0.20617  1.0000
  C   C155      1.0  0.25163  0.31814  0.17722  1.0000
  H   H114      1.0  0.17256  0.18228  0.11335  1.0000
  H   H115      1.0  0.29930  0.08165  0.32155  1.0000
  H   H116      1.0  0.43630  0.30544  0.38447  1.0000
  H   H117      1.0  0.26200  0.11425  0.32664  1.0000
  C   C156      1.0  0.27660  0.32998  0.46929  1.0000
  C   C157      1.0  0.03170  0.24403  0.35286  1.0000
  C   C158      1.0  0.49395  0.30261  0.23262  1.0000
  C   C159      1.0  0.10307  0.24549  0.48117  1.0000
  H   H118      1.0  0.44648  0.02238  0.24633  1.0000
  H   H119      1.0  0.13601  0.25633  0.28214  1.0000
  S   S30       1.0  0.47332  0.24136  0.35799  1.0000
  C   C160      1.0  0.05114  0.20163  0.10686  1.0000
  H   H120      1.0  0.06986  0.23890  0.45619  1.0000
  C   C161      1.0  0.26505  0.33587  0.10913  1.0000
  H   H121      1.0  0.27221  0.29208  0.41025  1.0000
  H   H122      1.0  0.13219  0.16554  0.09385  1.0000
  H   H123      1.0  0.07922  0.15969  0.16467  1.0000
  C   C162      1.0  0.26357  0.30836  0.10955  1.0000
  C   C163      1.0  0.04131  0.28873  0.36629  1.0000
  H   H124      1.0  0.38674  0.14997  0.28571  1.0000
  C   C164      1.0  0.39104  0.10892  0.29684  1.0000
  H   H125      1.0  0.03886  0.26832  0.43268  1.0000
  C   C165      1.0  0.38884  0.04575  0.42094  1.0000
  C   C166      1.0  0.41508  0.05085  0.42788  1.0000
  C   C167      1.0  0.36265  0.32421  0.19311  1.0000
  C   C168      1.0  0.28277  0.29287  0.09570  1.0000
  P   P6        1.0  0.44313  0.03649  0.40884  1.0000
  C   C169      1.0  0.47788  0.21658  0.38156  1.0000
  H   H126      1.0  0.28555  0.33222  0.27457  1.0000
  C   C170      1.0  0.07000  0.17306  0.05240  1.0000
  H   H127      1.0  0.03500  0.30916  0.36919  1.0000
  C   C171      1.0  0.04782  0.30962  0.43636  1.0000
  C   C172      1.0  0.06606  0.14602  0.15541  1.0000
  H   H128      1.0  0.49897  0.11667  0.35096  1.0000
  H   H129      1.0  0.44435  0.29635  0.19885  1.0000
  S   S31       1.0  0.47262  0.21005  0.49825  1.0000
  C   C173      1.0  0.03889  0.10699  0.15920  1.0000
  C   C174      1.0  0.13091  0.29835  0.43073  1.0000
  H   H130      1.0  0.05827  0.19110  0.05433  1.0000
  H   H131      1.0  0.01803  0.22984  0.34510  1.0000
  S   S32       1.0  0.49045  0.26813  0.22640  1.0000
  C   C175      1.0  0.46960  0.10859  0.38222  1.0000
  C   C176      1.0  0.48899  0.10155  0.36265  1.0000
  C   C177      1.0  0.06043  0.14814  0.12835  1.0000
  C   C178      1.0  0.09526  0.13719  0.07139  1.0000
  H   H132      1.0  0.06036  0.12354  0.19143  1.0000
  C   C179      1.0  0.39862  0.14623  0.32601  1.0000
  H   H133      1.0  0.06833  0.30562  0.44091  1.0000
  H   H134      1.0  0.29778  0.07550  0.22274  1.0000
  C   C180      1.0  0.41067  0.33208  0.26016  1.0000
  C   C181      1.0  0.20364  0.32855  0.20528  1.0000
  C   C182      1.0  0.03124  0.28839  0.43151  1.0000
  C   C183      1.0  0.05536  0.12547  0.17073  1.0000
  C   C184      1.0  0.06015  0.22659  0.09893  1.0000
  H   H135      1.0  0.10307  0.12714  0.08844  1.0000
  C   C185      1.0  0.36730  0.05705  0.43575  1.0000
  C   C186      1.0  0.39784  0.07871  0.46453  1.0000
  C   C187      1.0  0.48175  0.05535  0.37226  1.0000
  H   H136      1.0  0.35799  0.25046  0.47465  1.0000
  C   C188      1.0  0.33444  0.08402  0.24180  1.0000
  H   H137      1.0  0.43191  0.04334  0.35197  1.0000
  H   H138      1.0  0.30627  0.31448  0.31517  1.0000
  C   C189      1.0  0.41829  0.05443  0.25338  1.0000
  H   H139      1.0  0.27205  0.11143  0.24614  1.0000
  C   C190      1.0  0.30476  0.33248  0.08023  1.0000
  H   H140      1.0  0.16435  0.32439  0.42896  1.0000
  H   H141      1.0  0.39803  0.07053  0.31455  1.0000
  H   H142      1.0  0.35409  0.32064  0.32189  1.0000
  H   H143      1.0  0.28378  0.28851  0.46187  1.0000
  C   C191      1.0  0.49806  0.27111  0.50269  1.0000
  C   C192      1.0  0.30523  0.12427  0.26844  1.0000
  C   C193      1.0  0.41940  0.06743  0.44981  1.0000
  H   H144      1.0  0.39707  0.13187  0.17359  1.0000
  H   H145      1.0  0.40133  0.09138  0.48149  1.0000
  C   C194      1.0  0.42624  0.02785  0.25276  1.0000
  C   C195      1.0  0.49138  0.19299  0.37467  1.0000
  H   H146      1.0  0.02024  0.09466  0.12343  1.0000
  H   H147      1.0  0.04937  0.26722  0.09180  1.0000
  H   H148      1.0  0.35498  0.04739  0.27922  1.0000
  H   H149      1.0  0.46466  0.12923  0.38594  1.0000
  Fe  Fe17      1.0  0.08256  0.01010  0.04480  1.0000
  H   H150      1.0  0.45841  0.27678  0.44963  1.0000
  C   C196      1.0  0.34864  0.23748  0.48913  1.0000
  C   C197      1.0  0.45785  0.01411  0.45748  1.0000
  S   S33       1.0  0.21621  0.26761  0.49555  1.0000
  H   H151      1.0  0.46070  0.14336  0.22707  1.0000
  H   H152      1.0  0.45596  0.27835  0.49902  1.0000
  C   C198      1.0  0.05625  0.25452  0.49428  1.0000
  C   C199      1.0  0.47503  0.27526  0.48844  1.0000
  C   C200      1.0  0.40708  0.33166  0.36772  1.0000
  C   C201      1.0  0.49514  0.07493  0.35782  1.0000
  H   H153      1.0  0.03856  0.13111  0.09630  1.0000
  C   C202      1.0  0.03280  0.10922  0.13242  1.0000
  C   C203      1.0  0.02397  0.19833  0.11352  1.0000
  C   C204      1.0  0.40850  0.33438  0.31935  1.0000
  C   C205      1.0  0.49275  0.08954  0.48835  1.0000
  H   H154      1.0  0.47177  0.05364  0.49671  1.0000
  C   C206      1.0  0.30642  0.33534  0.27795  1.0000
  H   H155      1.0  0.50471  0.31123  0.19163  1.0000
  C   C207      1.0  0.40852  0.00840  0.26129  1.0000
  H   H156      1.0  0.50127  0.26835  0.42538  1.0000
  C   C208      1.0  0.32356  0.32444  0.37959  1.0000
  H   H157      1.0  0.18470  0.33267  0.21564  1.0000
  H   H158      1.0  0.24648  0.32430  0.38503  1.0000
  C   C209      1.0  0.43413  0.33376  0.21707  1.0000
  H   H159      1.0  0.43989  0.02263  0.46673  1.0000
  C   C210      1.0  0.10200  0.32936  0.50047  1.0000
  C   C211      1.0  0.46427  0.01721  0.43014  1.0000
  C   C212      1.0  0.43210  0.01416  0.38347  1.0000
  C   C213      1.0  0.08115  0.33682  0.48433  1.0000
  C   C214      1.0  0.03772  0.33562  0.43577  1.0000
  H   H160      1.0  0.27620  0.33485  0.44839  1.0000
  C   C215      1.0  0.01116  0.34004  0.42903  1.0000
  H   H161      1.0  0.50513  0.09922  0.43288  1.0000
  S   S34       1.0  0.50526  0.14219  0.27044  1.0000
  H   H162      1.0  0.10208  0.34040  0.40733  1.0000
  H   H163      1.0  0.42991  0.01856  0.61559  1.0000
  Fe  Fe18      1.0  0.45742  0.14847  0.54008  1.0000
  S   S35       1.0  0.45051  0.18986  0.55605  1.0000
  S   S36       1.0  0.45615  0.11359  0.56792  1.0000
  C   C216      1.0  0.35238  0.20586  0.52468  1.0000
  Fe  Fe19      1.0  0.49067  0.19820  0.53651  1.0000
  H   H164      1.0  0.12782  0.09123  0.80120  1.0000
  H   H165      1.0  0.03454  0.04928  0.74318  1.0000
  C   C217      1.0  0.07492  0.10251  0.74739  1.0000
  C   C218      1.0  0.05292  0.06911  0.70947  1.0000
  H   H166      1.0  0.06053  0.15521  0.73229  1.0000
  Fe  Fe20      1.0  0.02524  0.02990  0.85633  1.0000
  S   S37       1.0  0.03555  0.03452  0.81254  1.0000
  H   H167      1.0  0.49892  0.16279  0.59918  1.0000
  H   H168      1.0  0.04429  0.05628  0.69488  1.0000
  H   H169      1.0  0.46829  0.01768  0.57160  1.0000
  C   C219      1.0  0.13578  0.15364  0.76566  1.0000
  C   C220      1.0  0.08398  0.08264  0.85352  1.0000
  C   C221      1.0  0.09131  0.26238  0.52528  1.0000
  H   H170      1.0  0.49691  0.27098  0.52432  1.0000
  H   H171      1.0  0.04716  0.12076  0.81302  1.0000
  H   H172      1.0  0.03873  0.22538  0.77650  1.0000
  S   S38       1.0  0.14470  0.25172  0.51528  1.0000
  H   H173      1.0  0.05869  0.20681  0.81659  1.0000
  H   H174      1.0  0.17537  0.30058  0.56025  1.0000
  H   H175      1.0  0.09341  0.12199  0.71327  1.0000
  C   C222      1.0  0.06413  0.26328  0.51918  1.0000
  H   H176      1.0  0.03395  0.30779  0.58190  1.0000
  C   C223      1.0  0.10751  0.08060  0.83778  1.0000
  C   C224      1.0  0.16578  0.11254  0.74117  1.0000
  H   H177      1.0  0.13054  0.08936  0.74608  1.0000
  H   H178      1.0  0.12421  0.06916  0.84480  1.0000
  H   H179      1.0  0.04400  0.09867  0.85665  1.0000
  C   C225      1.0  0.06232  0.09723  0.84454  1.0000
  S   S39       1.0  0.05627  0.02218  0.88666  1.0000
  H   H180      1.0  0.31501  0.19215  0.54178  1.0000
  C   C226      1.0  0.27507  0.31679  0.52339  1.0000
  C   C227      1.0  0.42612  0.04974  0.53088  1.0000
  H   H181      1.0  0.41107  0.04575  0.51664  1.0000
  C   C228      1.0  0.43893  0.02862  0.54343  1.0000
  C   C229      1.0  0.45829  0.03385  0.56191  1.0000
  C   C230      1.0  0.46384  0.06008  0.56876  1.0000
  C   C231      1.0  0.45088  0.08121  0.55645  1.0000
  C   C232      1.0  0.43236  0.07601  0.53709  1.0000
  C   C233      1.0  0.32434  0.20476  0.52693  1.0000
  H   H182      1.0  0.07376  0.09271  0.68010  1.0000
  H   H183      1.0  0.47797  0.06406  0.58391  1.0000
  C   C234      1.0  0.36469  0.22248  0.50595  1.0000
  C   C235      1.0  0.06951  0.08962  0.70117  1.0000
  C   C236      1.0  0.05023  0.06953  0.96477  1.0000
  C   C237      1.0  0.03880  0.07965  0.94187  1.0000
  C   C238      1.0  0.04020  0.06513  0.91787  1.0000
  C   C239      1.0  0.05373  0.04074  0.91652  1.0000
  C   C240      1.0  0.06565  0.03090  0.93927  1.0000
  C   C241      1.0  0.06356  0.04505  0.96344  1.0000
  H   H184      1.0  0.48682  0.11799  0.61454  1.0000
  H   H185      1.0  0.03121  0.07301  0.90039  1.0000
  S   S40       1.0  0.49832  0.15658  0.52286  1.0000
  H   H186      1.0  0.07252  0.03710  0.98098  1.0000
  C   C242      1.0  0.16238  0.15757  0.75753  1.0000
  H   H187      1.0  0.19795  0.14019  0.73892  1.0000
  H   H188      1.0  0.12457  0.16980  0.77513  1.0000
  H   H189      1.0  0.09717  0.26838  0.54488  1.0000
  S   S41       1.0  0.04781  0.08777  0.99478  1.0000
  C   C243      1.0  0.27358  0.33618  0.57950  1.0000
  P   P7        1.0  0.27347  0.30750  0.55796  1.0000
  C   C244      1.0  0.30179  0.28703  0.56603  1.0000
  C   C245      1.0  0.24262  0.28982  0.56148  1.0000
  C   C246      1.0  0.24267  0.26211  0.56256  1.0000
  C   C247      1.0  0.21864  0.24854  0.56371  1.0000
  C   C248      1.0  0.19441  0.26248  0.56342  1.0000
  H   H190      1.0  0.24098  0.32369  0.60587  1.0000
  H   H191      1.0  0.02885  0.09875  0.94279  1.0000
  C   C249      1.0  0.32476  0.28574  0.54909  1.0000
  C   C250      1.0  0.34629  0.26937  0.55532  1.0000
  C   C251      1.0  0.34519  0.25436  0.57855  1.0000
  C   C252      1.0  0.32275  0.25610  0.59590  1.0000
  C   C253      1.0  0.30121  0.27256  0.58980  1.0000
  C   C254      1.0  0.25538  0.33885  0.60137  1.0000
  H   H192      1.0  0.04921  0.26973  0.53407  1.0000
  C   C255      1.0  0.05835  0.08176  0.75549  1.0000
  C   C256      1.0  0.06418  0.10979  0.81985  1.0000
  C   C257      1.0  0.04742  0.06515  0.73662  1.0000
  H   H193      1.0  0.05354  0.07842  0.77633  1.0000
  C   C258      1.0  0.13919  0.10853  0.74928  1.0000
  C   C259      1.0  0.17736  0.13706  0.74526  1.0000
  H   H194      1.0  0.08078  0.16291  0.81478  1.0000
  H   H195      1.0  0.03979  0.19958  0.73438  1.0000
  H   H196      1.0  0.17136  0.17659  0.76071  1.0000
  H   H197      1.0  0.26113  0.25075  0.56148  1.0000
  H   H198      1.0  0.21886  0.22714  0.56377  1.0000
  H   H199      1.0  0.17582  0.25186  0.56356  1.0000
  H   H200      1.0  0.42198  0.09223  0.52790  1.0000
  H   H201      1.0  0.36444  0.19446  0.53795  1.0000
  H   H202      1.0  0.32613  0.29706  0.53093  1.0000
  H   H203      1.0  0.36372  0.26789  0.54187  1.0000
  H   H204      1.0  0.36172  0.24126  0.58294  1.0000
  H   H205      1.0  0.32195  0.24445  0.61391  1.0000
  H   H206      1.0  0.28388  0.27362  0.60335  1.0000
  H   H207      1.0  0.08249  0.07282  0.87265  1.0000
  C   C260      1.0  0.08056  0.10621  0.72003  1.0000
  H   H208      1.0  0.17741  0.09663  0.73169  1.0000
  S   S42       1.0  0.00721  0.27579  0.76106  1.0000
  C   C261      1.0  0.21820  0.30365  0.56044  1.0000
  C   C262      1.0  0.04892  0.19144  0.75181  1.0000
  C   C263      1.0  0.04845  0.20610  0.77547  1.0000
  C   C264      1.0  0.05970  0.19556  0.79813  1.0000
  C   C265      1.0  0.07174  0.17046  0.79710  1.0000
  C   C266      1.0  0.07203  0.15537  0.77348  1.0000
  C   C267      1.0  0.06060  0.16616  0.75079  1.0000
  P   P8        1.0  0.08956  0.12382  0.77169  1.0000
  C   C268      1.0  0.12394  0.12910  0.76147  1.0000
  C   C269      1.0  0.08777  0.10799  0.80393  1.0000
  C   C270      1.0  0.10945  0.09320  0.81305  1.0000
  H   H209      1.0  0.50037  0.01473  0.74130  1.0000
  H   H210      1.0  0.21774  0.32490  0.55809  1.0000
  C   C271      1.0  0.19419  0.29000  0.56162  1.0000
  S   S43       1.0  0.27310  0.21697  0.51346  1.0000
  H   H211      1.0  0.09847  0.31573  0.51672  1.0000
  H   H212      1.0  0.04438  0.32440  0.53651  1.0000
  Fe  Fe21      1.0  0.43274  0.19825  0.51628  1.0000
  H   H213      1.0  0.00703  0.01142  0.98971  1.0000
  H   H214      1.0  0.09142  0.12880  0.00443  1.0000
  C   C272      1.0  0.03849  0.32847  0.57895  1.0000
  H   H215      1.0  0.07620  0.01210  0.93840  1.0000
  H   H216      1.0  0.28220  0.27669  0.50949  1.0000
  C   C273      1.0  0.04410  0.33794  0.55330  1.0000
  C   C274      1.0  0.30829  0.21969  0.51008  1.0000
  H   H217      1.0  0.47781  0.02036  0.62541  1.0000
  H   H218      1.0  0.14377  0.33285  0.50767  1.0000
  H   H219      1.0  0.03320  0.33836  0.62052  1.0000
  C   C275      1.0  0.11090  0.25343  0.50634  1.0000
  S   S44       1.0  0.11968  0.51190  0.49068  1.0000
  Fe  Fe22      1.0  0.47060  0.46750  0.18945  1.0000
  S   S45       1.0  0.43023  0.47615  0.17343  1.0000
  Fe  Fe23      1.0  0.24275  0.41334  0.21444  1.0000
  S   S46       1.0  0.22889  0.45583  0.21602  1.0000
  S   S47       1.0  0.21205  0.38160  0.20996  1.0000
  Fe  Fe24      1.0  0.29833  0.42788  0.22948  1.0000
  S   S48       1.0  0.28812  0.47085  0.23389  1.0000
  S   S49       1.0  0.33989  0.41225  0.23436  1.0000
  Fe  Fe25      1.0  0.25014  0.45766  0.25484  1.0000
  S   S50       1.0  0.22595  0.47500  0.29077  1.0000
  Fe  Fe26      1.0  0.26817  0.46476  0.19482  1.0000
  S   S51       1.0  0.28096  0.49419  0.16263  1.0000
  S   S52       1.0  0.26234  0.41486  0.25362  1.0000
  S   S53       1.0  0.28009  0.42202  0.19009  1.0000
  Fe  Fe27      1.0  0.21443  0.48443  0.45301  1.0000
  S   S54       1.0  0.17714  0.46081  0.46019  1.0000
  S   S55       1.0  0.24314  0.48052  0.41639  1.0000
  C   C276      1.0  0.36303  0.46983  0.49053  1.0000
  H   H220      1.0  0.09973  0.38857  0.33746  1.0000
  C   C277      1.0  0.43428  0.39420  0.04114  1.0000
  C   C278      1.0  0.34512  0.45295  0.50387  1.0000
  C   C279      1.0  0.09328  0.35674  0.39683  1.0000
  Fe  Fe28      1.0  0.16183  0.49638  0.48362  1.0000
  H   H221      1.0  0.13695  0.42621  0.48541  1.0000
  S   S56       1.0  0.23353  0.47042  0.49043  1.0000
  S   S57       1.0  0.19777  0.52128  0.47385  1.0000
  C   C280      1.0  0.20221  0.38362  0.49301  1.0000
  C   C281      1.0  0.21278  0.38914  0.46749  1.0000
  C   C282      1.0  0.21881  0.36834  0.44949  1.0000
  H   H222      1.0  0.45969  0.55082  0.17208  1.0000
  C   C283      1.0  0.32094  0.53037  0.20467  1.0000
  H   H223      1.0  0.06113  0.41388  0.35753  1.0000
  H   H224      1.0  0.21663  0.40933  0.46177  1.0000
  H   H225      1.0  0.22768  0.37244  0.43005  1.0000
  C   C284      1.0  0.43833  0.37859  0.01820  1.0000
  C   C285      1.0  0.24765  0.35216  0.32057  1.0000
  C   C286      1.0  0.23107  0.47515  0.32569  1.0000
  C   C287      1.0  0.20927  0.48088  0.34346  1.0000
  C   C288      1.0  0.21246  0.48237  0.37123  1.0000
  C   C289      1.0  0.23768  0.47868  0.38159  1.0000
  C   C290      1.0  0.25950  0.47308  0.36386  1.0000
  C   C291      1.0  0.25620  0.47098  0.33612  1.0000
  H   H226      1.0  0.18976  0.48422  0.33561  1.0000
  H   H227      1.0  0.19544  0.48654  0.38456  1.0000
  H   H228      1.0  0.27910  0.47040  0.37164  1.0000
  H   H229      1.0  0.27317  0.46686  0.32273  1.0000
  C   C292      1.0  0.27928  0.49010  0.12762  1.0000
  C   C293      1.0  0.26001  0.47440  0.11634  1.0000
  C   C294      1.0  0.25858  0.47259  0.08843  1.0000
  C   C295      1.0  0.27650  0.48613  0.07147  1.0000
  C   C296      1.0  0.29573  0.50195  0.08270  1.0000
  C   C297      1.0  0.29702  0.50400  0.11066  1.0000
  H   H230      1.0  0.24588  0.46407  0.12913  1.0000
  H   H231      1.0  0.24324  0.46099  0.07984  1.0000
  H   H232      1.0  0.30931  0.51289  0.06986  1.0000
  H   H233      1.0  0.31174  0.51651  0.11921  1.0000
  H   H234      1.0  0.14979  0.52129  0.41309  1.0000
  C   C298      1.0  0.23286  0.37990  0.36859  1.0000
  C   C299      1.0  0.06015  0.58515  0.45430  1.0000
  C   C300      1.0  0.40510  0.45828  0.19006  1.0000
  C   C301      1.0  0.41158  0.43617  0.20518  1.0000
  C   C302      1.0  0.39134  0.42194  0.21834  1.0000
  C   C303      1.0  0.36464  0.42996  0.21681  1.0000
  C   C304      1.0  0.35812  0.45196  0.20151  1.0000
  C   C305      1.0  0.37836  0.46605  0.18805  1.0000
  H   H235      1.0  0.43219  0.43001  0.20673  1.0000
  H   H236      1.0  0.39644  0.40495  0.23008  1.0000
  H   H237      1.0  0.33754  0.45818  0.20003  1.0000
  H   H238      1.0  0.37328  0.48315  0.17634  1.0000
  C   C306      1.0  0.04676  0.50898  0.43897  1.0000
  C   C307      1.0  0.07089  0.49729  0.42936  1.0000
  C   C308      1.0  0.09369  0.49782  0.44490  1.0000
  C   C309      1.0  0.09227  0.51011  0.47000  1.0000
  C   C310      1.0  0.06823  0.52180  0.47935  1.0000
  C   C311      1.0  0.04568  0.52132  0.46393  1.0000
  H   H239      1.0  0.07186  0.48774  0.41001  1.0000
  H   H240      1.0  0.11224  0.48880  0.43752  1.0000
  H   H241      1.0  0.24974  0.34713  0.12012  1.0000
  H   H242      1.0  0.02755  0.53103  0.47129  1.0000
  C   C312      1.0  0.29863  0.51088  0.44089  1.0000
  C   C313      1.0  0.08690  0.59872  0.50003  1.0000
  C   C314      1.0  0.40311  0.58352  0.06463  1.0000
  H   H243      1.0  0.38088  0.35643  0.34549  1.0000
  C   C315      1.0  0.05038  0.41629  0.45499  1.0000
  H   H244      1.0  0.37162  0.36489  0.20172  1.0000
  H   H245      1.0  0.46067  0.51668  0.24962  1.0000
  C   C316      1.0  0.44406  0.58181  0.25488  1.0000
  C   C317      1.0  0.08582  0.35408  0.46294  1.0000
  S   S58       1.0  0.01777  0.50790  0.42031  1.0000
  H   H246      1.0  0.06696  0.53165  0.49853  1.0000
  H   H247      1.0  0.15180  0.36489  0.47099  1.0000
  S   S59       1.0  0.49556  0.43216  0.17659  1.0000
  C   C318      1.0  0.43484  0.40566  0.12758  1.0000
  C   C319      1.0  0.47910  0.39630  0.10879  1.0000
  C   C320      1.0  0.41536  0.52763  0.11523  1.0000
  C   C321      1.0  0.40351  0.53944  0.13804  1.0000
  C   C322      1.0  0.44089  0.50928  0.02435  1.0000
  C   C323      1.0  0.19743  0.35751  0.50036  1.0000
  C   C324      1.0  0.11126  0.36471  0.45872  1.0000
  H   H248      1.0  0.32289  0.44186  0.02132  1.0000
  H   H249      1.0  0.17112  0.35993  0.39042  1.0000
  H   H250      1.0  0.09834  0.58570  0.43378  1.0000
  C   C325      1.0  0.32356  0.40410  0.46933  1.0000
  C   C326      1.0  0.46221  0.55722  0.00743  1.0000
  H   H251      1.0  0.26289  0.40768  0.42399  1.0000
  C   C327      1.0  0.44700  0.54420  0.15652  1.0000
  C   C328      1.0  0.10330  0.36292  0.37129  1.0000
  C   C329      1.0  0.47693  0.57261  0.08077  1.0000
  H   H252      1.0  0.38424  0.52513  0.22519  1.0000
  H   H253      1.0  0.48779  0.34925  0.28184  1.0000
  H   H254      1.0  0.36661  0.60834  0.20291  1.0000
  C   C330      1.0  0.30618  0.48717  0.45279  1.0000
  H   H255      1.0  0.42402  0.36792  0.24050  1.0000
  C   C331      1.0  0.28089  0.34363  0.36757  1.0000
  H   H256      1.0  0.49435  0.39884  0.09328  1.0000
  C   C332      1.0  0.40434  0.38287  0.28912  1.0000
  C   C333      1.0  0.38462  0.40276  0.28794  1.0000
  C   C334      1.0  0.39181  0.42923  0.28544  1.0000
  C   C335      1.0  0.41869  0.43604  0.28442  1.0000
  C   C336      1.0  0.43839  0.41643  0.28637  1.0000
  C   C337      1.0  0.43126  0.38997  0.28895  1.0000
  H   H257      1.0  0.35185  0.57473  0.16427  1.0000
  C   C338      1.0  0.40225  0.44905  0.05647  1.0000
  H   H258      1.0  0.30763  0.55529  0.17329  1.0000
  H   H259      1.0  0.27281  0.54336  0.49574  1.0000
  H   H260      1.0  0.43779  0.59865  0.15230  1.0000
  C   C339      1.0  0.18707  0.39826  0.39774  1.0000
  C   C340      1.0  0.44291  0.52361  0.11324  1.0000
  H   H261      1.0  0.34164  0.36534  0.10067  1.0000
  H   H262      1.0  0.36374  0.39796  0.28801  1.0000
  H   H263      1.0  0.37655  0.44434  0.28320  1.0000
  H   H264      1.0  0.42432  0.45644  0.28163  1.0000
  H   H265      1.0  0.45929  0.42159  0.28510  1.0000
  C   C341      1.0  0.50178  0.48560  0.10478  1.0000
  C   C342      1.0  0.27112  0.34950  0.48862  1.0000
  C   C343      1.0  0.08781  0.58822  0.45286  1.0000
  C   C344      1.0  0.28659  0.53112  0.45634  1.0000
  H   H266      1.0  0.33994  0.50658  0.23400  1.0000
  C   C345      1.0  0.37699  0.46110  0.05724  1.0000
  P   P9        1.0  0.44921  0.43097  0.07926  1.0000
  C   C346      1.0  0.09189  0.38367  0.35722  1.0000
  H   H267      1.0  0.32835  0.45078  0.14853  1.0000
  C   C347      1.0  0.42860  0.58431  0.23245  1.0000
  Fe  Fe29      1.0  0.50421  0.42903  0.22023  1.0000
  C   C348      1.0  0.29376  0.39302  0.05795  1.0000
  C   C349      1.0  0.45133  0.53541  0.24494  1.0000
  P   P10       1.0  0.28659  0.38393  0.09213  1.0000
  C   C350      1.0  0.42274  0.34667  0.23942  1.0000
  C   C351      1.0  0.31332  0.39678  0.11133  1.0000
  H   H268      1.0  0.31516  0.47166  0.44034  1.0000
  H   H269      1.0  0.31295  0.35629  0.24110  1.0000
  C   C352      1.0  0.34886  0.35261  0.26286  1.0000
  C   C353      1.0  0.33121  0.43201  0.13813  1.0000
  C   C354      1.0  0.31013  0.42114  0.12469  1.0000
  H   H270      1.0  0.25975  0.35951  0.18313  1.0000
  H   H271      1.0  0.41939  0.53159  0.05457  1.0000
  H   H272      1.0  0.44442  0.34501  0.20176  1.0000
  H   H273      1.0  0.41835  0.46052  0.12070  1.0000
  C   C355      1.0  0.07204  0.37157  0.40870  1.0000
  C   C356      1.0  0.25474  0.39788  0.10347  1.0000
  C   C357      1.0  0.23624  0.40683  0.08519  1.0000
  C   C358      1.0  0.21143  0.41709  0.09424  1.0000
  C   C359      1.0  0.20493  0.41843  0.12155  1.0000
  C   C360      1.0  0.22314  0.40932  0.13981  1.0000
  C   C361      1.0  0.24789  0.39899  0.13083  1.0000
  H   H274      1.0  0.30125  0.51323  0.41952  1.0000
  C   C362      1.0  0.35261  0.57857  0.09015  1.0000
  C   C363      1.0  0.32139  0.34487  0.16343  1.0000
  C   C364      1.0  0.30703  0.41660  0.05209  1.0000
  H   H275      1.0  0.21077  0.34378  0.36439  1.0000
  C   C365      1.0  0.45478  0.41014  0.05008  1.0000
  H   H276      1.0  0.47723  0.45593  0.12283  1.0000
  C   C366      1.0  0.48447  0.38027  0.13052  1.0000
  C   C367      1.0  0.38212  0.57202  0.05126  1.0000
  H   H277      1.0  0.29146  0.43201  0.12457  1.0000
  H   H278      1.0  0.30485  0.35286  0.15267  1.0000
  H   H279      1.0  0.37839  0.38438  0.12466  1.0000
  P   P11       1.0  0.31059  0.45214  0.49520  1.0000
  C   C368      1.0  0.14213  0.63257  0.46943  1.0000
  H   H280      1.0  0.41503  0.39414  0.05167  1.0000
  H   H281      1.0  0.24096  0.40633  0.06398  1.0000
  H   H282      1.0  0.19740  0.42438  0.08009  1.0000
  H   H283      1.0  0.18584  0.42659  0.12863  1.0000
  H   H284      1.0  0.21803  0.41027  0.16098  1.0000
  C   C369      1.0  0.28566  0.34825  0.09441  1.0000
  H   H285      1.0  0.36985  0.59759  0.12371  1.0000
  H   H286      1.0  0.20782  0.43478  0.40135  1.0000
  H   H287      1.0  0.16966  0.40531  0.40928  1.0000
  C   C370      1.0  0.29798  0.38535  0.43411  1.0000
  H   H288      1.0  0.21263  0.36863  0.26606  1.0000
  C   C371      1.0  0.40185  0.59967  0.17786  1.0000
  C   C372      1.0  0.48119  0.47001  0.05645  1.0000
  C   C373      1.0  0.46284  0.61863  0.08252  1.0000
  H   H289      1.0  0.11989  0.35159  0.36236  1.0000
  S   S60       1.0  0.49944  0.39268  0.24715  1.0000
  C   C374      1.0  0.15781  0.53990  0.41954  1.0000
  H   H290      1.0  0.42006  0.60346  0.22807  1.0000
  C   C375      1.0  0.13213  0.35692  0.47465  1.0000
  H   H291      1.0  0.45037  0.63478  0.07590  1.0000
  H   H292      1.0  0.49880  0.60875  0.21679  1.0000
  C   C376      1.0  0.31073  0.41727  0.30602  1.0000
  C   C377      1.0  0.32198  0.43249  0.32578  1.0000
  C   C378      1.0  0.31508  0.42800  0.35255  1.0000
  C   C379      1.0  0.29652  0.40868  0.35947  1.0000
  C   C380      1.0  0.28444  0.39383  0.33968  1.0000
  C   C381      1.0  0.29243  0.39771  0.31292  1.0000
  C   C382      1.0  0.23441  0.36789  0.30217  1.0000
  C   C383      1.0  0.41677  0.44712  0.07977  1.0000
  C   C384      1.0  0.23124  0.40595  0.37844  1.0000
  H   H293      1.0  0.31611  0.42072  0.28526  1.0000
  H   H294      1.0  0.33593  0.44780  0.32028  1.0000
  H   H295      1.0  0.32378  0.43979  0.36792  1.0000
  H   H296      1.0  0.28478  0.38570  0.29724  1.0000
  H   H297      1.0  0.23331  0.38920  0.30459  1.0000
  C   C385      1.0  0.07018  0.39797  0.36855  1.0000
  C   C386      1.0  0.50260  0.34709  0.21530  1.0000
  H   H298      1.0  0.24697  0.41977  0.37455  1.0000
  P   P12       1.0  0.40412  0.56530  0.18719  1.0000
  C   C387      1.0  0.36627  0.47188  0.08106  1.0000
  C   C388      1.0  0.38121  0.47149  0.10392  1.0000
  S   S61       1.0  0.47719  0.46326  0.23307  1.0000
  H   H299      1.0  0.37322  0.48045  0.12229  1.0000
  H   H300      1.0  0.41031  0.44162  0.03749  1.0000
  C   C389      1.0  0.33781  0.36185  0.17708  1.0000
  H   H301      1.0  0.04283  0.45744  0.46449  1.0000
  H   H302      1.0  0.36583  0.46214  0.03922  1.0000
  H   H303      1.0  0.29486  0.36976  0.41976  1.0000
  C   C390      1.0  0.34259  0.52184  0.21915  1.0000
  H   H304      1.0  0.33304  0.57682  0.09985  1.0000
  C   C391      1.0  0.49574  0.57767  0.09992  1.0000
  C   C392      1.0  0.45871  0.53196  0.13388  1.0000
  H   H305      1.0  0.35649  0.48275  0.47492  1.0000
  H   H306      1.0  0.41555  0.41510  0.12695  1.0000
  H   H307      1.0  0.06801  0.42042  0.44271  1.0000
  C   C393      1.0  0.47316  0.45709  0.08000  1.0000
  C   C394      1.0  0.42123  0.61055  0.16036  1.0000
  C   C395      1.0  0.18231  0.54837  0.40889  1.0000
  C   C396      1.0  0.20866  0.41486  0.39332  1.0000
  H   H308      1.0  0.33344  0.36730  0.44912  1.0000
  C   C397      1.0  0.34953  0.56025  0.17987  1.0000
  C   C398      1.0  0.39850  0.59258  0.09095  1.0000
  H   H309      1.0  0.49656  0.41956  0.04405  1.0000
  C   C399      1.0  0.14392  0.55507  0.43907  1.0000
  C   C400      1.0  0.45441  0.40940  0.10723  1.0000
  H   H310      1.0  0.43329  0.52061  0.20995  1.0000
  C   C401      1.0  0.28244  0.52780  0.48375  1.0000
  C   C402      1.0  0.44405  0.55682  0.02947  1.0000
  H   H311      1.0  0.50387  0.37077  0.13182  1.0000
  C   C403      1.0  0.49805  0.60312  0.11038  1.0000
  H   H312      1.0  0.49765  0.55980  0.21977  1.0000
  C   C404      1.0  0.37143  0.55201  0.19451  1.0000
  H   H313      1.0  0.36361  0.65515  0.18979  1.0000
  H   H314      1.0  0.12541  0.54780  0.44759  1.0000
  C   C405      1.0  0.44029  0.38979  0.14949  1.0000
  C   C406      1.0  0.21069  0.36355  0.37266  1.0000
  C   C407      1.0  0.47993  0.40869  0.03682  1.0000
  H   H315      1.0  0.04288  0.40273  0.40225  1.0000
  C   C408      1.0  0.33827  0.38382  0.11113  1.0000
  C   C409      1.0  0.05929  0.59533  0.50143  1.0000
  H   H316      1.0  0.40345  0.48343  0.48710  1.0000
  H   H317      1.0  0.40307  0.52143  0.09921  1.0000
  C   C410      1.0  0.37961  0.64263  0.18146  1.0000
  C   C411      1.0  0.35892  0.35157  0.19125  1.0000
  C   C412      1.0  0.31970  0.38402  0.45064  1.0000
  C   C413      1.0  0.27999  0.40663  0.43642  1.0000
  H   H318      1.0  0.11509  0.37897  0.44311  1.0000
  C   C414      1.0  0.42462  0.56236  0.21588  1.0000
  H   H319      1.0  0.32037  0.34147  0.06805  1.0000
  C   C415      1.0  0.06007  0.39178  0.39408  1.0000
  H   H320      1.0  0.42220  0.36698  0.01092  1.0000
  H   H321      1.0  0.01250  0.36564  0.47893  1.0000
  H   H322      1.0  0.46974  0.36542  0.16816  1.0000
  C   C416      1.0  0.28390  0.42677  0.45486  1.0000
  C   C417      1.0  0.04134  0.39031  0.45799  1.0000
  C   C418      1.0  0.22151  0.34916  0.20041  1.0000
  H   H323      1.0  0.18865  0.60892  0.49759  1.0000
  H   H324      1.0  0.27377  0.35963  0.04101  1.0000
  C   C419      1.0  0.31275  0.42357  0.02564  1.0000
  C   C420      1.0  0.32186  0.34876  0.25893  1.0000
  C   C421      1.0  0.35581  0.41876  0.13817  1.0000
  C   C422      1.0  0.28506  0.37729  0.03697  1.0000
  C   C423      1.0  0.41957  0.63716  0.15326  1.0000
  H   H325      1.0  0.44777  0.59892  0.26719  1.0000
  H   H326      1.0  0.45195  0.51400  0.09574  1.0000
  C   C424      1.0  0.14228  0.64298  0.44359  1.0000
  H   H327      1.0  0.26990  0.44323  0.45591  1.0000
  C   C425      1.0  0.40666  0.45980  0.10307  1.0000
  H   H328      1.0  0.29155  0.40537  0.38028  1.0000
  H   H329      1.0  0.28010  0.54920  0.44699  1.0000
  H   H330      1.0  0.33397  0.38300  0.17708  1.0000
  P   P13       1.0  0.39586  0.34835  0.28929  1.0000
  C   C426      1.0  0.46025  0.59307  0.07202  1.0000
  P   P14       1.0  0.05918  0.36313  0.44158  1.0000
  H   H331      1.0  0.19331  0.53638  0.39408  1.0000
  C   C427      1.0  0.45532  0.55735  0.26118  1.0000
  P   P15       1.0  0.26186  0.36765  0.34919  1.0000
  C   C428      1.0  0.43608  0.53785  0.22236  1.0000
  C   C429      1.0  0.35702  0.56955  0.06398  1.0000
  H   H332      1.0  0.43205  0.49076  0.03028  1.0000
  C   C430      1.0  0.43345  0.53260  0.03779  1.0000
  C   C431      1.0  0.15411  0.57913  0.44774  1.0000
  H   H333      1.0  0.38212  0.54205  0.13915  1.0000
  C   C432      1.0  0.37332  0.59020  0.10358  1.0000
  H   H334      1.0  0.18791  0.60511  0.44449  1.0000
  C   C433      1.0  0.36777  0.53252  0.21406  1.0000
  C   C434      1.0  0.32443  0.54939  0.18492  1.0000
  H   H335      1.0  0.30147  0.52194  0.20841  1.0000
  C   C435      1.0  0.19295  0.57199  0.41783  1.0000
  P   P16       1.0  0.13735  0.59776  0.47452  1.0000
  C   C436      1.0  0.17903  0.58723  0.43733  1.0000
  C   C437      1.0  0.29074  0.38441  0.01051  1.0000
  C   C438      1.0  0.41924  0.54783  0.15888  1.0000
  H   H336      1.0  0.47365  0.46396  0.03750  1.0000
  H   H337      1.0  0.41414  0.60160  0.10179  1.0000
  H   H338      1.0  0.21221  0.57821  0.40994  1.0000
  H   H339      1.0  0.39171  0.61587  0.02225  1.0000
  C   C439      1.0  0.39869  0.65317  0.16368  1.0000
  H   H340      1.0  0.37204  0.42712  0.14881  1.0000
  C   C440      1.0  0.10153  0.59414  0.47594  1.0000
  S   S62       1.0  0.27362  0.48294  0.03649  1.0000
  H   H341      1.0  0.48392  0.64341  0.10939  1.0000
  H   H342      1.0  0.43463  0.64546  0.13985  1.0000
  H   H343      1.0  0.38500  0.56528  0.03079  1.0000
  C   C441      1.0  0.49949  0.49048  0.05708  1.0000
  H   H344      1.0  0.46794  0.55552  0.27814  1.0000
  C   C442      1.0  0.14538  0.67009  0.43964  1.0000
  C   C443      1.0  0.43481  0.61429  0.02500  1.0000
  C   C444      1.0  0.48336  0.46525  0.10427  1.0000
  H   H345      1.0  0.31274  0.42986  0.06779  1.0000
  C   C445      1.0  0.48163  0.62357  0.10164  1.0000
  C   C446      1.0  0.18798  0.37268  0.38721  1.0000
  H   H346      1.0  0.44684  0.37498  0.28966  1.0000
  H   H347      1.0  0.34658  0.48091  0.08168  1.0000
  C   C447      1.0  0.38127  0.61604  0.18870  1.0000
  P   P17       1.0  0.43545  0.58679  0.04777  1.0000
  H   H348      1.0  0.34085  0.56106  0.05326  1.0000
  H   H349      1.0  0.02467  0.58531  0.47998  1.0000
  H   H350      1.0  0.26159  0.39161  0.14521  1.0000
  H   H351      1.0  0.48007  0.52896  0.13252  1.0000
  C   C448      1.0  0.30575  0.42578  0.47145  1.0000
  C   C449      1.0  0.46514  0.37716  0.15097  1.0000
  S   S63       1.0  0.34479  0.51161  0.01157  1.0000
  H   H352      1.0  0.04972  0.57952  0.43669  1.0000
  H   H353      1.0  0.47567  0.55284  0.07271  1.0000
  H   H354      1.0  0.36069  0.36293  0.24795  1.0000
  H   H355      1.0  0.42546  0.38778  0.16561  1.0000
  C   C450      1.0  0.24585  0.34377  0.18689  1.0000
  H   H356      1.0  0.13986  0.63018  0.42651  1.0000
  C   C451      1.0  0.14421  0.64970  0.49130  1.0000
  C   C452      1.0  0.04598  0.58843  0.47863  1.0000
  C   C453      1.0  0.01940  0.38553  0.47542  1.0000
  Fe  Fe30      1.0  0.19542  0.44952  0.49862  1.0000
  H   H357      1.0  0.31967  0.35697  0.35297  1.0000
  C   C454      1.0  0.22245  0.35630  0.28042  1.0000
  C   C455      1.0  0.28990  0.50409  0.49573  1.0000
  H   H358      1.0  0.47776  0.61848  0.02251  1.0000
  C   C456      1.0  0.35937  0.39474  0.12456  1.0000
  C   C457      1.0  0.30136  0.48331  0.48026  1.0000
  H   H359      1.0  0.34044  0.40263  0.48197  1.0000
  C   C458      1.0  0.03637  0.43732  0.46755  1.0000
  C   C459      1.0  0.45878  0.62566  0.01575  1.0000
  H   H360      1.0  0.26660  0.36953  0.48266  1.0000
  C   C460      1.0  0.30894  0.34316  0.36558  1.0000
  C   C461      1.0  0.38975  0.47026  0.49737  1.0000
  C   C462      1.0  0.01390  0.43248  0.48396  1.0000
  C   C463      1.0  0.49765  0.35809  0.24071  1.0000
  C   C464      1.0  0.41059  0.62414  0.01577  1.0000
  C   C465      1.0  0.36066  0.34346  0.28592  1.0000
  C   C466      1.0  0.39722  0.34217  0.34427  1.0000
  C   C467      1.0  0.21371  0.34220  0.45676  1.0000
  C   C468      1.0  0.09872  0.44129  0.50012  1.0000
  H   H361      1.0  0.09771  0.45658  0.48522  1.0000
  C   C469      1.0  0.12082  0.42420  0.50016  1.0000
  C   C470      1.0  0.48397  0.39303  0.01396  1.0000
  S   S64       1.0  0.50308  0.49686  0.18319  1.0000
  C   C471      1.0  0.00566  0.40658  0.48814  1.0000
  C   C472      1.0  0.15244  0.58700  0.50476  1.0000
  H   H362      1.0  0.39747  0.67381  0.15819  1.0000
  C   C473      1.0  0.49119  0.34110  0.26203  1.0000
  Fe  Fe31      1.0  0.20951  0.55746  0.75144  1.0000
  S   S65       1.0  0.23581  0.52235  0.74173  1.0000
  S   S66       1.0  0.16876  0.55524  0.77141  1.0000
  Fe  Fe32      1.0  0.25054  0.59671  0.73059  1.0000
  S   S67       1.0  0.28001  0.56435  0.71843  1.0000
  S   S68       1.0  0.25285  0.64125  0.73446  1.0000
  Fe  Fe33      1.0  0.24440  0.54321  0.70262  1.0000
  S   S69       1.0  0.24055  0.51589  0.66644  1.0000
  Fe  Fe34      1.0  0.26862  0.54630  0.75839  1.0000
  S   S70       1.0  0.30074  0.53348  0.78681  1.0000
  S   S71       1.0  0.21583  0.57706  0.71197  1.0000
  S   S72       1.0  0.24137  0.57976  0.77109  1.0000
  Fe  Fe35      1.0  0.04249  0.52185  0.70339  1.0000
  S   S73       1.0  0.02878  0.52523  0.74616  1.0000
  S   S74       1.0  0.08519  0.51188  0.69152  1.0000
  H   H363      1.0  0.18965  0.57465  0.61601  1.0000
  H   H364      1.0  0.02008  0.54386  0.81493  1.0000
  H   H365      1.0  0.21047  0.59189  0.53749  1.0000
  Fe  Fe36      1.0  0.33642  0.54250  0.98098  1.0000
  S   S75       1.0  0.29357  0.53153  0.97726  1.0000
  C   C474      1.0  0.35438  0.43642  0.52400  1.0000
  Fe  Fe37      1.0  0.35667  0.48643  0.97601  1.0000
  S   S76       1.0  0.31550  0.47092  0.97133  1.0000
  S   S77       1.0  0.39087  0.45727  0.98014  1.0000
  Fe  Fe38      1.0  0.30909  0.50500  0.94372  1.0000
  S   S78       1.0  0.28335  0.49813  0.90782  1.0000
  C   C475      1.0  0.48539  0.52405  0.83337  1.0000
  S   S79       1.0  0.35056  0.58387  0.98796  1.0000
  S   S80       1.0  0.35151  0.51837  0.94564  1.0000
  H   H366      1.0  0.08063  0.65439  0.76681  1.0000
  C   C476      1.0  0.32892  0.60771  0.97515  1.0000
  C   C477      1.0  0.30926  0.60025  0.95787  1.0000
  C   C478      1.0  0.29203  0.61933  0.94770  1.0000
  C   C479      1.0  0.29468  0.64598  0.95410  1.0000
  C   C480      1.0  0.31444  0.65355  0.97131  1.0000
  C   C481      1.0  0.33147  0.63439  0.98195  1.0000
  H   H367      1.0  0.30732  0.57981  0.95221  1.0000
  H   H368      1.0  0.27657  0.61341  0.93499  1.0000
  H   H369      1.0  0.37044  0.49438  0.82588  1.0000
  C   C482      1.0  0.26998  0.34291  0.51559  1.0000
  H   H370      1.0  0.24640  0.43624  0.58986  1.0000
  C   C483      1.0  0.29480  0.52583  0.82094  1.0000
  C   C484      1.0  0.26982  0.51787  0.83093  1.0000
  C   C485      1.0  0.26657  0.50969  0.85764  1.0000
  C   C486      1.0  0.28811  0.50976  0.87473  1.0000
  C   C487      1.0  0.31282  0.51849  0.86494  1.0000
  C   C488      1.0  0.31616  0.52638  0.83816  1.0000
  H   H371      1.0  0.25330  0.51707  0.81781  1.0000
  H   H372      1.0  0.24736  0.50289  0.86498  1.0000
  H   H373      1.0  0.32949  0.51836  0.87787  1.0000
  H   H374      1.0  0.33551  0.53243  0.83056  1.0000
  C   C489      1.0  0.14574  0.54334  0.74904  1.0000
  C   C490      1.0  0.15434  0.52929  0.72610  1.0000
  C   C491      1.0  0.13562  0.51910  0.70887  1.0000
  C   C492      1.0  0.10830  0.52358  0.71410  1.0000
  C   C493      1.0  0.09987  0.53825  0.73670  1.0000
  C   C494      1.0  0.11848  0.54773  0.75436  1.0000
  H   H375      1.0  0.17542  0.52591  0.72179  1.0000
  H   H376      1.0  0.14238  0.50808  0.69127  1.0000
  H   H377      1.0  0.07910  0.54290  0.74036  1.0000
  H   H378      1.0  0.11175  0.55888  0.77186  1.0000
  H   H379      1.0  0.48466  0.53389  0.97786  1.0000
  C   C495      1.0  0.01560  0.66572  0.71716  1.0000
  C   C496      1.0  0.23481  0.52806  0.57576  1.0000
  C   C497      1.0  0.24297  0.54891  0.59206  1.0000
  C   C498      1.0  0.24400  0.54593  0.61996  1.0000
  C   C499      1.0  0.23736  0.52184  0.63180  1.0000
  C   C500      1.0  0.22896  0.50112  0.61547  1.0000
  C   C501      1.0  0.22738  0.50428  0.58768  1.0000
  H   H380      1.0  0.24882  0.56738  0.58305  1.0000
  H   H381      1.0  0.25065  0.56199  0.63221  1.0000
  H   H382      1.0  0.22376  0.48242  0.62439  1.0000
  H   H383      1.0  0.22099  0.48812  0.57542  1.0000
  C   C502      1.0  0.10531  0.63402  0.83610  1.0000
  H   H384      1.0  0.06156  0.45283  0.51925  1.0000
  H   H385      1.0  0.12050  0.65457  0.64391  1.0000
  C   C503      1.0  0.02263  0.46151  0.55688  1.0000
  H   H386      1.0  0.29920  0.63885  0.69643  1.0000
  C   C504      1.0  0.47233  0.47539  0.94066  1.0000
  C   C505      1.0  0.45076  0.49302  0.93803  1.0000
  C   C506      1.0  0.42593  0.48800  0.95075  1.0000
  C   C507      1.0  0.42217  0.46473  0.96513  1.0000
  C   C508      1.0  0.44372  0.44704  0.96773  1.0000
  C   C509      1.0  0.46884  0.45247  0.95575  1.0000
  H   H387      1.0  0.45348  0.51096  0.92674  1.0000
  H   H388      1.0  0.40977  0.50225  0.94969  1.0000
  H   H389      1.0  0.44101  0.42914  0.97908  1.0000
  H   H390      1.0  0.48540  0.43883  0.95796  1.0000
  H   H391      1.0  0.00952  0.64023  0.97316  1.0000
  C   C510      1.0  0.07850  0.62545  0.79804  1.0000
  H   H392      1.0  0.01810  0.44116  0.73913  1.0000
  S   S81       1.0  0.23489  0.53236  0.54062  1.0000
  Fe  Fe39      1.0  0.21406  0.50510  0.51178  1.0000
  H   H393      1.0  0.06263  0.62817  0.70530  1.0000
  S   S82       1.0  0.19424  0.40888  0.51598  1.0000
  H   H394      1.0  0.05161  0.62990  0.65793  1.0000
  C   C511      1.0  0.38111  0.43691  0.53078  1.0000
  H   H395      1.0  0.06346  0.41769  0.88296  1.0000
  C   C512      1.0  0.13957  0.63770  0.72907  1.0000
  H   H396      1.0  0.06441  0.61323  0.78793  1.0000
  C   C513      1.0  0.17380  0.63213  0.83393  1.0000
  C   C514      1.0  0.11301  0.66881  0.65865  1.0000
  C   C515      1.0  0.02799  0.61423  0.58137  1.0000
  H   H397      1.0  0.35914  0.59639  0.80683  1.0000
  C   C516      1.0  0.37096  0.57830  0.80573  1.0000
  H   H398      1.0  0.30767  0.35343  0.55890  1.0000
  H   H399      1.0  0.20493  0.63865  0.76741  1.0000
  C   C517      1.0  0.08769  0.64859  0.78610  1.0000
  C   C518      1.0  0.01179  0.40092  0.75193  1.0000
  H   H400      1.0  0.11183  0.62822  0.85554  1.0000
  C   C519      1.0  0.07307  0.61531  0.69094  1.0000
  H   H401      1.0  0.03574  0.37182  0.67606  1.0000
  H   H402      1.0  0.16220  0.60396  0.69242  1.0000
  H   H403      1.0  0.12543  0.59227  0.58889  1.0000
  H   H404      1.0  0.45169  0.54950  0.82697  1.0000
  H   H405      1.0  0.01010  0.59619  0.95197  1.0000
  C   C520      1.0  0.11844  0.61223  0.58518  1.0000
  H   H406      1.0  0.05222  0.37193  0.52920  1.0000
  C   C521      1.0  0.29306  0.37805  0.59148  1.0000
  C   C522      1.0  0.04867  0.36482  0.54932  1.0000
  C   C523      1.0  0.39879  0.45384  0.51749  1.0000
  H   H407      1.0  0.10352  0.38699  0.55380  1.0000
  C   C524      1.0  0.03806  0.34577  0.60074  1.0000
  H   H408      1.0  0.02426  0.64507  0.79033  1.0000
  H   H409      1.0  0.33963  0.44092  0.88470  1.0000
  H   H410      1.0  0.06463  0.54575  0.63558  1.0000
  C   C525      1.0  0.29291  0.35558  0.57514  1.0000
  C   C526      1.0  0.49477  0.50145  0.84605  1.0000
  C   C527      1.0  0.22013  0.66107  0.83946  1.0000
  H   H411      1.0  0.18911  0.35322  0.52004  1.0000
  C   C528      1.0  0.19660  0.64751  0.94895  1.0000
  C   C529      1.0  0.07077  0.54304  0.61478  1.0000
  C   C530      1.0  0.07405  0.51739  0.60471  1.0000
  C   C531      1.0  0.08133  0.51315  0.57788  1.0000
  C   C532      1.0  0.08477  0.53466  0.56092  1.0000
  C   C533      1.0  0.08160  0.56044  0.57092  1.0000
  H   H412      1.0  0.07077  0.50087  0.61783  1.0000
  H   H413      1.0  0.08409  0.49323  0.57013  1.0000
  H   H414      1.0  0.08979  0.53125  0.53998  1.0000
  H   H415      1.0  0.26436  0.35811  0.53006  1.0000
  C   C534      1.0  0.09242  0.59752  0.69946  1.0000
  C   C535      1.0  0.19034  0.58613  0.53339  1.0000
  C   C536      1.0  0.05878  0.40721  0.80675  1.0000
  C   C537      1.0  0.07323  0.42862  0.81628  1.0000
  C   C538      1.0  0.07431  0.43256  0.84393  1.0000
  P   P18       1.0  0.08659  0.45327  0.79373  1.0000
  C   C539      1.0  0.06595  0.48239  0.79997  1.0000
  C   C540      1.0  0.12158  0.45962  0.79763  1.0000
  C   C541      1.0  0.13493  0.47644  0.77959  1.0000
  C   C542      1.0  0.16201  0.48154  0.78208  1.0000
  C   C543      1.0  0.17607  0.46972  0.80238  1.0000
  C   C544      1.0  0.16313  0.45250  0.82006  1.0000
  C   C545      1.0  0.13604  0.44727  0.81760  1.0000
  C   C546      1.0  0.03812  0.47987  0.80185  1.0000
  H   H416      1.0  0.26045  0.66999  0.78882  1.0000
  H   H417      1.0  0.04805  0.59759  0.52019  1.0000
  C   C547      1.0  0.06056  0.52940  0.80929  1.0000
  C   C548      1.0  0.07708  0.50735  0.80373  1.0000
  C   C549      1.0  0.08439  0.44221  0.75970  1.0000
  C   C550      1.0  0.09634  0.41803  0.75166  1.0000
  H   H418      1.0  0.12258  0.56881  0.68732  1.0000
  C   C551      1.0  0.16171  0.65100  0.71823  1.0000
  C   C552      1.0  0.06904  0.44827  0.71494  1.0000
  C   C553      1.0  0.07128  0.45757  0.74099  1.0000
  C   C554      1.0  0.39089  0.54231  0.77962  1.0000
  C   C555      1.0  0.17582  0.63825  0.63533  1.0000
  C   C556      1.0  0.18497  0.65211  0.73267  1.0000
  H   H419      1.0  0.05601  0.40439  0.78571  1.0000
  H   H420      1.0  0.08402  0.44973  0.85175  1.0000
  H   H421      1.0  0.12440  0.48571  0.76357  1.0000
  H   H422      1.0  0.17215  0.49466  0.76818  1.0000
  H   H423      1.0  0.19707  0.47373  0.80420  1.0000
  H   H424      1.0  0.17421  0.44300  0.83552  1.0000
  H   H425      1.0  0.12675  0.43332  0.83107  1.0000
  H   H426      1.0  0.02897  0.46095  0.79841  1.0000
  H   H427      1.0  0.20631  0.66068  0.96252  1.0000
  H   H428      1.0  0.27444  0.39841  0.62534  1.0000
  H   H429      1.0  0.06915  0.54874  0.81131  1.0000
  H   H430      1.0  0.09838  0.51007  0.80216  1.0000
  H   H431      1.0  0.04309  0.38552  0.61405  1.0000
  H   H432      1.0  0.17517  0.56681  0.66290  1.0000
  H   H433      1.0  0.24124  0.62524  0.82731  1.0000
  H   H434      1.0  0.05861  0.46022  0.70080  1.0000
  H   H435      1.0  0.06267  0.47668  0.74636  1.0000
  C   C557      1.0  0.45851  0.53161  0.83645  1.0000
  H   H436      1.0  0.20221  0.66246  0.72489  1.0000
  H   H437      1.0  0.35447  0.64706  0.88134  1.0000
  C   C558      1.0  0.10085  0.58268  0.65400  1.0000
  H   H438      1.0  0.09639  0.59599  0.72044  1.0000
  C   C559      1.0  0.16801  0.63403  0.66213  1.0000
  C   C560      1.0  0.17019  0.65215  0.94240  1.0000
  C   C561      1.0  0.07981  0.59880  0.64561  1.0000
  C   C562      1.0  0.31295  0.65260  0.78836  1.0000
  C   C563      1.0  0.31248  0.60048  0.76931  1.0000
  C   C564      1.0  0.30216  0.60642  0.79492  1.0000
  C   C565      1.0  0.30215  0.63244  0.80434  1.0000
  H   H439      1.0  0.39442  0.53244  0.76056  1.0000
  C   C566      1.0  0.01590  0.63134  0.75087  1.0000
  H   H440      1.0  0.14325  0.64212  0.51140  1.0000
  H   H441      1.0  0.03933  0.37921  0.86559  1.0000
  H   H442      1.0  0.01395  0.40464  0.64704  1.0000
  H   H443      1.0  0.31259  0.58040  0.76194  1.0000
  H   H444      1.0  0.29411  0.59073  0.80730  1.0000
  H   H445      1.0  0.29385  0.63680  0.82405  1.0000
  H   H446      1.0  0.36771  0.57400  0.76327  1.0000
  H   H447      1.0  0.20015  0.59979  0.82230  1.0000
  H   H448      1.0  0.37317  0.64645  0.94109  1.0000
  C   C567      1.0  0.10691  0.58191  0.68086  1.0000
  H   H449      1.0  0.04026  0.47301  0.55982  1.0000
  H   H450      1.0  0.34139  0.45767  0.83833  1.0000
  P   P19       1.0  0.05454  0.41704  0.56587  1.0000
  C   C568      1.0  0.04852  0.38232  0.57117  1.0000
  C   C569      1.0  0.06651  0.43203  0.59581  1.0000
  C   C570      1.0  0.09395  0.43460  0.59951  1.0000
  C   C571      1.0  0.10290  0.44598  0.62289  1.0000
  C   C572      1.0  0.08461  0.45481  0.64277  1.0000
  C   C573      1.0  0.05728  0.45242  0.63926  1.0000
  C   C574      1.0  0.04824  0.44121  0.61584  1.0000
  H   H451      1.0  0.39158  0.65321  0.99183  1.0000
  C   C575      1.0  0.32265  0.64646  0.76240  1.0000
  C   C576      1.0  0.10178  0.40214  0.53880  1.0000
  C   C577      1.0  0.47726  0.48630  0.86163  1.0000
  C   C578      1.0  0.04330  0.37256  0.59693  1.0000
  H   H452      1.0  0.28197  0.46958  0.58918  1.0000
  S   S83       1.0  0.02373  0.56009  0.69099  1.0000
  C   C579      1.0  0.07518  0.56481  0.59810  1.0000
  H   H453      1.0  0.11213  0.57006  0.64002  1.0000
  C   C580      1.0  0.04682  0.38940  0.82449  1.0000
  C   C581      1.0  0.27195  0.66542  0.71773  1.0000
  C   C582      1.0  0.02222  0.65064  0.76977  1.0000
  H   H454      1.0  0.41207  0.51279  0.80127  1.0000
  C   C583      1.0  0.17740  0.56795  0.55001  1.0000
  C   C584      1.0  0.45849  0.64642  0.99752  1.0000
  H   H455      1.0  0.10862  0.42809  0.58445  1.0000
  H   H456      1.0  0.28407  0.37225  0.99435  1.0000
  H   H457      1.0  0.00907  0.34947  0.71157  1.0000
  H   H458      1.0  0.09169  0.46404  0.66064  1.0000
  H   H459      1.0  0.04308  0.45985  0.65444  1.0000
  H   H460      1.0  0.02698  0.43984  0.61333  1.0000
  H   H461      1.0  0.40254  0.64956  0.90028  1.0000
  H   H462      1.0  0.12407  0.44823  0.62551  1.0000
  H   H463      1.0  0.48468  0.46909  0.87195  1.0000
  C   C585      1.0  0.06244  0.41462  0.86166  1.0000
  H   H464      1.0  0.13767  0.63916  0.91921  1.0000
  C   C586      1.0  0.04880  0.39298  0.85193  1.0000
  S   S84       1.0  0.17723  0.48290  0.52271  1.0000
  H   H465      1.0  0.10705  0.40616  0.76572  1.0000
  H   H466      1.0  0.34902  0.65153  0.83282  1.0000
  C   C587      1.0  0.16277  0.53708  0.86711  1.0000
  C   C588      1.0  0.17491  0.53537  0.84161  1.0000
  C   C589      1.0  0.19996  0.54626  0.83669  1.0000
  C   C590      1.0  0.21271  0.55940  0.85706  1.0000
  C   C591      1.0  0.20029  0.56194  0.88257  1.0000
  C   C592      1.0  0.17550  0.55012  0.88758  1.0000
  P   P20       1.0  0.21650  0.57866  0.90928  1.0000
  C   C593      1.0  0.22019  0.55509  0.93599  1.0000
  C   C594      1.0  0.24903  0.58895  0.89725  1.0000
  C   C595      1.0  0.27115  0.57184  0.89859  1.0000
  C   C596      1.0  0.29632  0.57988  0.88933  1.0000
  C   C597      1.0  0.29963  0.60508  0.87875  1.0000
  C   C598      1.0  0.27778  0.62244  0.87768  1.0000
  C   C599      1.0  0.25249  0.61430  0.88655  1.0000
  C   C600      1.0  0.21947  0.56321  0.96286  1.0000
  C   C601      1.0  0.22285  0.54474  0.98312  1.0000
  C   C602      1.0  0.22704  0.51807  0.97683  1.0000
  C   C603      1.0  0.22779  0.50981  0.95022  1.0000
  C   C604      1.0  0.22432  0.52818  0.92991  1.0000
  C   C605      1.0  0.19829  0.60785  0.92127  1.0000
  C   C606      1.0  0.17206  0.61325  0.91391  1.0000
  C   C607      1.0  0.15805  0.63528  0.92456  1.0000
  H   H467      1.0  0.49906  0.53591  0.82150  1.0000
  C   C608      1.0  0.06688  0.61615  0.66405  1.0000
  C   C609      1.0  0.21062  0.62562  0.93831  1.0000
  H   H468      1.0  0.14356  0.52817  0.87100  1.0000
  H   H469      1.0  0.16502  0.52552  0.82559  1.0000
  H   H470      1.0  0.20942  0.54463  0.81692  1.0000
  H   H471      1.0  0.23224  0.56740  0.85269  1.0000
  H   H472      1.0  0.16609  0.55094  0.90738  1.0000
  H   H473      1.0  0.26915  0.55249  0.90725  1.0000
  H   H474      1.0  0.31331  0.56668  0.89096  1.0000
  H   H475      1.0  0.31924  0.61125  0.87197  1.0000
  H   H476      1.0  0.28053  0.64245  0.87077  1.0000
  H   H477      1.0  0.23587  0.62808  0.88583  1.0000
  H   H478      1.0  0.21671  0.58368  0.96846  1.0000
  H   H479      1.0  0.12135  0.63709  0.71841  1.0000
  C   C610      1.0  0.03291  0.52664  0.81148  1.0000
  H   H480      1.0  0.23208  0.48928  0.94522  1.0000
  H   H481      1.0  0.22584  0.52136  0.90941  1.0000
  H   H482      1.0  0.16227  0.60055  0.90015  1.0000
  C   C611      1.0  0.43426  0.65635  0.98882  1.0000
  C   C612      1.0  0.16504  0.62390  0.76643  1.0000
  H   H483      1.0  0.30765  0.39324  0.58770  1.0000
  H   H484      1.0  0.23104  0.62237  0.94382  1.0000
  C   C613      1.0  0.14144  0.62371  0.75279  1.0000
  C   C614      1.0  0.39556  0.54342  0.82765  1.0000
  C   C615      1.0  0.38076  0.56724  0.82892  1.0000
  P   P21       1.0  0.40655  0.52737  0.85751  1.0000
  C   C616      1.0  0.38587  0.49931  0.86539  1.0000
  H   H485      1.0  0.50337  0.39250  0.00363  1.0000
  C   C617      1.0  0.44078  0.51647  0.85212  1.0000
  C   C618      1.0  0.37584  0.56574  0.78114  1.0000
  H   H486      1.0  0.21876  0.65632  0.67425  1.0000
  C   C619      1.0  0.08716  0.61826  0.82311  1.0000
  C   C620      1.0  0.27918  0.45737  0.57171  1.0000
  C   C621      1.0  0.38493  0.48942  0.89141  1.0000
  C   C622      1.0  0.36862  0.46823  0.89829  1.0000
  C   C623      1.0  0.35287  0.45683  0.87918  1.0000
  C   C624      1.0  0.37049  0.48727  0.84609  1.0000
  C   C625      1.0  0.40445  0.54972  0.88588  1.0000
  C   C626      1.0  0.37938  0.55802  0.89649  1.0000
  C   C627      1.0  0.37736  0.57466  0.91884  1.0000
  C   C628      1.0  0.40031  0.58262  0.93124  1.0000
  C   C629      1.0  0.42537  0.57432  0.92099  1.0000
  C   C630      1.0  0.42750  0.55801  0.89835  1.0000
  H   H487      1.0  0.37639  0.57725  0.84764  1.0000
  H   H488      1.0  0.43754  0.48201  0.87756  1.0000
  H   H489      1.0  0.13975  0.39179  0.51989  1.0000
  C   C631      1.0  0.18310  0.59118  0.62861  1.0000
  H   H490      1.0  0.14281  0.54390  0.55605  1.0000
  C   C632      1.0  0.34123  0.66214  0.87390  1.0000
  H   H491      1.0  0.39676  0.49823  0.90644  1.0000
  H   H492      1.0  0.36795  0.46092  0.91858  1.0000
  C   C633      1.0  0.09262  0.62045  0.59361  1.0000
  H   H493      1.0  0.36137  0.55124  0.88772  1.0000
  H   H494      1.0  0.35793  0.58058  0.92725  1.0000
  H   H495      1.0  0.39858  0.59470  0.94918  1.0000
  H   H496      1.0  0.46623  0.36631  0.98657  1.0000
  H   H497      1.0  0.44714  0.55153  0.89114  1.0000
  C   C634      1.0  0.35393  0.46623  0.85306  1.0000
  H   H498      1.0  0.33019  0.66151  0.74912  1.0000
  H   H499      1.0  0.32958  0.61592  0.73280  1.0000
  C   C635      1.0  0.10602  0.66428  0.79888  1.0000
  C   C636      1.0  0.18355  0.61691  0.61874  1.0000
  H   H500      1.0  0.07821  0.41656  0.68712  1.0000
  H   H501      1.0  0.08384  0.57683  0.55739  1.0000
  C   C637      1.0  0.09400  0.40874  0.72559  1.0000
  H   H502      1.0  0.34096  0.42313  0.53444  1.0000
  H   H503      1.0  0.43392  0.67282  0.97520  1.0000
  H   H504      1.0  0.07972  0.60047  0.83243  1.0000
  H   H505      1.0  0.47708  0.65496  0.99032  1.0000
  H   H506      1.0  0.26627  0.41576  0.50855  1.0000
  H   H507      1.0  0.12500  0.61185  0.76013  1.0000
  C   C638      1.0  0.27435  0.38098  0.61269  1.0000
  C   C639      1.0  0.29055  0.44634  0.52534  1.0000
  C   C640      1.0  0.17167  0.65910  0.84047  1.0000
  H   H508      1.0  0.09682  0.60456  0.51780  1.0000
  C   C641      1.0  0.32241  0.62048  0.75297  1.0000
  C   C642      1.0  0.45041  0.49377  0.86478  1.0000
  C   C643      1.0  0.16754  0.60804  0.67182  1.0000
  C   C644      1.0  0.03615  0.60613  0.60651  1.0000
  H   H509      1.0  0.16688  0.61181  0.78389  1.0000
  H   H510      1.0  0.02581  0.55041  0.57817  1.0000
  C   C645      1.0  0.13551  0.62979  0.57192  1.0000
  S   S85       1.0  0.27344  0.66954  0.94005  1.0000
  H   H511      1.0  0.46646  0.49155  0.99370  1.0000
  C   C646      1.0  0.45990  0.50976  0.00334  1.0000
  P   P22       1.0  0.07082  0.59796  0.61115  1.0000
  C   C647      1.0  0.22194  0.63457  0.83166  1.0000
  C   C648      1.0  0.17495  0.58675  0.65507  1.0000
  C   C649      1.0  0.18654  0.63869  0.75684  1.0000
  H   H512      1.0  0.44316  0.58011  0.93091  1.0000
  C   C650      1.0  0.40083  0.53124  0.80274  1.0000
  H   H513      1.0  0.04236  0.61622  0.56493  1.0000
  H   H514      1.0  0.10282  0.38984  0.71963  1.0000
  C   C651      1.0  0.19880  0.62011  0.82912  1.0000
  C   C652      1.0  0.02371  0.43378  0.55819  1.0000
  H   H515      1.0  0.23920  0.40904  0.54969  1.0000
  C   C653      1.0  0.29504  0.46104  0.54853  1.0000
  C   C654      1.0  0.33802  0.66470  0.84650  1.0000
  C   C655      1.0  0.08443  0.64667  0.58937  1.0000
  C   C656      1.0  0.39833  0.66698  0.91245  1.0000
  H   H516      1.0  0.15524  0.62319  0.56509  1.0000
  C   C657      1.0  0.08017  0.42378  0.70727  1.0000
  H   H517      1.0  0.19058  0.62033  0.59842  1.0000
  H   H518      1.0  0.34627  0.64021  0.99577  1.0000
  C   C658      1.0  0.29378  0.65927  0.70048  1.0000
  C   C659      1.0  0.47037  0.53369  0.99466  1.0000
  H   H519      1.0  0.03094  0.39382  0.74396  1.0000
  H   H520      1.0  0.15637  0.62044  0.83103  1.0000
  H   H521      1.0  0.30903  0.41309  0.98436  1.0000
  C   C660      1.0  0.25501  0.42336  0.54942  1.0000
  H   H522      1.0  0.18740  0.55986  0.56693  1.0000
  C   C661      1.0  0.13983  0.56844  0.52137  1.0000
  H   H523      1.0  0.06478  0.65358  0.59620  1.0000
  H   H524      1.0  0.41949  0.45428  0.52281  1.0000
  C   C662      1.0  0.07961  0.41946  0.53918  1.0000
  P   P23       1.0  0.16125  0.66205  0.68418  1.0000
  C   C663      1.0  0.02170  0.50186  0.80776  1.0000
  H   H525      1.0  0.17672  0.65813  0.62753  1.0000
  C   C664      1.0  0.25911  0.43861  0.57211  1.0000
  C   C665      1.0  0.11527  0.65692  0.82388  1.0000
  C   C666      1.0  0.15223  0.55899  0.54391  1.0000
  C   C667      1.0  0.07822  0.43911  0.51964  1.0000
  H   H526      1.0  0.31033  0.47587  0.54853  1.0000
  C   C668      1.0  0.10170  0.66430  0.57649  1.0000
  H   H527      1.0  0.02214  0.59402  0.64584  1.0000
  H   H528      1.0  0.03559  0.37305  0.81684  1.0000
  C   C669      1.0  0.27055  0.42723  0.52606  1.0000
  H   H529      1.0  0.12082  0.56050  0.51644  1.0000
  C   C670      1.0  0.41039  0.64526  0.99806  1.0000
  H   H530      1.0  0.14062  0.66957  0.55786  1.0000
  H   H531      1.0  0.28569  0.50201  0.51686  1.0000
  H   H532      1.0  0.23059  0.50393  0.99252  1.0000
  H   H533      1.0  0.01171  0.54042  0.62511  1.0000
  H   H534      1.0  0.47024  0.57553  0.00007  1.0000
  H   H535      1.0  0.38813  0.42421  0.54640  1.0000
  C   C671      1.0  0.12236  0.40471  0.51955  1.0000
  C   C672      1.0  0.01460  0.37618  0.67864  1.0000
  H   H536      1.0  0.24135  0.36344  0.63440  1.0000
  S   S86       1.0  0.01269  0.59799  0.76123  1.0000
  C   C673      1.0  0.17798  0.59556  0.51076  1.0000
  C   C674      1.0  0.25565  0.36131  0.61774  1.0000
  C   C675      1.0  0.12722  0.65586  0.56774  1.0000
  S   S87       1.0  0.50341  0.48271  0.92516  1.0000
  C   C676      1.0  0.38194  0.66515  0.93549  1.0000
  C   C677      1.0  0.01675  0.60197  0.62689  1.0000
  H   H537      1.0  0.15917  0.66876  0.95127  1.0000
  S   S88       1.0  0.00836  0.49636  0.69217  1.0000
  C   C678      1.0  0.19514  0.67340  0.84360  1.0000
  Fe  Fe40      1.0  0.30319  0.49843  0.00507  1.0000
  H   H538      1.0  0.22291  0.55116  0.00376  1.0000
  Fe  Fe41      1.0  0.00804  0.56254  0.73346  1.0000
  C   C679      1.0  0.01246  0.63905  0.72450  1.0000
  H   H539      1.0  0.01260  0.67155  0.69680  1.0000
  C   C680      1.0  0.30476  0.40745  0.00485  1.0000
  H   H540      1.0  0.00725  0.62451  0.70981  1.0000
  H   H541      1.0  0.23813  0.67226  0.84139  1.0000
  H   H542      1.0  0.07502  0.67329  0.64044  1.0000
  C   C681      1.0  0.46312  0.37818  0.00448  1.0000
  C   C682      1.0  0.38795  0.72882  0.01555  1.0000
  Fe  Fe42      1.0  0.04618  0.82853  0.02802  1.0000
  S   S89       1.0  0.04973  0.78653  0.04209  1.0000
  S   S90       1.0  0.05024  0.86163  0.05800  1.0000
  H   H543      1.0  0.45014  0.71752  0.22042  1.0000
  H   H544      1.0  0.41285  0.96484  0.32806  1.0000
  H   H545      1.0  0.27829  0.85549  0.06261  1.0000
  H   H546      1.0  0.14712  0.96300  0.04210  1.0000
  P   P24       1.0  0.50432  0.76750  0.15468  1.0000
  C   C683      1.0  0.49748  0.73925  0.17540  1.0000
  S   S91       1.0  0.48705  0.94550  0.30493  1.0000
  S   S92       1.0  0.47399  0.92912  0.37963  1.0000
  H   H547      1.0  0.14559  0.67801  0.41963  1.0000
  H   H548      1.0  0.50271  0.86463  0.16498  1.0000
  C   C684      1.0  0.48187  0.74400  0.11111  1.0000
  C   C685      1.0  0.21885  0.84583  0.03419  1.0000
  C   C686      1.0  0.02628  0.71068  0.02364  1.0000
  H   H549      1.0  0.00850  0.96735  0.08351  1.0000
  C   C687      1.0  0.05215  0.70527  0.01362  1.0000
  C   C688      1.0  0.14671  0.94514  0.05390  1.0000
  H   H550      1.0  0.49765  0.72922  0.11234  1.0000
  H   H551      1.0  0.12814  0.79722  0.00665  1.0000
  H   H552      1.0  0.45671  0.79981  0.14187  1.0000
  C   C689      1.0  0.50284  0.98815  0.43497  1.0000
  C   C690      1.0  0.48546  0.69561  0.20764  1.0000
  H   H553      1.0  0.02312  0.71965  0.04320  1.0000
  H   H554      1.0  0.36918  0.00045  0.27757  1.0000
  Fe  Fe43      1.0  0.01008  0.78109  0.02356  1.0000
  H   H555      1.0  0.14450  0.88158  0.09651  1.0000
  C   C691      1.0  0.14798  0.68699  0.46147  1.0000
  C   C692      1.0  0.14986  0.83980  0.05859  1.0000
  C   C693      1.0  0.46800  0.71734  0.20759  1.0000
  C   C694      1.0  0.47276  0.92421  0.43373  1.0000
  C   C695      1.0  0.48425  0.92086  0.45850  1.0000
  S   S93       1.0  0.22360  0.77613  0.00924  1.0000
  H   H556      1.0  0.46560  0.72595  0.07650  1.0000
  H   H557      1.0  0.45133  0.92588  0.43265  1.0000
  C   C696      1.0  0.08295  0.92078  0.01392  1.0000
  C   C697      1.0  0.08173  0.94221  0.03184  1.0000
  H   H558      1.0  0.43017  0.98011  0.40950  1.0000
  C   C698      1.0  0.07282  0.89610  0.02151  1.0000
  C   C699      1.0  0.06246  0.89245  0.04745  1.0000
  C   C700      1.0  0.06207  0.91364  0.06562  1.0000
  C   C701      1.0  0.07114  0.93861  0.05769  1.0000
  C   C702      1.0  0.44080  0.78157  0.10743  1.0000
  H   H559      1.0  0.16344  0.92094  0.02221  1.0000
  H   H560      1.0  0.05448  0.91085  0.08584  1.0000
  H   H561      1.0  0.07044  0.95495  0.07170  1.0000
  H   H562      1.0  0.41500  0.98787  0.26115  1.0000
  H   H563      1.0  0.41764  0.94927  0.37434  1.0000
  C   C703      1.0  0.50040  0.84536  0.20307  1.0000
  H   H564      1.0  0.12741  0.92390  0.11564  1.0000
  S   S94       1.0  0.00560  0.82342  0.01198  1.0000
  H   H565      1.0  0.18464  0.81390  0.06097  1.0000
  C   C704      1.0  0.44344  0.73744  0.01740  1.0000
  H   H566      1.0  0.42934  0.75927  0.07302  1.0000
  C   C705      1.0  0.47382  0.73896  0.19132  1.0000
  H   H567      1.0  0.46911  0.99639  0.49438  1.0000
  H   H568      1.0  0.46006  0.75566  0.19143  1.0000
  Fe  Fe44      1.0  0.50406  0.98659  0.30502  1.0000
  C   C706      1.0  0.44321  0.76079  0.08896  1.0000
  C   C707      1.0  0.16126  0.86762  0.00814  1.0000
  C   C708      1.0  0.48009  0.76526  0.12923  1.0000
  C   C709      1.0  0.47430  0.99890  0.47341  1.0000
  H   H569      1.0  0.39679  0.69185  0.03462  1.0000
  H   H570      1.0  0.01062  0.87195  0.10534  1.0000
  C   C710      1.0  0.15577  0.92116  0.04265  1.0000
  C   C711      1.0  0.42004  0.97001  0.36972  1.0000
  H   H571      1.0  0.50020  0.86364  0.21450  1.0000
  H   H572      1.0  0.06909  0.70999  0.02539  1.0000
  C   C712      1.0  0.25734  0.85807  0.05869  1.0000
  C   C713      1.0  0.48648  0.00333  0.41895  1.0000
  H   H573      1.0  0.11126  0.85978  0.05987  1.0000
  C   C714      1.0  0.13548  0.92309  0.09532  1.0000
  C   C715      1.0  0.49980  0.82119  0.21630  1.0000
  C   C716      1.0  0.16337  0.81620  0.06470  1.0000
  H   H574      1.0  0.50418  0.82287  0.13902  1.0000
  C   C717      1.0  0.50259  0.82222  0.16059  1.0000
  C   C718      1.0  0.46364  0.74195  0.09093  1.0000
  C   C719      1.0  0.41735  0.97878  0.34363  1.0000
  H   H575      1.0  0.11082  0.77974  0.08705  1.0000
  H   H576      1.0  0.25783  0.82795  0.02809  1.0000
  C   C720      1.0  0.14931  0.79463  0.07484  1.0000
  C   C721      1.0  0.24590  0.84269  0.03915  1.0000
  H   H577      1.0  0.15031  0.70801  0.45836  1.0000
  H   H578      1.0  0.50175  0.77916  0.21266  1.0000
  C   C722      1.0  0.14493  0.89911  0.08428  1.0000
  H   H579      1.0  0.15980  0.77623  0.07860  1.0000
  C   C723      1.0  0.10826  0.82020  0.07433  1.0000
  C   C724      1.0  0.21453  0.87953  0.06860  1.0000
  C   C725      1.0  0.20285  0.86413  0.04898  1.0000
  C   C726      1.0  0.14730  0.67681  0.48730  1.0000
  H   H580      1.0  0.20277  0.89374  0.08041  1.0000
  C   C727      1.0  0.45909  0.78377  0.12763  1.0000
  C   C728      1.0  0.48889  0.92545  0.41039  1.0000
  C   C729      1.0  0.42637  0.75643  0.00651  1.0000
  C   C730      1.0  0.50165  0.79786  0.17377  1.0000
  H   H581      1.0  0.42479  0.79601  0.10597  1.0000
  S   S95       1.0  0.09448  0.97289  0.02154  1.0000
  H   H582      1.0  0.47164  0.91989  0.47637  1.0000
  H   H583      1.0  0.44558  0.69913  0.03555  1.0000
  H   H584      1.0  0.01389  0.84806  0.14799  1.0000
  P   P25       1.0  0.16752  0.86715  0.04343  1.0000
  C   C731      1.0  0.13628  0.94608  0.08009  1.0000
  H   H585      1.0  0.07325  0.87990  0.00739  1.0000
  C   C732      1.0  0.15462  0.89787  0.05764  1.0000
  C   C733      1.0  0.40505  0.70979  0.02640  1.0000
  C   C734      1.0  0.12174  0.79657  0.07952  1.0000
  C   C735      1.0  0.42130  0.00534  0.33755  1.0000
  C   C736      1.0  0.12221  0.84172  0.06393  1.0000
  C   C737      1.0  0.43271  0.71389  0.02701  1.0000
  H   H586      1.0  0.08690  0.82181  0.07810  1.0000
  C   C738      1.0  0.49696  0.98620  0.46226  1.0000
  H   H587      1.0  0.17549  0.80770  0.01165  1.0000
  H   H588      1.0  0.12860  0.96464  0.08841  1.0000
  H   H589      1.0  0.49083  0.00353  0.39776  1.0000
  Fe  Fe45      1.0  0.50159  0.94282  0.34649  1.0000
  S   S96       1.0  0.47765  0.74477  0.01983  1.0000
  H   H590      1.0  0.11948  0.85787  0.01310  1.0000
  C   C739      1.0  0.50187  0.84588  0.17521  1.0000
  H   H591      1.0  0.25057  0.88843  0.08853  1.0000
  H   H592      1.0  0.21046  0.83363  0.01903  1.0000
  H   H593      1.0  0.49908  0.82079  0.23793  1.0000
  C   C740      1.0  0.50092  0.79753  0.20179  1.0000
  C   C741      1.0  0.42735  0.98759  0.38961  1.0000
  S   S97       1.0  0.35312  0.72334  0.01698  1.0000
  C   C742      1.0  0.24170  0.87655  0.07332  1.0000
  H   H594      1.0  0.14901  0.68998  0.50420  1.0000
  H   H595      1.0  0.48144  0.67900  0.22066  1.0000
  H   H596      1.0  0.00599  0.91900  0.07542  1.0000
  Fe  Fe46      1.0  0.46460  0.90956  0.57443  1.0000
  H   H597      1.0  0.07008  0.92228  0.86885  1.0000
  S   S98       1.0  0.44526  0.87261  0.59194  1.0000
  Fe  Fe47      1.0  0.45840  0.96407  0.54930  1.0000
  H   H598      1.0  0.02130  0.87928  0.91684  1.0000
  C   C743      1.0  0.18140  0.87479  0.98944  1.0000
  H   H599      1.0  0.13111  0.86636  0.71288  1.0000
  C   C744      1.0  0.26080  0.74638  0.79521  1.0000
  S   S99       1.0  0.45638  0.92280  0.53269  1.0000
  S   S100      1.0  0.46308  0.95067  0.59142  1.0000
  Fe  Fe48      1.0  0.33433  0.79134  0.75769  1.0000
  S   S101      1.0  0.35816  0.78633  0.71904  1.0000
  S   S102      1.0  0.35153  0.77450  0.79502  1.0000
  Fe  Fe49      1.0  0.28608  0.81383  0.73002  1.0000
  S   S103      1.0  0.30581  0.81006  0.68922  1.0000
  S   S104      1.0  0.24534  0.83285  0.73723  1.0000
  Fe  Fe50      1.0  0.32007  0.77038  0.70363  1.0000
  S   S105      1.0  0.32117  0.73205  0.67997  1.0000
  Fe  Fe51      1.0  0.34213  0.82633  0.70815  1.0000
  S   S106      1.0  0.36511  0.86225  0.69318  1.0000
  S   S107      1.0  0.29744  0.77307  0.74291  1.0000
  S   S108      1.0  0.32121  0.83266  0.74838  1.0000
  Fe  Fe52      1.0  0.05570  0.80914  0.76026  1.0000
  S   S109      1.0  0.09365  0.80188  0.78182  1.0000
  S   S110      1.0  0.03810  0.84952  0.74978  1.0000
  Fe  Fe53      1.0  0.04771  0.74935  0.74932  1.0000
  S   S111      1.0  0.08447  0.73834  0.77057  1.0000
  S   S112      1.0  0.02551  0.71837  0.72606  1.0000
  Fe  Fe54      1.0  0.07045  0.76880  0.80071  1.0000
  S   S113      1.0  0.07339  0.75717  0.84349  1.0000
  Fe  Fe55      1.0  0.10405  0.77214  0.74932  1.0000
  S   S114      1.0  0.14365  0.76122  0.72851  1.0000
  S   S115      1.0  0.03182  0.77759  0.78133  1.0000
  S   S116      1.0  0.06801  0.78171  0.72610  1.0000
  Fe  Fe56      1.0  0.02770  0.81148  0.97399  1.0000
  H   H600      1.0  0.41986  0.91199  0.62818  1.0000
  H   H601      1.0  0.38582  0.76703  0.99730  1.0000
  H   H602      1.0  0.29377  0.71658  0.84831  1.0000
  Fe  Fe57      1.0  0.31998  0.73853  0.99096  1.0000
  S   S117      1.0  0.32203  0.72852  0.94721  1.0000
  C   C745      1.0  0.38084  0.94190  0.58640  1.0000
  H   H603      1.0  0.01882  0.99414  0.94446  1.0000
  S   S118      1.0  0.25896  0.74555  0.94633  1.0000
  H   H604      1.0  0.39024  0.78176  0.88010  1.0000
  Fe  Fe58      1.0  0.28275  0.70961  0.95603  1.0000
  H   H605      1.0  0.22976  0.68340  0.90620  1.0000
  Fe  Fe59      1.0  0.29796  0.76578  0.94191  1.0000
  S   S119      1.0  0.29871  0.79673  0.90963  1.0000
  C   C746      1.0  0.29892  0.89348  0.55716  1.0000
  S   S120      1.0  0.29882  0.77777  0.98516  1.0000
  C   C747      1.0  0.04483  0.92820  0.95565  1.0000
  C   C748      1.0  0.38850  0.71154  0.94462  1.0000
  H   H606      1.0  0.38489  0.72825  0.95784  1.0000
  C   C749      1.0  0.36054  0.72158  0.74362  1.0000
  C   C750      1.0  0.41283  0.89282  0.72825  1.0000
  C   C751      1.0  0.40944  0.69121  0.90523  1.0000
  S   S121      1.0  0.00775  0.97049  0.77498  1.0000
  H   H607      1.0  0.47121  0.76756  0.89366  1.0000
  H   H608      1.0  0.47491  0.99450  0.70578  1.0000
  H   H609      1.0  0.30813  0.91195  0.56205  1.0000
  C   C752      1.0  0.12860  0.67645  0.67989  1.0000
  C   C753      1.0  0.02965  0.92103  0.78963  1.0000
  H   H610      1.0  0.11058  0.75692  0.89292  1.0000
  C   C754      1.0  0.05585  0.77659  0.86743  1.0000
  C   C755      1.0  0.05590  0.76831  0.89384  1.0000
  C   C756      1.0  0.04419  0.78404  0.91409  1.0000
  C   C757      1.0  0.03121  0.80765  0.90813  1.0000
  C   C758      1.0  0.03045  0.81581  0.88153  1.0000
  C   C759      1.0  0.04297  0.80034  0.86108  1.0000
  H   H611      1.0  0.06516  0.74969  0.89880  1.0000
  H   H612      1.0  0.04501  0.77755  0.93429  1.0000
  C   C760      1.0  0.17036  0.78816  0.00538  1.0000
  H   H613      1.0  0.04286  0.80683  0.84060  1.0000
  C   C761      1.0  0.02251  0.68489  0.73598  1.0000
  H   H614      1.0  0.47100  0.88357  0.69257  1.0000
  H   H615      1.0  0.42220  0.69206  0.88746  1.0000
  C   C762      1.0  0.43435  0.96431  0.65509  1.0000
  H   H616      1.0  0.40836  0.71460  0.78911  1.0000
  Fe  Fe60      1.0  0.50074  0.92588  0.52664  1.0000
  C   C763      1.0  0.03148  0.88310  0.75887  1.0000
  H   H617      1.0  0.03796  0.68213  0.95223  1.0000
  H   H618      1.0  0.43587  0.85840  0.71594  1.0000
  C   C764      1.0  0.33887  0.71175  0.75850  1.0000
  H   H619      1.0  0.03329  0.92941  0.80895  1.0000
  C   C765      1.0  0.03704  0.89430  0.78371  1.0000
  H   H620      1.0  0.35785  0.72836  0.72348  1.0000
  C   C766      1.0  0.50419  0.99428  0.73569  1.0000
  H   H621      1.0  0.19871  0.72874  0.98847  1.0000
  H   H622      1.0  0.45218  0.72207  0.86781  1.0000
  C   C767      1.0  0.33464  0.77959  0.82605  1.0000
  C   C768      1.0  0.33870  0.76159  0.84671  1.0000
  C   C769      1.0  0.32705  0.76617  0.87227  1.0000
  C   C770      1.0  0.31176  0.78908  0.87739  1.0000
  C   C771      1.0  0.30741  0.80688  0.85663  1.0000
  C   C772      1.0  0.31849  0.80196  0.83090  1.0000
  H   H623      1.0  0.35121  0.74425  0.84300  1.0000
  H   H624      1.0  0.33053  0.75239  0.88814  1.0000
  H   H625      1.0  0.29584  0.82478  0.86059  1.0000
  H   H626      1.0  0.31550  0.81601  0.81511  1.0000
  C   C773      1.0  0.21733  0.81255  0.73502  1.0000
  C   C774      1.0  0.22001  0.78585  0.72807  1.0000
  C   C775      1.0  0.19725  0.77027  0.72643  1.0000
  C   C776      1.0  0.17171  0.78127  0.73159  1.0000
  C   C777      1.0  0.16907  0.80776  0.73941  1.0000
  C   C778      1.0  0.19186  0.82334  0.74101  1.0000
  H   H627      1.0  0.23958  0.77723  0.72378  1.0000
  H   H628      1.0  0.19948  0.74957  0.72130  1.0000
  H   H629      1.0  0.14948  0.81628  0.74376  1.0000
  H   H630      1.0  0.18985  0.84383  0.74692  1.0000
  C   C779      1.0  0.30204  0.70638  0.69422  1.0000
  C   C780      1.0  0.27980  0.71230  0.71088  1.0000
  P   P26       1.0  0.13976  0.67637  0.84040  1.0000
  H   H631      1.0  0.27355  0.73257  0.71426  1.0000
  H   H632      1.0  0.19175  0.88197  0.94813  1.0000
  C   C781      1.0  0.42352  0.87026  0.62059  1.0000
  C   C782      1.0  0.41552  0.84516  0.62925  1.0000
  C   C783      1.0  0.39802  0.84234  0.65167  1.0000
  C   C784      1.0  0.38789  0.86465  0.66536  1.0000
  C   C785      1.0  0.39612  0.88977  0.65690  1.0000
  C   C786      1.0  0.41388  0.89259  0.63467  1.0000
  H   H633      1.0  0.42290  0.82775  0.61855  1.0000
  H   H634      1.0  0.39235  0.82290  0.65834  1.0000
  H   H635      1.0  0.38858  0.90715  0.66752  1.0000
  C   C787      1.0  0.23556  0.71865  0.88299  1.0000
  C   C788      1.0  0.22418  0.70401  0.90384  1.0000
  C   C789      1.0  0.20639  0.71623  0.92230  1.0000
  C   C790      1.0  0.19974  0.74298  0.91975  1.0000
  C   C791      1.0  0.21090  0.75786  0.89867  1.0000
  C   C792      1.0  0.22905  0.74544  0.88037  1.0000
  P   P27       1.0  0.20075  0.79212  0.89502  1.0000
  C   C793      1.0  0.16585  0.79235  0.90488  1.0000
  C   C794      1.0  0.21866  0.81384  0.91649  1.0000
  C   C795      1.0  0.22530  0.83939  0.90801  1.0000
  C   C796      1.0  0.23985  0.85595  0.92417  1.0000
  C   C797      1.0  0.24733  0.84739  0.94920  1.0000
  C   C798      1.0  0.23988  0.82246  0.95820  1.0000
  C   C799      1.0  0.22538  0.80582  0.94206  1.0000
  C   C800      1.0  0.15650  0.80581  0.92805  1.0000
  C   C801      1.0  0.13074  0.80147  0.93850  1.0000
  C   C802      1.0  0.12319  0.77082  0.90261  1.0000
  C   C803      1.0  0.14895  0.77487  0.89225  1.0000
  C   C804      1.0  0.20692  0.80210  0.86083  1.0000
  C   C805      1.0  0.18604  0.80610  0.84339  1.0000
  C   C806      1.0  0.19160  0.81399  0.81712  1.0000
  C   C807      1.0  0.21787  0.81841  0.80832  1.0000
  C   C808      1.0  0.23870  0.81464  0.82553  1.0000
  C   C809      1.0  0.23327  0.80654  0.85167  1.0000
  H   H636      1.0  0.24985  0.70935  0.86911  1.0000
  C   C810      1.0  0.39879  0.75208  0.00533  1.0000
  H   H637      1.0  0.19846  0.70525  0.93915  1.0000
  H   H638      1.0  0.18621  0.75212  0.93456  1.0000
  H   H639      1.0  0.23841  0.75616  0.86412  1.0000
  H   H640      1.0  0.21953  0.84650  0.88883  1.0000
  C   C811      1.0  0.41965  0.78988  0.94572  1.0000
  H   H641      1.0  0.25906  0.85992  0.96158  1.0000
  H   H642      1.0  0.24580  0.81582  0.97756  1.0000
  H   H643      1.0  0.21951  0.78675  0.94960  1.0000
  H   H644      1.0  0.16938  0.81846  0.93900  1.0000
  C   C812      1.0  0.48842  0.90055  0.64510  1.0000
  H   H645      1.0  0.15618  0.76335  0.87516  1.0000
  H   H646      1.0  0.16553  0.80351  0.84993  1.0000
  H   H647      1.0  0.17559  0.81696  0.80353  1.0000
  H   H648      1.0  0.22218  0.82496  0.78821  1.0000
  H   H649      1.0  0.25908  0.81798  0.81852  1.0000
  H   H650      1.0  0.24967  0.80370  0.86485  1.0000
  C   C813      1.0  0.13626  0.75715  0.99393  1.0000
  C   C814      1.0  0.14582  0.70634  0.82210  1.0000
  C   C815      1.0  0.13561  0.86278  0.99925  1.0000
  H   H651      1.0  0.03091  0.69174  0.77707  1.0000
  C   C816      1.0  0.13626  0.73079  0.83206  1.0000
  C   C817      1.0  0.14177  0.75396  0.81817  1.0000
  C   C818      1.0  0.15687  0.75290  0.79429  1.0000
  C   C819      1.0  0.16596  0.72859  0.78387  1.0000
  C   C820      1.0  0.46131  0.96570  0.66143  1.0000
  C   C821      1.0  0.30970  0.69808  0.88240  1.0000
  H   H652      1.0  0.38021  0.87551  0.57776  1.0000
  C   C822      1.0  0.23717  0.70585  0.78818  1.0000
  H   H653      1.0  0.08407  0.71871  0.71169  1.0000
  H   H654      1.0  0.42205  0.76500  0.80161  1.0000
  C   C823      1.0  0.48665  0.72319  0.95396  1.0000
  C   C824      1.0  0.46044  0.72583  0.94590  1.0000
  H   H655      1.0  0.32890  0.67636  0.91314  1.0000
  H   H656      1.0  0.12413  0.73212  0.85028  1.0000
  H   H657      1.0  0.13367  0.77263  0.82558  1.0000
  H   H658      1.0  0.16084  0.77089  0.78349  1.0000
  H   H659      1.0  0.12958  0.70065  0.71565  1.0000
  H   H660      1.0  0.34284  0.79884  0.94472  1.0000
  C   C825      1.0  0.22747  0.72201  0.66491  1.0000
  C   C826      1.0  0.45172  0.92179  0.69994  1.0000
  H   H661      1.0  0.40870  0.91338  0.56896  1.0000
  P   P28       1.0  0.31495  0.68579  0.80151  1.0000
  H   H662      1.0  0.16097  0.72066  0.67947  1.0000
  H   H663      1.0  0.06241  0.90440  0.92373  1.0000
  S   S122      1.0  0.06821  0.82047  0.98878  1.0000
  H   H664      1.0  0.36494  0.76161  0.92031  1.0000
  C   C827      1.0  0.40464  0.77169  0.93164  1.0000
  C   C828      1.0  0.13176  0.87265  0.73352  1.0000
  C   C829      1.0  0.15409  0.88551  0.74254  1.0000
  C   C830      1.0  0.40696  0.81090  0.95961  1.0000
  H   H665      1.0  0.36943  0.83027  0.97017  1.0000
  C   C831      1.0  0.08718  0.67925  0.65662  1.0000
  H   H666      1.0  0.17082  0.88919  0.72883  1.0000
  C   C832      1.0  0.15641  0.73805  0.98827  1.0000
  C   C833      1.0  0.50555  0.88464  0.62903  1.0000
  C   C834      1.0  0.04424  0.89200  0.85497  1.0000
  Fe  Fe61      1.0  0.06850  0.77792  0.00140  1.0000
  C   C835      1.0  0.36747  0.70321  0.79531  1.0000
  H   H667      1.0  0.37618  0.79631  0.55923  1.0000
  C   C836      1.0  0.43851  0.73673  0.86030  1.0000
  H   H668      1.0  0.26106  0.76776  0.79610  1.0000
  C   C837      1.0  0.04467  0.90851  0.93608  1.0000
  C   C838      1.0  0.01737  0.93669  0.77040  1.0000
  C   C839      1.0  0.11026  0.86774  0.75116  1.0000
  C   C840      1.0  0.26490  0.69196  0.72254  1.0000
  C   C841      1.0  0.20120  0.73097  0.66946  1.0000
  H   H669      1.0  0.19652  0.75192  0.66873  1.0000
  C   C842      1.0  0.02595  0.67716  0.76232  1.0000
  H   H670      1.0  0.02051  0.83414  0.87686  1.0000
  C   C843      1.0  0.02886  0.93395  0.87373  1.0000
  H   H671      1.0  0.42840  0.95613  0.71313  1.0000
  H   H672      1.0  0.09932  0.71555  0.94089  1.0000
  H   H673      1.0  0.17675  0.72777  0.76472  1.0000
  H   H674      1.0  0.37064  0.69628  0.81523  1.0000
  H   H675      1.0  0.24568  0.87527  0.91716  1.0000
  C   C844      1.0  0.50151  0.75218  0.91846  1.0000
  H   H676      1.0  0.05659  0.70496  0.67453  1.0000
  H   H677      1.0  0.06826  0.69940  0.90740  1.0000
  C   C845      1.0  0.47533  0.75474  0.91022  1.0000
  H   H678      1.0  0.14639  0.87310  0.93282  1.0000
  C   C846      1.0  0.04972  0.91659  0.86611  1.0000
  H   H679      1.0  0.24742  0.69689  0.73488  1.0000
  H   H680      1.0  0.21924  0.74489  0.78694  1.0000
  C   C847      1.0  0.38923  0.91650  0.57864  1.0000
  C   C848      1.0  0.16057  0.70535  0.79775  1.0000
  C   C849      1.0  0.01903  0.89887  0.74011  1.0000
  H   H681      1.0  0.36451  0.68622  0.96956  1.0000
  H   H682      1.0  0.06611  0.96566  0.79954  1.0000
  Fe  Fe62      1.0  0.26020  0.75572  0.98950  1.0000
  C   C850      1.0  0.01223  0.92529  0.74573  1.0000
  H   H683      1.0  0.06034  0.87846  0.84903  1.0000
  H   H684      1.0  0.30259  0.74222  0.80176  1.0000
  C   C851      1.0  0.41076  0.92033  0.72741  1.0000
  C   C852      1.0  0.23722  0.73342  0.79008  1.0000
  C   C853      1.0  0.21218  0.88589  0.84120  1.0000
  C   C854      1.0  0.22363  0.91049  0.83670  1.0000
  C   C855      1.0  0.20790  0.93172  0.82850  1.0000
  C   C856      1.0  0.18073  0.92834  0.82468  1.0000
  C   C857      1.0  0.16897  0.90377  0.82962  1.0000
  C   C858      1.0  0.18493  0.88253  0.83777  1.0000
  P   P29       1.0  0.13466  0.89845  0.82183  1.0000
  C   C859      1.0  0.13360  0.88815  0.78726  1.0000
  C   C860      1.0  0.12139  0.87354  0.84425  1.0000
  C   C861      1.0  0.11925  0.84717  0.83575  1.0000
  C   C862      1.0  0.10800  0.82831  0.85285  1.0000
  C   C863      1.0  0.09951  0.83538  0.87876  1.0000
  C   C864      1.0  0.10260  0.86122  0.88780  1.0000
  C   C865      1.0  0.11360  0.88021  0.87069  1.0000
  C   C866      1.0  0.15510  0.89315  0.76929  1.0000
  C   C867      1.0  0.35588  0.94576  0.59929  1.0000
  H   H685      1.0  0.49749  0.86879  0.61734  1.0000
  H   H686      1.0  0.41861  0.82458  0.97081  1.0000
  C   C868      1.0  0.11103  0.87559  0.77786  1.0000
  C   C869      1.0  0.11548  0.92883  0.82705  1.0000
  C   C870      1.0  0.09579  0.93633  0.80930  1.0000
  C   C871      1.0  0.12017  0.94536  0.84895  1.0000
  H   H687      1.0  0.22458  0.86929  0.84678  1.0000
  H   H688      1.0  0.24481  0.91299  0.83913  1.0000
  H   H689      1.0  0.21690  0.95069  0.82459  1.0000
  H   H690      1.0  0.16909  0.94475  0.81732  1.0000
  H   H691      1.0  0.17649  0.86326  0.84094  1.0000
  H   H692      1.0  0.12603  0.84106  0.81590  1.0000
  H   H693      1.0  0.10541  0.80822  0.84595  1.0000
  H   H694      1.0  0.09036  0.82084  0.89179  1.0000
  H   H695      1.0  0.09609  0.86650  0.90800  1.0000
  H   H696      1.0  0.11575  0.90006  0.87818  1.0000
  H   H697      1.0  0.17276  0.90289  0.77568  1.0000
  C   C872      1.0  0.45416  0.89418  0.70176  1.0000
  C   C873      1.0  0.30880  0.67978  0.68872  1.0000
  H   H698      1.0  0.44108  0.78778  0.94643  1.0000
  H   H699      1.0  0.09397  0.87181  0.79107  1.0000
  H   H700      1.0  0.09159  0.92427  0.79218  1.0000
  H   H701      1.0  0.13539  0.94031  0.86280  1.0000
  H   H702      1.0  0.31964  0.71101  0.74956  1.0000
  C   C874      1.0  0.45466  0.74119  0.92363  1.0000
  P   P30       1.0  0.42077  0.74459  0.91331  1.0000
  C   C875      1.0  0.40402  0.77032  0.86743  1.0000
  C   C876      1.0  0.13026  0.86488  0.97222  1.0000
  H   H703      1.0  0.08560  0.68198  0.86417  1.0000
  S   S123      1.0  0.42970  0.99595  0.53654  1.0000
  C   C877      1.0  0.43897  0.74178  0.83291  1.0000
  C   C878      1.0  0.11425  0.78372  0.92604  1.0000
  C   C879      1.0  0.33928  0.92423  0.60419  1.0000
  C   C880      1.0  0.34765  0.89856  0.59650  1.0000
  C   C881      1.0  0.37282  0.89491  0.58368  1.0000
  P   P31       1.0  0.32485  0.87135  0.60027  1.0000
  C   C882      1.0  0.34247  0.83990  0.60092  1.0000
  C   C883      1.0  0.30494  0.87492  0.63094  1.0000
  C   C884      1.0  0.31616  0.88578  0.65361  1.0000
  C   C885      1.0  0.30189  0.88625  0.67810  1.0000
  C   C886      1.0  0.27631  0.87586  0.68020  1.0000
  C   C887      1.0  0.26489  0.86517  0.65773  1.0000
  C   C888      1.0  0.27912  0.86465  0.63317  1.0000
  C   C889      1.0  0.35431  0.82920  0.57733  1.0000
  C   C890      1.0  0.36669  0.80425  0.57738  1.0000
  C   C891      1.0  0.36686  0.78954  0.60083  1.0000
  C   C892      1.0  0.35484  0.79986  0.62428  1.0000
  C   C893      1.0  0.34299  0.82505  0.62444  1.0000
  C   C894      1.0  0.30343  0.87066  0.57220  1.0000
  P   P32       1.0  0.47654  0.94097  0.68199  1.0000
  H   H704      1.0  0.02254  0.94916  0.98640  1.0000
  C   C895      1.0  0.28450  0.70420  0.79643  1.0000
  C   C896      1.0  0.12722  0.68571  0.87347  1.0000
  C   C897      1.0  0.05623  0.69477  0.98797  1.0000
  H   H705      1.0  0.31976  0.92766  0.61365  1.0000
  C   C898      1.0  0.08960  0.69760  0.90351  1.0000
  H   H706      1.0  0.33640  0.89287  0.65268  1.0000
  H   H707      1.0  0.31118  0.89368  0.69570  1.0000
  H   H708      1.0  0.26563  0.87542  0.69941  1.0000
  H   H709      1.0  0.24529  0.85658  0.65960  1.0000
  H   H710      1.0  0.27017  0.85558  0.61627  1.0000
  H   H711      1.0  0.35400  0.84017  0.55890  1.0000
  H   H712      1.0  0.39736  0.88151  0.73835  1.0000
  H   H713      1.0  0.37639  0.77019  0.60091  1.0000
  H   H714      1.0  0.35502  0.78850  0.64253  1.0000
  H   H715      1.0  0.33454  0.83287  0.64304  1.0000
  H   H716      1.0  0.29429  0.82918  0.57643  1.0000
  C   C899      1.0  0.26076  0.69125  0.79122  1.0000
  C   C900      1.0  0.18343  0.74384  0.99183  1.0000
  H   H717      1.0  0.39371  0.95853  0.58229  1.0000
  C   C901      1.0  0.42086  0.75083  0.87782  1.0000
  H   H718      1.0  0.21913  0.69575  0.78338  1.0000
  H   H719      1.0  0.11029  0.86145  0.96572  1.0000
  C   C902      1.0  0.43025  0.93480  0.71354  1.0000
  H   H720      1.0  0.39164  0.79048  0.83226  1.0000
  H   H721      1.0  0.34930  0.96549  0.60518  1.0000
  C   C903      1.0  0.43456  0.87978  0.71553  1.0000
  H   H722      1.0  0.09481  0.77956  0.93499  1.0000
  H   H723      1.0  0.40228  0.98225  0.63396  1.0000
  H   H724      1.0  0.01407  0.86593  0.84202  1.0000
  H   H725      1.0  0.24324  0.73594  0.66070  1.0000
  C   C904      1.0  0.07674  0.69710  0.67580  1.0000
  H   H726      1.0  0.44473  0.71634  0.95746  1.0000
  C   C905      1.0  0.13451  0.70549  0.91678  1.0000
  H   H727      1.0  0.12394  0.81086  0.95702  1.0000
  C   C906      1.0  0.03445  0.68958  0.97234  1.0000
  C   C907      1.0  0.42200  0.76109  0.82283  1.0000
  C   C908      1.0  0.02193  0.93352  0.97161  1.0000
  C   C909      1.0  0.30675  0.70099  0.85502  1.0000
  S   S124      1.0  0.02890  0.76846  0.98434  1.0000
  H   H728      1.0  0.39382  0.93034  0.73723  1.0000
  H   H729      1.0  0.10857  0.98131  0.87021  1.0000
  C   C910      1.0  0.40450  0.71379  0.92120  1.0000
  C   C911      1.0  0.32050  0.68399  0.83683  1.0000
  H   H730      1.0  0.09296  0.85783  0.74402  1.0000
  C   C912      1.0  0.00835  0.69453  0.98247  1.0000
  H   H731      1.0  0.14784  0.71344  0.93112  1.0000
  H   H732      1.0  0.19419  0.69435  0.84813  1.0000
  C   C913      1.0  0.10705  0.70672  0.92233  1.0000
  C   C914      1.0  0.09218  0.70479  0.69689  1.0000
  C   C915      1.0  0.42298  0.98359  0.63902  1.0000
  C   C916      1.0  0.18102  0.71305  0.67574  1.0000
  H   H733      1.0  0.07424  0.99403  0.83860  1.0000
  H   H734      1.0  0.01462  0.89056  0.72090  1.0000
  H   H735      1.0  0.09161  0.92335  0.99408  1.0000
  C   C917      1.0  0.10519  0.96868  0.85316  1.0000
  C   C918      1.0  0.15052  0.87158  0.95375  1.0000
  C   C919      1.0  0.08116  0.95986  0.81341  1.0000
  H   H736      1.0  0.06265  0.93954  0.95849  1.0000
  H   H737      1.0  0.42217  0.94813  0.66200  1.0000
  H   H738      1.0  0.27921  0.91028  0.52375  1.0000
  H   H739      1.0  0.04636  0.88222  0.79842  1.0000
  C   C920      1.0  0.36428  0.79626  0.94511  1.0000
  C   C921      1.0  0.37686  0.77516  0.93134  1.0000
  H   H740      1.0  0.03315  0.95303  0.88242  1.0000
  C   C922      1.0  0.08574  0.97591  0.83538  1.0000
  C   C923      1.0  0.40476  0.77546  0.84012  1.0000
  C   C924      1.0  0.37929  0.81407  0.95933  1.0000
  C   C925      1.0  0.17609  0.87648  0.96237  1.0000
  H   H741      1.0  0.40215  0.73091  0.74321  1.0000
  C   C926      1.0  0.09958  0.68742  0.87906  1.0000
  C   C927      1.0  0.29117  0.84703  0.56509  1.0000
  C   C928      1.0  0.38557  0.72272  0.75466  1.0000
  C   C929      1.0  0.28437  0.73186  0.79823  1.0000
  C   C930      1.0  0.23353  0.69506  0.66627  1.0000
  H   H742      1.0  0.07639  0.69139  0.98007  1.0000
  C   C931      1.0  0.32688  0.67865  0.89185  1.0000
  H   H743      1.0  0.29857  0.71088  0.89636  1.0000
  S   S125      1.0  0.28112  0.71782  0.99981  1.0000
  H   H744      1.0  0.46730  0.89676  0.64557  1.0000
  C   C932      1.0  0.28248  0.89263  0.53534  1.0000
  C   C933      1.0  0.27473  0.84626  0.54328  1.0000
  C   C934      1.0  0.01789  0.88494  0.85096  1.0000
  H   H745      1.0  0.15104  0.71847  0.98197  1.0000
  S   S126      1.0  0.10244  0.74885  0.99054  1.0000
  H   H746      1.0  0.45259  0.73084  0.81951  1.0000
  C   C935      1.0  0.37704  0.68747  0.95151  1.0000
  C   C936      1.0  0.11796  0.69448  0.69903  1.0000
  C   C937      1.0  0.34221  0.70216  0.78434  1.0000
  C   C938      1.0  0.38902  0.71356  0.78051  1.0000
  C   C939      1.0  0.02151  0.89429  0.93230  1.0000
  H   H747      1.0  0.16592  0.69460  0.88847  1.0000
  C   C940      1.0  0.47694  0.98594  0.65040  1.0000
  C   C941      1.0  0.14463  0.69486  0.89255  1.0000
  H   H748      1.0  0.26540  0.82794  0.53789  1.0000
  H   H749      1.0  0.43451  0.77482  0.99936  1.0000
  H   H750      1.0  0.16756  0.68661  0.78933  1.0000
  H   H751      1.0  0.09528  0.68456  0.57340  1.0000
  C   C942      1.0  0.27040  0.86904  0.52839  1.0000
  S   S127      1.0  0.01549  0.82634  0.93394  1.0000
  S   S128      1.0  0.50209  0.96814  0.54000  1.0000
  C   C943      1.0  0.14340  0.78232  0.00226  1.0000
  H   H752      1.0  0.32582  0.67505  0.67558  1.0000
  H   H753      1.0  0.49092  0.71150  0.97134  1.0000
  H   H754      1.0  0.11266  0.68209  0.78908  1.0000
  C   C944      1.0  0.21348  0.67709  0.67267  1.0000
  C   C945      1.0  0.49497  0.95636  0.70783  1.0000
  H   H755      1.0  0.20111  0.87958  0.99572  1.0000
  C   C946      1.0  0.19047  0.76883  0.00098  1.0000
  H   H756      1.0  0.49809  0.98658  0.65386  1.0000
  C   C947      1.0  0.48991  0.98277  0.71539  1.0000
  C   C948      1.0  0.49856  0.92108  0.66038  1.0000
  H   H757      1.0  0.25395  0.68814  0.66299  1.0000
  C   C949      1.0  0.18701  0.68591  0.67735  1.0000
  C   C950      1.0  0.46554  0.00512  0.63426  1.0000
  C   C951      1.0  0.43854  0.00404  0.62867  1.0000
  H   H758      1.0  0.25773  0.86841  0.51144  1.0000
  H   H759      1.0  0.31646  0.67408  0.97673  1.0000
  H   H760      1.0  0.61243  0.17892  0.42612  1.0000
  S   S129      1.0  0.95040  0.28032  0.48287  1.0000
  C   C952      1.0  0.59120  0.32060  0.48020  1.0000
  S   S130      1.0  0.77671  0.01841  0.01539  1.0000
  H   H761      1.0  0.54226  0.02377  0.41531  1.0000
  C   C953      1.0  0.95249  0.02327  0.10887  1.0000
  C   C954      1.0  0.68452  0.03991  0.40672  1.0000
  C   C955      1.0  0.71672  0.06608  0.44480  1.0000
  H   H762      1.0  0.68799  0.11085  0.33369  1.0000
  C   C956      1.0  0.55489  0.26623  0.40925  1.0000
  C   C957      1.0  0.72262  0.07874  0.49870  1.0000
  C   C958      1.0  0.71570  0.04626  0.46423  1.0000
  C   C959      1.0  0.92767  0.02190  0.09686  1.0000
  H   H763      1.0  0.91677  0.12979  0.03907  1.0000
  H   H764      1.0  0.66685  0.09413  0.49958  1.0000
  H   H765      1.0  0.53604  0.09411  0.26499  1.0000
  H   H766      1.0  0.52624  0.04720  0.27531  1.0000
  C   C960      1.0  0.60302  0.26704  0.47121  1.0000
  H   H767      1.0  0.72496  0.14242  0.33736  1.0000
  P   P33       1.0  0.71564  0.05681  0.41003  1.0000
  C   C961      1.0  0.56677  0.00994  0.47292  1.0000
  C   C962      1.0  0.54591  0.20590  0.45840  1.0000
  C   C963      1.0  0.71750  0.08474  0.38788  1.0000
  C   C964      1.0  0.92493  0.03132  0.07100  1.0000
  C   C965      1.0  0.94673  0.04311  0.05768  1.0000
  C   C966      1.0  0.97153  0.04431  0.06957  1.0000
  C   C967      1.0  0.97466  0.03380  0.09497  1.0000
  H   H768      1.0  0.60936  0.03961  0.47275  1.0000
  H   H769      1.0  0.60786  0.24633  0.46876  1.0000
  H   H770      1.0  0.94451  0.05104  0.03795  1.0000
  H   H771      1.0  0.55253  0.28196  0.33358  1.0000
  P   P34       1.0  0.55588  0.25826  0.44421  1.0000
  C   C968      1.0  0.51175  0.06256  0.28067  1.0000
  C   C969      1.0  0.56756  0.28866  0.39884  1.0000
  C   C970      1.0  0.54156  0.04500  0.41289  1.0000
  H   H772      1.0  0.75809  0.13624  0.37223  1.0000
  H   H773      1.0  0.71250  0.30736  0.01035  1.0000
  H   H774      1.0  0.60101  0.22644  0.42310  1.0000
  C   C971      1.0  0.65468  0.01614  0.13813  1.0000
  H   H775      1.0  0.88110  0.32366  0.48266  1.0000
  H   H776      1.0  0.96375  0.13381  0.05198  1.0000
  C   C972      1.0  0.52205  0.06022  0.42670  1.0000
  H   H777      1.0  0.52702  0.21278  0.46722  1.0000
  H   H778      1.0  0.75247  0.01404  0.19402  1.0000
  C   C973      1.0  0.57964  0.27814  0.46123  1.0000
  C   C974      1.0  0.72223  0.09878  0.47973  1.0000
  H   H779      1.0  0.66022  0.07415  0.41742  1.0000
  C   C975      1.0  0.53936  0.09969  0.40583  1.0000
  Fe  Fe63      1.0  0.95195  0.32274  0.49594  1.0000
  C   C976      1.0  0.52404  0.26507  0.46111  1.0000
  C   C977      1.0  0.65233  0.13472  0.39778  1.0000
  H   H780      1.0  0.00354  0.27657  0.35195  1.0000
  C   C978      1.0  0.73965  0.33987  0.00957  1.0000
  H   H781      1.0  0.75417  0.09902  0.40359  1.0000
  H   H782      1.0  0.98832  0.05302  0.05892  1.0000
  H   H783      1.0  0.53061  0.24208  0.35162  1.0000
  H   H784      1.0  0.95471  0.01545  0.12866  1.0000
  C   C979      1.0  0.59390  0.18644  0.43524  1.0000
  C   C980      1.0  0.57381  0.30504  0.46602  1.0000
  H   H785      1.0  0.71885  0.10844  0.43865  1.0000
  H   H786      1.0  0.68383  0.07368  0.36488  1.0000
  H   H787      1.0  0.57813  0.30187  0.41151  1.0000
  H   H788      1.0  0.71346  0.02577  0.45854  1.0000
  C   C981      1.0  0.71906  0.09255  0.45286  1.0000
  H   H789      1.0  0.50679  0.15598  0.38906  1.0000
  H   H790      1.0  0.62703  0.16337  0.49754  1.0000
  H   H791      1.0  0.00144  0.26119  0.10380  1.0000
  C   C982      1.0  0.55345  0.27747  0.35462  1.0000
  C   C983      1.0  0.51360  0.04928  0.50368  1.0000
  C   C984      1.0  0.62033  0.28265  0.48541  1.0000
  C   C985      1.0  0.55916  0.08456  0.39198  1.0000
  C   C986      1.0  0.56016  0.05707  0.39574  1.0000
  P   P35       1.0  0.58484  0.10025  0.37180  1.0000
  C   C987      1.0  0.57174  0.12977  0.35651  1.0000
  C   C988      1.0  0.61102  0.11107  0.39285  1.0000
  C   C989      1.0  0.63262  0.12497  0.38160  1.0000
  C   C990      1.0  0.52077  0.08747  0.42286  1.0000
  C   C991      1.0  0.70191  0.10870  0.34951  1.0000
  C   C992      1.0  0.62865  0.11778  0.43676  1.0000
  C   C993      1.0  0.60914  0.10758  0.42061  1.0000
  C   C994      1.0  0.56605  0.13047  0.32934  1.0000
  C   C995      1.0  0.55672  0.15382  0.31798  1.0000
  C   C996      1.0  0.55292  0.17663  0.33351  1.0000
  C   C997      1.0  0.55865  0.17619  0.36048  1.0000
  C   C998      1.0  0.56809  0.15294  0.37191  1.0000
  C   C999      1.0  0.59668  0.07621  0.34703  1.0000
  C   C1000     1.0  0.57837  0.06380  0.33081  1.0000
  C   C1001     1.0  0.58681  0.04365  0.31313  1.0000
  C   C1002     1.0  0.61352  0.03544  0.31173  1.0000
  C   C1003     1.0  0.63180  0.04734  0.32806  1.0000
  C   C1004     1.0  0.62344  0.06762  0.34567  1.0000
  H   H792      1.0  0.53897  0.16595  0.47057  1.0000
  C   C1005     1.0  0.74374  0.03580  0.39983  1.0000
  H   H793      1.0  0.58142  0.14861  0.45032  1.0000
  H   H794      1.0  0.91085  0.01313  0.10739  1.0000
  H   H795      1.0  0.57518  0.04476  0.38542  1.0000
  H   H796      1.0  0.63407  0.12844  0.36031  1.0000
  C   C1006     1.0  0.51723  0.08919  0.27482  1.0000
  H   H797      1.0  0.53794  0.12085  0.40357  1.0000
  H   H798      1.0  0.59248  0.09743  0.43000  1.0000
  H   H799      1.0  0.56884  0.11332  0.31660  1.0000
  H   H800      1.0  0.55231  0.15423  0.29702  1.0000
  H   H801      1.0  0.62780  0.32126  0.50125  1.0000
  H   H802      1.0  0.55560  0.31390  0.45904  1.0000
  H   H803      1.0  0.57233  0.15306  0.39285  1.0000
  H   H804      1.0  0.55743  0.06928  0.33217  1.0000
  H   H805      1.0  0.61981  0.01916  0.29867  1.0000
  H   H806      1.0  0.64693  0.02236  0.09672  1.0000
  C   C1007     1.0  0.51744  0.10186  0.48787  1.0000
  H   H807      1.0  0.63771  0.07588  0.35867  1.0000
  H   H808      1.0  0.64898  0.03611  0.14410  1.0000
  C   C1008     1.0  0.71440  0.32865  0.01065  1.0000
  H   H809      1.0  0.97380  0.32221  0.42036  1.0000
  C   C1009     1.0  0.71890  0.05256  0.49102  1.0000
  H   H810      1.0  0.72478  0.11910  0.48595  1.0000
  H   H811      1.0  0.76188  0.03453  0.43845  1.0000
  H   H812      1.0  0.55873  0.09861  0.49622  1.0000
  C   C1010     1.0  0.61435  0.05515  0.48634  1.0000
  C   C1011     1.0  0.63593  0.01392  0.40194  1.0000
  H   H813      1.0  0.56465  0.02738  0.46082  1.0000
  H   H814      1.0  0.54538  0.19457  0.32463  1.0000
  H   H815      1.0  0.66542  0.13904  0.43793  1.0000
  C   C1012     1.0  0.69940  0.08780  0.36747  1.0000
  H   H816      1.0  0.55545  0.19381  0.37261  1.0000
  C   C1013     1.0  0.54006  0.08832  0.49608  1.0000
  C   C1014     1.0  0.73904  0.10199  0.38903  1.0000
  H   H817      1.0  0.65072  0.00968  0.46234  1.0000
  C   C1015     1.0  0.57654  0.16938  0.44877  1.0000
  C   C1016     1.0  0.56369  0.22339  0.44583  1.0000
  H   H818      1.0  0.98521  0.21713  0.11763  1.0000
  C   C1017     1.0  0.54112  0.25495  0.36478  1.0000
  H   H819      1.0  0.99150  0.27631  0.42331  1.0000
  C   C1018     1.0  0.55255  0.17910  0.46019  1.0000
  H   H820      1.0  0.75734  0.32728  0.00840  1.0000
  H   H821      1.0  0.57249  0.03374  0.30110  1.0000
  H   H822      1.0  0.61735  0.05112  0.41300  1.0000
  H   H823      1.0  0.62678  0.11560  0.45820  1.0000
  C   C1019     1.0  0.74145  0.12295  0.37114  1.0000
  H   H824      1.0  0.66900  0.14537  0.38896  1.0000
  C   C1020     1.0  0.76326  0.02842  0.41779  1.0000
  C   C1021     1.0  0.52243  0.26592  0.48911  1.0000
  C   C1022     1.0  0.58740  0.21334  0.43358  1.0000
  C   C1023     1.0  0.63936  0.06677  0.48313  1.0000
  C   C1024     1.0  0.65033  0.13117  0.42536  1.0000
  C   C1025     1.0  0.61446  0.30938  0.48991  1.0000
  H   H825      1.0  0.73211  0.03306  0.35883  1.0000
  H   H826      1.0  0.65335  0.06007  0.46750  1.0000
  H   H827      1.0  0.65229  0.04023  0.32750  1.0000
  C   C1026     1.0  0.56794  0.01227  0.50072  1.0000
  H   H828      1.0  0.53163  0.23206  0.39961  1.0000
  C   C1027     1.0  0.66026  0.05352  0.41177  1.0000
  S   S131      1.0  0.81989  0.01954  0.08014  1.0000
  C   C1028     1.0  0.95919  0.12355  0.03377  1.0000
  C   C1029     1.0  0.53823  0.06198  0.50431  1.0000
  C   C1030     1.0  0.63604  0.04057  0.40934  1.0000
  C   C1031     1.0  0.76880  0.01200  0.36454  1.0000
  S   S132      1.0  0.89498  0.02836  0.05416  1.0000
  H   H829      1.0  0.59932  0.20931  0.49817  1.0000
  C   C1032     1.0  0.72281  0.12640  0.35147  1.0000
  C   C1033     1.0  0.74683  0.02763  0.37307  1.0000
  C   C1034     1.0  0.99460  0.31870  0.42440  1.0000
  H   H830      1.0  0.63813  0.27384  0.49342  1.0000
  C   C1035     1.0  0.54176  0.24935  0.39198  1.0000
  C   C1036     1.0  0.56672  0.29428  0.37162  1.0000
  C   C1037     1.0  0.93274  0.12121  0.02652  1.0000
  C   C1038     1.0  0.78512  0.01269  0.40919  1.0000
  C   C1039     1.0  0.97979  0.11267  0.01748  1.0000
  H   H831      1.0  0.50775  0.05095  0.44019  1.0000
  H   H832      1.0  0.67211  0.33588  0.01287  1.0000
  H   H833      1.0  0.51897  0.12208  0.48133  1.0000
  H   H834      1.0  0.00038  0.11457  0.02288  1.0000
  H   H835      1.0  0.53994  0.26216  0.50056  1.0000
  H   H836      1.0  0.57628  0.31174  0.36368  1.0000
  C   C1040     1.0  0.68419  0.01313  0.39968  1.0000
  C   C1041     1.0  0.64703  0.08604  0.50111  1.0000
  H   H837      1.0  0.50964  0.06937  0.34218  1.0000
  C   C1042     1.0  0.00454  0.29287  0.42599  1.0000
  C   C1043     1.0  0.65349  0.00839  0.11145  1.0000
  H   H838      1.0  0.86014  0.04027  0.00597  1.0000
  Fe  Fe64      1.0  0.70994  0.26279  0.78929  1.0000
  S   S133      1.0  0.68460  0.25425  0.82590  1.0000
  S   S134      1.0  0.70788  0.23727  0.75236  1.0000
  Fe  Fe65      1.0  0.74596  0.29930  0.81950  1.0000
  S   S135      1.0  0.72369  0.29330  0.85877  1.0000
  C   C1044     1.0  0.63228  0.26012  0.88230  1.0000
  Fe  Fe66      1.0  0.72322  0.25053  0.84638  1.0000
  S   S136      1.0  0.73453  0.21661  0.87279  1.0000
  Fe  Fe67      1.0  0.68688  0.29793  0.83503  1.0000
  S   S137      1.0  0.74845  0.25635  0.80942  1.0000
  Fe  Fe68      1.0  0.73945  0.07032  0.82978  1.0000
  S   S138      1.0  0.72955  0.02740  0.83512  1.0000
  S   S139      1.0  0.70903  0.10340  0.82815  1.0000
  Fe  Fe69      1.0  0.79681  0.05851  0.81485  1.0000
  H   H839      1.0  0.64107  0.21107  0.82764  1.0000
  S   S140      1.0  0.83580  0.07755  0.80429  1.0000
  Fe  Fe70      1.0  0.75355  0.02146  0.79662  1.0000
  C   C1045     1.0  0.65715  0.26384  0.89308  1.0000
  Fe  Fe71      1.0  0.76855  0.02427  0.85598  1.0000
  H   H840      1.0  0.65250  0.19845  0.78114  1.0000
  S   S141      1.0  0.76108  0.06434  0.79030  1.0000
  S   S142      1.0  0.77603  0.06793  0.85409  1.0000
  Fe  Fe72      1.0  0.96645  0.02835  0.84809  1.0000
  H   H841      1.0  0.79778  0.23308  0.55716  1.0000
  H   H842      1.0  0.62622  0.14321  0.65568  1.0000
  S   S143      1.0  0.96348  0.26444  0.54369  1.0000
  C   C1046     1.0  0.85571  0.04072  0.96344  1.0000
  H   H843      1.0  0.82468  0.11640  0.75849  1.0000
  H   H844      1.0  0.97984  0.23951  0.63458  1.0000
  H   H845      1.0  0.65750  0.10917  0.67098  1.0000
  C   C1047     1.0  0.89521  0.05502  0.98524  1.0000
  H   H846      1.0  0.52206  0.08596  0.62658  1.0000
  Fe  Fe73      1.0  0.92991  0.28133  0.76541  1.0000
  S   S144      1.0  0.95523  0.29206  0.79989  1.0000
  S   S145      1.0  0.88616  0.27295  0.76093  1.0000
  Fe  Fe74      1.0  0.97841  0.26718  0.72945  1.0000
  H   H847      1.0  0.99441  0.17601  0.85078  1.0000
  S   S146      1.0  0.64806  0.31860  0.84943  1.0000
  Fe  Fe75      1.0  0.97865  0.25469  0.78887  1.0000
  H   H848      1.0  0.99823  0.12809  0.83919  1.0000
  S   S147      1.0  0.95210  0.24338  0.75649  1.0000
  Fe  Fe76      1.0  0.69600  0.25963  0.60587  1.0000
  S   S148      1.0  0.69458  0.27364  0.56362  1.0000
  S   S149      1.0  0.68286  0.28612  0.64035  1.0000
  Fe  Fe77      1.0  0.71874  0.20627  0.58951  1.0000
  S   S150      1.0  0.71907  0.21558  0.54578  1.0000
  S   S151      1.0  0.73320  0.16833  0.60770  1.0000
  Fe  Fe78      1.0  0.73545  0.25469  0.55818  1.0000
  S   S152      1.0  0.76778  0.27791  0.53605  1.0000
  Fe  Fe79      1.0  0.67815  0.23361  0.55488  1.0000
  S   S153      1.0  0.64485  0.22705  0.52585  1.0000
  S   S154      1.0  0.73795  0.24410  0.60130  1.0000
  S   S155      1.0  0.67679  0.22088  0.59772  1.0000
  Fe  Fe80      1.0  0.69971  0.02968  0.56651  1.0000
  S   S156      1.0  0.79164  0.01482  0.81752  1.0000
  S   S157      1.0  0.68160  0.06855  0.55499  1.0000
  C   C1048     1.0  0.99575  0.13428  0.79709  1.0000
  H   H849      1.0  0.69304  0.24491  0.90607  1.0000
  C   C1049     1.0  0.71917  0.14041  0.59311  1.0000
  C   C1050     1.0  0.72441  0.11508  0.60301  1.0000
  C   C1051     1.0  0.71299  0.09281  0.59144  1.0000
  C   C1052     1.0  0.69640  0.09586  0.56990  1.0000
  C   C1053     1.0  0.69150  0.12111  0.55987  1.0000
  C   C1054     1.0  0.70267  0.14335  0.57154  1.0000
  H   H850      1.0  0.73737  0.11262  0.61953  1.0000
  H   H851      1.0  0.71703  0.07333  0.59920  1.0000
  H   H852      1.0  0.67941  0.12343  0.54277  1.0000
  H   H853      1.0  0.69874  0.16277  0.56369  1.0000
  H   H854      1.0  0.52133  0.04565  0.55555  1.0000
  C   C1055     1.0  0.83890  0.23897  0.54418  1.0000
  C   C1056     1.0  0.62106  0.15958  0.51810  1.0000
  C   C1057     1.0  0.80192  0.26827  0.53366  1.0000
  H   H855      1.0  0.83566  0.03312  0.96468  1.0000
  H   H856      1.0  0.80455  0.13531  0.71823  1.0000
  C   C1058     1.0  0.64103  0.08048  0.61268  1.0000
  C   C1059     1.0  0.95645  0.16608  0.70808  1.0000
  H   H857      1.0  0.83839  0.33317  0.82477  1.0000
  H   H858      1.0  0.85782  0.29304  0.71690  1.0000
  S   S158      1.0  0.99962  0.10055  0.78751  1.0000
  C   C1060     1.0  0.97503  0.27756  0.61620  1.0000
  C   C1061     1.0  0.76458  0.02499  0.93588  1.0000
  C   C1062     1.0  0.98438  0.27109  0.66284  1.0000
  H   H859      1.0  0.72570  0.08348  0.51944  1.0000
  C   C1063     1.0  0.64776  0.10648  0.65231  1.0000
  C   C1064     1.0  0.58608  0.03541  0.59392  1.0000
  C   C1065     1.0  0.86010  0.30657  0.79762  1.0000
  C   C1066     1.0  0.60519  0.15268  0.57185  1.0000
  H   H860      1.0  0.96080  0.17015  0.72857  1.0000
  C   C1067     1.0  0.55191  0.19290  0.90531  1.0000
  H   H861      1.0  0.64571  0.06310  0.60056  1.0000
  H   H862      1.0  0.89518  0.29079  0.68015  1.0000
  C   C1068     1.0  0.92786  0.16704  0.81049  1.0000
  H   H863      1.0  0.85463  0.21617  0.68061  1.0000
  H   H864      1.0  0.75032  0.04394  0.97253  1.0000
  C   C1069     1.0  0.67338  0.24202  0.89850  1.0000
  H   H865      1.0  0.98403  0.06042  0.74080  1.0000
  C   C1070     1.0  0.76364  0.02900  0.96374  1.0000
  H   H866      1.0  0.75194  0.20657  0.66786  1.0000
  H   H867      1.0  0.75187  0.03664  0.92343  1.0000
  H   H868      1.0  0.69739  0.03942  0.69406  1.0000
  H   H869      1.0  0.80443  0.25888  0.70708  1.0000
  C   C1071     1.0  0.86084  0.06337  0.82324  1.0000
  C   C1072     1.0  0.85447  0.04517  0.84326  1.0000
  C   C1073     1.0  0.87472  0.03330  0.85771  1.0000
  C   C1074     1.0  0.90139  0.03950  0.85208  1.0000
  C   C1075     1.0  0.90772  0.05830  0.83263  1.0000
  C   C1076     1.0  0.88743  0.07027  0.81829  1.0000
  H   H870      1.0  0.83392  0.04016  0.84761  1.0000
  C   C1077     1.0  0.00293  0.00874  0.94734  1.0000
  H   H871      1.0  0.92821  0.06370  0.82867  1.0000
  H   H872      1.0  0.89229  0.08461  0.80312  1.0000
  C   C1078     1.0  0.55545  0.22270  0.55013  1.0000
  C   C1079     1.0  0.57344  0.23353  0.56778  1.0000
  C   C1080     1.0  0.60080  0.23525  0.56054  1.0000
  C   C1081     1.0  0.61041  0.22626  0.53553  1.0000
  H   H873      1.0  0.80471  0.31380  0.65466  1.0000
  H   H874      1.0  0.84416  0.33340  0.74126  1.0000
  H   H875      1.0  0.56621  0.24055  0.58718  1.0000
  H   H876      1.0  0.61444  0.24368  0.57424  1.0000
  C   C1082     1.0  0.84238  0.14407  0.69890  1.0000
  C   C1083     1.0  0.65001  0.15658  0.78835  1.0000
  C   C1084     1.0  0.69977  0.25111  0.72168  1.0000
  C   C1085     1.0  0.68842  0.27641  0.72002  1.0000
  C   C1086     1.0  0.68266  0.28686  0.69496  1.0000
  C   C1087     1.0  0.68852  0.27216  0.67161  1.0000
  C   C1088     1.0  0.69955  0.24675  0.67339  1.0000
  C   C1089     1.0  0.70503  0.23625  0.69838  1.0000
  H   H877      1.0  0.68421  0.28789  0.73797  1.0000
  H   H878      1.0  0.67404  0.30647  0.69354  1.0000
  H   H879      1.0  0.70396  0.23521  0.65550  1.0000
  H   H880      1.0  0.71358  0.21660  0.69963  1.0000
  C   C1090     1.0  0.81154  0.30983  0.80230  1.0000
  C   C1091     1.0  0.80961  0.29031  0.78274  1.0000
  C   C1092     1.0  0.83280  0.27919  0.77051  1.0000
  C   C1093     1.0  0.85806  0.28722  0.77787  1.0000
  H   H881      1.0  0.79026  0.28416  0.77664  1.0000
  H   H882      1.0  0.83120  0.26453  0.75495  1.0000
  C   C1094     1.0  0.72989  0.18523  0.85869  1.0000
  C   C1095     1.0  0.71654  0.18247  0.83497  1.0000
  C   C1096     1.0  0.71137  0.15720  0.82500  1.0000
  C   C1097     1.0  0.71976  0.13459  0.83844  1.0000
  C   C1098     1.0  0.73417  0.13734  0.86151  1.0000
  C   C1099     1.0  0.73898  0.16263  0.87178  1.0000
  H   H883      1.0  0.70970  0.19976  0.82455  1.0000
  H   H884      1.0  0.70081  0.15517  0.80684  1.0000
  H   H885      1.0  0.74035  0.11995  0.87218  1.0000
  H   H886      1.0  0.74929  0.16468  0.89017  1.0000
  S   S159      1.0  0.70924  0.30674  0.79623  1.0000
  C   C1100     1.0  0.99014  0.18037  0.78364  1.0000
  C   C1101     1.0  0.68100  0.16725  0.66048  1.0000
  C   C1102     1.0  0.66491  0.18303  0.67766  1.0000
  C   C1103     1.0  0.66771  0.18146  0.70519  1.0000
  C   C1104     1.0  0.68717  0.16472  0.71547  1.0000
  C   C1105     1.0  0.70448  0.14995  0.69824  1.0000
  C   C1106     1.0  0.70031  0.15038  0.67074  1.0000
  P   P36       1.0  0.73029  0.12901  0.71148  1.0000
  C   C1107     1.0  0.71451  0.09849  0.72093  1.0000
  C   C1108     1.0  0.75701  0.12247  0.68696  1.0000
  C   C1109     1.0  0.76458  0.14195  0.66854  1.0000
  C   C1110     1.0  0.78412  0.13649  0.64857  1.0000
  C   C1111     1.0  0.79675  0.11171  0.64724  1.0000
  C   C1112     1.0  0.79014  0.09254  0.66616  1.0000
  C   C1113     1.0  0.77053  0.09793  0.68613  1.0000
  C   C1114     1.0  0.70711  0.09354  0.74772  1.0000
  C   C1115     1.0  0.69698  0.06899  0.75511  1.0000
  C   C1116     1.0  0.69358  0.04947  0.73580  1.0000
  C   C1117     1.0  0.69974  0.05470  0.70897  1.0000
  C   C1118     1.0  0.70998  0.07918  0.70150  1.0000
  C   C1119     1.0  0.74594  0.14327  0.73994  1.0000
  C   C1120     1.0  0.74271  0.17015  0.74659  1.0000
  C   C1121     1.0  0.75245  0.17986  0.77037  1.0000
  C   C1122     1.0  0.76675  0.16324  0.78692  1.0000
  C   C1123     1.0  0.77148  0.13689  0.77964  1.0000
  C   C1124     1.0  0.76121  0.12696  0.75618  1.0000
  H   H887      1.0  0.67879  0.16824  0.63910  1.0000
  H   H888      1.0  0.65046  0.19660  0.66962  1.0000
  H   H889      1.0  0.65539  0.19386  0.71853  1.0000
  H   H890      1.0  0.68921  0.16395  0.73681  1.0000
  H   H891      1.0  0.71216  0.13802  0.65701  1.0000
  H   H892      1.0  0.75462  0.16101  0.66884  1.0000
  H   H893      1.0  0.78868  0.15117  0.63350  1.0000
  H   H894      1.0  0.81128  0.10718  0.63125  1.0000
  H   H895      1.0  0.79969  0.07320  0.66485  1.0000
  H   H896      1.0  0.76558  0.08269  0.70045  1.0000
  H   H897      1.0  0.70971  0.10823  0.76314  1.0000
  H   H898      1.0  0.69244  0.06487  0.77597  1.0000
  H   H899      1.0  0.71517  0.08266  0.68066  1.0000
  H   H900      1.0  0.73222  0.18365  0.73395  1.0000
  H   H901      1.0  0.74837  0.20020  0.77625  1.0000
  H   H902      1.0  0.77374  0.17069  0.80562  1.0000
  H   H903      1.0  0.78243  0.12395  0.79261  1.0000
  H   H904      1.0  0.76456  0.10636  0.75103  1.0000
  C   C1125     1.0  0.98984  0.01863  0.92542  1.0000
  H   H905      1.0  0.56632  0.14459  0.55627  1.0000
  C   C1126     1.0  0.88603  0.03168  0.76414  1.0000
  C   C1127     1.0  0.94930  0.04516  0.72241  1.0000
  H   H906      1.0  0.89484  0.32939  0.75606  1.0000
  C   C1128     1.0  0.56445  0.04144  0.55188  1.0000
  C   C1129     1.0  0.76749  0.02107  0.69342  1.0000
  S   S160      1.0  0.52113  0.22092  0.55974  1.0000
  C   C1130     1.0  0.97393  0.09891  0.99429  1.0000
  H   H907      1.0  0.97133  0.26924  0.59700  1.0000
  C   C1131     1.0  0.83790  0.00859  0.75150  1.0000
  H   H908      1.0  0.92311  0.20454  0.79123  1.0000
  C   C1132     1.0  0.83616  0.32945  0.72194  1.0000
  C   C1133     1.0  0.50758  0.12359  0.61328  1.0000
  C   C1134     1.0  0.99591  0.14257  0.82372  1.0000
  C   C1135     1.0  0.59482  0.15281  0.52492  1.0000
  H   H909      1.0  0.91246  0.03596  0.70412  1.0000
  C   C1136     1.0  0.96707  0.17370  0.66132  1.0000
  H   H910      1.0  0.90573  0.05738  0.00350  1.0000
  H   H911      1.0  0.59151  0.08898  0.54181  1.0000
  H   H912      1.0  0.86976  0.01903  0.87297  1.0000
  C   C1137     1.0  0.86795  0.04615  0.93863  1.0000
  C   C1138     1.0  0.60452  0.08277  0.52513  1.0000
  C   C1139     1.0  0.86943  0.04495  0.98670  1.0000
  H   H913      1.0  0.67798  0.19994  0.89700  1.0000
  H   H914      1.0  0.59120  0.20459  0.91524  1.0000
  C   C1140     1.0  0.98437  0.29849  0.66658  1.0000
  H   H915      1.0  0.98562  0.09186  0.92463  1.0000
  C   C1141     1.0  0.52750  0.10549  0.61994  1.0000
  H   H916      1.0  0.64831  0.11635  0.80198  1.0000
  C   C1142     1.0  0.92368  0.13075  0.90141  1.0000
  H   H917      1.0  0.65499  0.15101  0.76791  1.0000
  C   C1143     1.0  0.97986  0.26068  0.63759  1.0000
  C   C1144     1.0  0.79978  0.26971  0.86524  1.0000
  C   C1145     1.0  0.78783  0.26174  0.88938  1.0000
  C   C1146     1.0  0.79188  0.23598  0.89835  1.0000
  C   C1147     1.0  0.80732  0.21798  0.88287  1.0000
  C   C1148     1.0  0.81836  0.22549  0.85797  1.0000
  C   C1149     1.0  0.81521  0.25177  0.84970  1.0000
  P   P37       1.0  0.83970  0.20314  0.83841  1.0000
  C   C1150     1.0  0.87281  0.21426  0.84417  1.0000
  C   C1151     1.0  0.83624  0.16904  0.84784  1.0000
  C   C1152     1.0  0.85867  0.15207  0.84795  1.0000
  C   C1153     1.0  0.85594  0.12570  0.85545  1.0000
  C   C1154     1.0  0.83076  0.11593  0.86223  1.0000
  C   C1155     1.0  0.80826  0.13242  0.86114  1.0000
  C   C1156     1.0  0.81091  0.15882  0.85370  1.0000
  C   C1157     1.0  0.88545  0.23147  0.82618  1.0000
  C   C1158     1.0  0.91098  0.24039  0.83089  1.0000
  C   C1159     1.0  0.92400  0.23251  0.85365  1.0000
  C   C1160     1.0  0.91117  0.21602  0.87213  1.0000
  C   C1161     1.0  0.88549  0.20715  0.86758  1.0000
  C   C1162     1.0  0.83310  0.20407  0.80334  1.0000
  C   C1163     1.0  0.80984  0.21604  0.79423  1.0000
  C   C1164     1.0  0.80537  0.21701  0.76692  1.0000
  C   C1165     1.0  0.82386  0.20559  0.74859  1.0000
  C   C1166     1.0  0.84678  0.19310  0.75759  1.0000
  C   C1167     1.0  0.85122  0.19206  0.78487  1.0000
  H   H918      1.0  0.79697  0.28979  0.85852  1.0000
  H   H919      1.0  0.77531  0.27548  0.90103  1.0000
  H   H920      1.0  0.78240  0.22975  0.91695  1.0000
  H   H921      1.0  0.81039  0.19829  0.89045  1.0000
  H   H922      1.0  0.82463  0.25843  0.83120  1.0000
  H   H923      1.0  0.87823  0.15902  0.84198  1.0000
  H   H924      1.0  0.87322  0.11261  0.85549  1.0000
  H   H925      1.0  0.82860  0.09535  0.86759  1.0000
  H   H926      1.0  0.78873  0.12463  0.86583  1.0000
  H   H927      1.0  0.79321  0.17126  0.85260  1.0000
  H   H928      1.0  0.87571  0.23808  0.80849  1.0000
  H   H929      1.0  0.92073  0.25314  0.81656  1.0000
  H   H930      1.0  0.94399  0.23929  0.85693  1.0000
  H   H931      1.0  0.92111  0.21029  0.89000  1.0000
  H   H932      1.0  0.87551  0.19483  0.88229  1.0000
  H   H933      1.0  0.79508  0.22443  0.80816  1.0000
  H   H934      1.0  0.78756  0.22675  0.76004  1.0000
  H   H935      1.0  0.82041  0.20634  0.72746  1.0000
  H   H936      1.0  0.86115  0.18428  0.74345  1.0000
  H   H937      1.0  0.86878  0.18194  0.79166  1.0000
  C   C1168     1.0  0.63941  0.16263  0.53800  1.0000
  C   C1169     1.0  0.63166  0.15879  0.56471  1.0000
  P   P38       1.0  0.59562  0.14790  0.60659  1.0000
  C   C1170     1.0  0.59744  0.17788  0.62619  1.0000
  C   C1171     1.0  0.58444  0.17932  0.65148  1.0000
  C   C1172     1.0  0.58571  0.20225  0.66705  1.0000
  C   C1173     1.0  0.59986  0.22396  0.65745  1.0000
  C   C1174     1.0  0.61271  0.22276  0.63230  1.0000
  C   C1175     1.0  0.61150  0.19984  0.61670  1.0000
  C   C1176     1.0  0.56128  0.13798  0.60938  1.0000
  C   C1177     1.0  0.55432  0.11255  0.61787  1.0000
  C   C1178     1.0  0.82002  0.28427  0.51934  1.0000
  H   H938      1.0  0.64626  0.16103  0.57986  1.0000
  H   H939      1.0  0.57329  0.16270  0.65916  1.0000
  H   H940      1.0  0.57555  0.20326  0.68648  1.0000
  H   H941      1.0  0.60084  0.24180  0.66941  1.0000
  H   H942      1.0  0.62355  0.23971  0.62481  1.0000
  H   H943      1.0  0.62131  0.19959  0.59720  1.0000
  H   H944      1.0  0.56939  0.09815  0.62296  1.0000
  C   C1179     1.0  0.66471  0.21645  0.89331  1.0000
  C   C1180     1.0  0.91744  0.25720  0.69308  1.0000
  C   C1181     1.0  0.91752  0.23013  0.69789  1.0000
  C   C1182     1.0  0.89469  0.21554  0.69382  1.0000
  C   C1183     1.0  0.87185  0.22796  0.68438  1.0000
  C   C1184     1.0  0.87169  0.25525  0.67945  1.0000
  C   C1185     1.0  0.89461  0.26981  0.68418  1.0000
  H   H945      1.0  0.76440  0.23097  0.70840  1.0000
  C   C1186     1.0  0.84741  0.27772  0.51758  1.0000
  C   C1187     1.0  0.99299  0.15334  0.77714  1.0000
  H   H946      1.0  0.66413  0.28369  0.89646  1.0000
  C   C1188     1.0  0.77010  0.21783  0.66768  1.0000
  C   C1189     1.0  0.77701  0.23185  0.69037  1.0000
  C   C1190     1.0  0.79957  0.24774  0.68947  1.0000
  H   H947      1.0  0.93525  0.26838  0.69589  1.0000
  H   H948      1.0  0.93547  0.22057  0.70457  1.0000
  H   H949      1.0  0.89496  0.19459  0.69759  1.0000
  C   C1191     1.0  0.90708  0.06193  0.96051  1.0000
  C   C1192     1.0  0.81536  0.24961  0.66583  1.0000
  C   C1193     1.0  0.95508  0.09114  0.73395  1.0000
  H   H950      1.0  0.68667  0.03011  0.74170  1.0000
  C   C1194     1.0  0.94735  0.09528  0.98755  1.0000
  C   C1195     1.0  0.51438  0.14889  0.60476  1.0000
  H   H951      1.0  0.89533  0.27183  0.63290  1.0000
  C   C1196     1.0  0.64597  0.13702  0.80751  1.0000
  C   C1197     1.0  0.78636  0.21867  0.64448  1.0000
  H   H952      1.0  0.73786  0.31930  0.65172  1.0000
  S   S161      1.0  0.97179  0.03247  0.80390  1.0000
  C   C1198     1.0  0.92104  0.11321  0.92277  1.0000
  S   S162      1.0  0.78262  0.32467  0.81723  1.0000
  P   P39       1.0  0.84361  0.27126  0.66451  1.0000
  C   C1199     1.0  0.80903  0.23437  0.64355  1.0000
  H   H953      1.0  0.54224  0.20400  0.92160  1.0000
  C   C1200     1.0  0.63767  0.17077  0.84163  1.0000
  C   C1201     1.0  0.63978  0.14405  0.83403  1.0000
  H   H954      1.0  0.78101  0.20752  0.62699  1.0000
  C   C1202     1.0  0.64846  0.18323  0.79581  1.0000
  C   C1203     1.0  0.84184  0.03543  0.74685  1.0000
  C   C1204     1.0  0.74070  0.32011  0.67301  1.0000
  C   C1205     1.0  0.53964  0.04294  0.56580  1.0000
  C   C1206     1.0  0.87948  0.27898  0.62086  1.0000
  H   H955      1.0  0.90708  0.28598  0.58775  1.0000
  C   C1207     1.0  0.89363  0.05651  0.93712  1.0000
  Fe  Fe81      1.0  0.98150  0.31237  0.76881  1.0000
  C   C1208     1.0  0.54109  0.15620  0.60310  1.0000
  H   H956      1.0  0.93293  0.12693  0.82375  1.0000
  C   C1209     1.0  0.77950  0.01358  0.98032  1.0000
  H   H957      1.0  0.62004  0.27712  0.87746  1.0000
  C   C1210     1.0  0.56501  0.21397  0.52508  1.0000
  P   P40       1.0  0.62824  0.17968  0.87569  1.0000
  H   H958      1.0  0.60400  0.03182  0.60476  1.0000
  H   H959      1.0  0.90440  0.04083  0.76965  1.0000
  C   C1211     1.0  0.88643  0.28707  0.59501  1.0000
  C   C1212     1.0  0.66844  0.14577  0.89226  1.0000
  H   H960      1.0  0.85744  0.04240  0.92057  1.0000
  C   C1213     1.0  0.85705  0.25512  0.53011  1.0000
  S   S163      1.0  0.96923  0.32656  0.59321  1.0000
  C   C1214     1.0  0.64296  0.15647  0.89830  1.0000
  H   H961      1.0  0.60977  0.15688  0.92734  1.0000
  C   C1215     1.0  0.53665  0.17830  0.88802  1.0000
  C   C1216     1.0  0.61765  0.12262  0.61905  1.0000
  H   H962      1.0  0.90174  0.11121  0.93290  1.0000
  H   H963      1.0  0.90294  0.06020  0.91767  1.0000
  C   C1217     1.0  0.85268  0.27988  0.63033  1.0000
  H   H964      1.0  0.75162  0.27905  0.67515  1.0000
  H   H965      1.0  0.97126  0.04486  0.99647  1.0000
  C   C1218     1.0  0.59222  0.21619  0.51762  1.0000
  C   C1219     1.0  0.63951  0.21255  0.88295  1.0000
  Fe  Fe82      1.0  0.96348  0.30788  0.55282  1.0000
  H   H966      1.0  0.87325  0.11487  0.76209  1.0000
  H   H967      1.0  0.61437  0.09697  0.58472  1.0000
  S   S164      1.0  0.74375  0.02370  0.56809  1.0000
  C   C1220     1.0  0.62954  0.09408  0.52197  1.0000
  C   C1221     1.0  0.66619  0.11985  0.93261  1.0000
  C   C1222     1.0  0.74393  0.32075  0.72842  1.0000
  S   S165      1.0  0.98998  0.31783  0.51725  1.0000
  C   C1223     1.0  0.62994  0.12578  0.64351  1.0000
  H   H968      1.0  0.58608  0.15308  0.84681  1.0000
  C   C1224     1.0  0.86680  0.29611  0.57832  1.0000
  H   H969      1.0  0.82129  0.23478  0.62530  1.0000
  S   S166      1.0  0.98991  0.24953  0.68943  1.0000
  H   H970      1.0  0.98839  0.30666  0.68589  1.0000
  H   H971      1.0  0.60461  0.23228  0.86782  1.0000
  C   C1225     1.0  0.62360  0.23464  0.87694  1.0000
  C   C1226     1.0  0.62334  0.09978  0.60373  1.0000
  C   C1227     1.0  0.83355  0.30091  0.68297  1.0000
  S   S167      1.0  0.92658  0.02301  0.86894  1.0000
  H   H972      1.0  0.95071  0.14780  0.87202  1.0000
  C   C1228     1.0  0.92901  0.13965  0.80703  1.0000
  C   C1229     1.0  0.58685  0.14946  0.55166  1.0000
  C   C1230     1.0  0.98000  0.31537  0.64503  1.0000
  H   H973      1.0  0.94554  0.15046  0.63363  1.0000
  H   H974      1.0  0.90646  0.14178  0.89499  1.0000
  H   H975      1.0  0.56001  0.03428  0.62898  1.0000
  C   C1231     1.0  0.92961  0.09735  0.72511  1.0000
  C   C1232     1.0  0.62932  0.14889  0.92195  1.0000
  C   C1233     1.0  0.97513  0.30495  0.61979  1.0000
  H   H976      1.0  0.91986  0.12677  0.66872  1.0000
  H   H977      1.0  0.54601  0.17594  0.59640  1.0000
  S   S168      1.0  0.92539  0.31696  0.53247  1.0000
  H   H978      1.0  0.66763  0.06918  0.64333  1.0000
  C   C1234     1.0  0.65342  0.08391  0.63683  1.0000
  H   H979      1.0  0.60698  0.03507  0.55592  1.0000
  H   H980      1.0  0.90625  0.10611  0.99792  1.0000
  H   H981      1.0  0.53730  0.15266  0.85360  1.0000
  C   C1235     1.0  0.75006  0.29762  0.71398  1.0000
  H   H982      1.0  0.69946  0.11900  0.90417  1.0000
  P   P41       1.0  0.56701  0.04457  0.51599  1.0000
  C   C1236     1.0  0.97016  0.03834  0.92888  1.0000
  H   H983      1.0  0.87231  0.30220  0.55828  1.0000
  H   H984      1.0  0.98640  0.19295  0.69342  1.0000
  C   C1237     1.0  0.83296  0.28784  0.61283  1.0000
  H   H985      1.0  0.95679  0.02495  0.72181  1.0000
  C   C1238     1.0  0.58764  0.03719  0.56616  1.0000
  C   C1239     1.0  0.92341  0.18333  0.78874  1.0000
  H   H986      1.0  0.65955  0.16868  0.53278  1.0000
  C   C1240     1.0  0.81419  0.31817  0.67303  1.0000
  C   C1241     1.0  0.84396  0.30649  0.70791  1.0000
  C   C1242     1.0  0.84006  0.29606  0.58703  1.0000
  H   H987      1.0  0.63595  0.10804  0.53665  1.0000
  C   C1243     1.0  0.94857  0.13416  0.88849  1.0000
  C   C1244     1.0  0.54914  0.16399  0.86701  1.0000
  C   C1245     1.0  0.57688  0.16431  0.86321  1.0000
  C   C1246     1.0  0.94318  0.09844  0.93091  1.0000
  H   H988      1.0  0.82480  0.30169  0.57345  1.0000
  C   C1247     1.0  0.93357  0.14190  0.67440  1.0000
  Fe  Fe83      1.0  0.92656  0.27397  0.52121  1.0000
  P   P42       1.0  0.94006  0.07578  0.95851  1.0000
  C   C1248     1.0  0.82600  0.13447  0.71966  1.0000
  C   C1249     1.0  0.57965  0.19325  0.90159  1.0000
  C   C1250     1.0  0.96367  0.04856  0.95439  1.0000
  H   H989      1.0  0.91376  0.33473  0.61338  1.0000
  S   S169      1.0  0.89152  0.24649  0.52893  1.0000
  H   H990      1.0  0.86848  0.06785  0.75041  1.0000
  C   C1251     1.0  0.96816  0.10244  0.91820  1.0000
  C   C1252     1.0  0.97082  0.12017  0.89706  1.0000
  C   C1253     1.0  0.74840  0.29729  0.68628  1.0000
  H   H991      1.0  0.67940  0.15159  0.87435  1.0000
  C   C1254     1.0  0.92433  0.05137  0.71254  1.0000
  H   H992      1.0  0.91601  0.18541  0.74712  1.0000
  C   C1255     1.0  0.99619  0.01840  0.97284  1.0000
  H   H993      1.0  0.67517  0.10562  0.94572  1.0000
  C   C1256     1.0  0.92210  0.14494  0.75968  1.0000
  H   H994      1.0  0.92768  0.10738  0.77951  1.0000
  C   C1257     1.0  0.59236  0.17902  0.88043  1.0000
  H   H995      1.0  0.55130  0.20549  0.51161  1.0000
  C   C1258     1.0  0.92683  0.10745  0.00329  1.0000
  S   S170      1.0  0.95425  0.30441  0.73531  1.0000
  C   C1259     1.0  0.96468  0.06508  0.73304  1.0000
  C   C1260     1.0  0.64220  0.19033  0.82233  1.0000
  C   C1261     1.0  0.86590  0.04691  0.75310  1.0000
  C   C1262     1.0  0.97142  0.17887  0.68811  1.0000
  S   S171      1.0  0.99333  0.06164  0.85787  1.0000
  H   H996      1.0  0.93112  0.17575  0.82981  1.0000
  H   H997      1.0  0.78343  0.03360  0.68637  1.0000
  C   C1263     1.0  0.97620  0.03778  0.97648  1.0000
  H   H998      1.0  0.97848  0.18401  0.64593  1.0000
  H   H999      1.0  0.81203  0.28716  0.61873  1.0000
  H   H1000     1.0  0.63034  0.12482  0.95719  1.0000
  C   C1264     1.0  0.64094  0.13065  0.93901  1.0000
  H   H1001     1.0  0.58036  0.15114  0.50962  1.0000
  C   C1265     1.0  0.83682  0.31809  0.80958  1.0000
  C   C1266     1.0  0.94838  0.15497  0.65446  1.0000
  C   C1267     1.0  0.67992  0.12742  0.90924  1.0000
  C   C1268     1.0  0.53814  0.04039  0.59349  1.0000
  P   P43       1.0  0.91743  0.13101  0.72699  1.0000
  C   C1269     1.0  0.81149  0.24557  0.54610  1.0000
  H   H1002     1.0  0.75463  0.27957  0.72448  1.0000
  C   C1270     1.0  0.91989  0.17237  0.76358  1.0000
  H   H1003     1.0  0.63683  0.12856  0.84858  1.0000
  H   H1004     1.0  0.77474  0.02801  0.73506  1.0000
  H   H1005     1.0  0.99025  0.09071  0.98192  1.0000
  C   C1271     1.0  0.88170  0.13236  0.72336  1.0000
  C   C1272     1.0  0.86498  0.12295  0.74420  1.0000
  H   H1006     1.0  0.88215  0.15092  0.68444  1.0000
  C   C1273     1.0  0.92628  0.12861  0.78172  1.0000
  C   C1274     1.0  0.87012  0.14308  0.70070  1.0000
  H   H1007     1.0  0.87953  0.31267  0.80359  1.0000
  H   H1008     1.0  0.84615  0.22139  0.55385  1.0000
  C   C1275     1.0  0.83730  0.12389  0.74228  1.0000
  C   C1276     1.0  0.99082  0.18879  0.81019  1.0000
  H   H1009     1.0  0.82593  0.04750  0.73912  1.0000
  H   H1010     1.0  0.99021  0.12304  0.88738  1.0000
  H   H1011     1.0  0.96737  0.10642  0.74195  1.0000
  H   H1012     1.0  0.96036  0.04587  0.91160  1.0000
  C   C1277     1.0  0.93657  0.14824  0.70139  1.0000
  C   C1278     1.0  0.91445  0.07739  0.71390  1.0000
  C   C1279     1.0  0.56132  0.03687  0.60758  1.0000
  H   H1013     1.0  0.83351  0.15225  0.68136  1.0000
  H   H1014     1.0  0.89505  0.08180  0.70622  1.0000
  H   H1015     1.0  0.74368  0.32003  0.74995  1.0000
  H   H1016     1.0  0.63922  0.01400  0.51101  1.0000
  H   H1017     1.0  0.51174  0.02891  0.50994  1.0000
  C   C1280     1.0  0.99374  0.16971  0.83020  1.0000
  H   H1018     1.0  0.98805  0.19476  0.76802  1.0000
  S   S172      1.0  0.98865  0.22285  0.81907  1.0000
  C   C1281     1.0  0.76270  0.01784  0.72102  1.0000
  H   H1019     1.0  0.98073  0.33649  0.64789  1.0000
  H   H1020     1.0  0.51515  0.17807  0.89089  1.0000
  H   H1021     1.0  0.77416  0.33342  0.54170  1.0000
  H   H1022     1.0  0.99321  0.14718  0.75649  1.0000
  C   C1282     1.0  0.59711  0.06246  0.50798  1.0000
  H   H1023     1.0  0.77055  0.32895  0.59066  1.0000
  C   C1283     1.0  0.75203  0.00797  0.67486  1.0000
  S   S173      1.0  0.75952  0.01229  0.64037  1.0000
  H   H1024     1.0  0.99549  0.01148  0.90566  1.0000
  H   H1025     1.0  0.51889  0.04050  0.60396  1.0000
  Fe  Fe84      1.0  0.00108  0.06387  0.81355  1.0000
  S   S174      1.0  0.68956  0.00947  0.60508  1.0000
  H   H1026     1.0  0.86441  0.33850  0.61567  1.0000
  H   H1027     1.0  0.64268  0.32953  0.75718  1.0000
  H   H1028     1.0  0.86112  0.29001  0.50646  1.0000
  H   H1029     1.0  0.81281  0.30179  0.50955  1.0000
  H   H1030     1.0  0.68165  0.33975  0.72777  1.0000
  Fe  Fe85      1.0  0.98732  0.27497  0.50653  1.0000
  H   H1031     1.0  0.71904  0.03710  0.50588  1.0000
  C   C1284     1.0  0.74542  0.59403  0.17606  1.0000
  S   S175      1.0  0.97559  0.56419  0.45746  1.0000
  Fe  Fe86      1.0  0.93628  0.50301  0.48209  1.0000
  C   C1285     1.0  0.56321  0.58852  0.16561  1.0000
  C   C1286     1.0  0.50977  0.49830  0.08127  1.0000
  Fe  Fe87      1.0  0.93177  0.55610  0.45427  1.0000
  S   S176      1.0  0.89690  0.58209  0.44146  1.0000
  S   S177      1.0  0.75172  0.64022  0.29518  1.0000
  S   S178      1.0  0.93858  0.51437  0.43901  1.0000
  H   H1032     1.0  0.53916  0.39652  0.08026  1.0000
  C   C1287     1.0  0.61605  0.61437  0.07022  1.0000
  C   C1288     1.0  0.68330  0.60455  0.04063  1.0000
  C   C1289     1.0  0.53397  0.59889  0.04895  1.0000
  S   S179      1.0  0.55256  0.41462  0.02782  1.0000
  C   C1290     1.0  0.51202  0.59853  0.22990  1.0000
  H   H1033     1.0  0.51028  0.49117  0.12344  1.0000
  H   H1034     1.0  0.85782  0.67052  0.12947  1.0000
  H   H1035     1.0  0.60535  0.39137  0.01723  1.0000
  C   C1291     1.0  0.94498  0.40773  0.45765  1.0000
  S   S180      1.0  0.52580  0.52244  0.25396  1.0000
  H   H1036     1.0  0.92656  0.62933  0.36000  1.0000
  C   C1292     1.0  0.72438  0.67270  0.14343  1.0000
  C   C1293     1.0  0.86836  0.49799  0.44682  1.0000
  S   S181      1.0  0.54009  0.45545  0.21675  1.0000
  H   H1037     1.0  0.50806  0.35981  0.19883  1.0000
  H   H1038     1.0  0.95094  0.55523  0.30450  1.0000
  S   S182      1.0  0.52846  0.64832  0.24330  1.0000
  H   H1039     1.0  0.53481  0.53714  0.02201  1.0000
  C   C1294     1.0  0.52758  0.55724  0.24916  1.0000
  C   C1295     1.0  0.54526  0.57193  0.26422  1.0000
  C   C1296     1.0  0.54656  0.59968  0.26196  1.0000
  C   C1297     1.0  0.52961  0.61320  0.24509  1.0000
  C   C1298     1.0  0.71928  0.38361  0.01129  1.0000
  H   H1040     1.0  0.65611  0.59823  0.00946  1.0000
  H   H1041     1.0  0.55795  0.56178  0.27789  1.0000
  H   H1042     1.0  0.56006  0.61066  0.27391  1.0000
  H   H1043     1.0  0.55012  0.56260  0.19710  1.0000
  C   C1299     1.0  0.55457  0.43011  0.05913  1.0000
  H   H1044     1.0  0.68405  0.44022  0.04069  1.0000
  C   C1300     1.0  0.54702  0.42846  0.10733  1.0000
  C   C1301     1.0  0.55744  0.45373  0.10982  1.0000
  C   C1302     1.0  0.56655  0.46714  0.08689  1.0000
  C   C1303     1.0  0.56468  0.45555  0.06153  1.0000
  C   C1304     1.0  0.75780  0.59039  0.20024  1.0000
  C   C1305     1.0  0.74208  0.36732  0.00994  1.0000
  H   H1045     1.0  0.86153  0.60527  0.48767  1.0000
  H   H1046     1.0  0.57147  0.46610  0.04393  1.0000
  H   H1047     1.0  0.85500  0.53745  0.45745  1.0000
  H   H1048     1.0  0.91428  0.54382  0.39678  1.0000
  C   C1306     1.0  0.63061  0.39972  0.10083  1.0000
  C   C1307     1.0  0.75153  0.60730  0.22176  1.0000
  Fe  Fe88      1.0  0.84158  0.67251  0.32473  1.0000
  H   H1049     1.0  0.65367  0.36450  0.10805  1.0000
  C   C1308     1.0  0.69792  0.64621  0.28803  1.0000
  H   H1050     1.0  0.50607  0.49989  0.03873  1.0000
  C   C1309     1.0  0.67300  0.65925  0.29134  1.0000
  C   C1310     1.0  0.93741  0.43353  0.46559  1.0000
  C   C1311     1.0  0.71734  0.63699  0.03195  1.0000
  C   C1312     1.0  0.70815  0.64064  0.00629  1.0000
  Fe  Fe89      1.0  0.52915  0.46119  0.17411  1.0000
  C   C1313     1.0  0.54617  0.41648  0.08207  1.0000
  C   C1314     1.0  0.89261  0.60101  0.41223  1.0000
  C   C1315     1.0  0.86678  0.60960  0.40614  1.0000
  C   C1316     1.0  0.86245  0.62518  0.38353  1.0000
  C   C1317     1.0  0.88397  0.63252  0.36679  1.0000
  C   C1318     1.0  0.90977  0.62381  0.37281  1.0000
  C   C1319     1.0  0.91411  0.60827  0.39548  1.0000
  H   H1051     1.0  0.85000  0.60423  0.41903  1.0000
  H   H1052     1.0  0.84245  0.63148  0.37903  1.0000
  H   H1053     1.0  0.93411  0.60222  0.40016  1.0000
  H   H1054     1.0  0.65294  0.47249  0.06954  1.0000
  H   H1055     1.0  0.88942  0.35264  0.44408  1.0000
  C   C1320     1.0  0.55968  0.54987  0.05344  1.0000
  C   C1321     1.0  0.65093  0.39548  0.04799  1.0000
  Fe  Fe90      1.0  0.51219  0.49000  0.22580  1.0000
  C   C1322     1.0  0.87583  0.34444  0.48431  1.0000
  S   S183      1.0  0.87981  0.65250  0.33824  1.0000
  C   C1323     1.0  0.62327  0.41831  0.08197  1.0000
  C   C1324     1.0  0.63315  0.41614  0.05561  1.0000
  H   H1056     1.0  0.54035  0.41787  0.12495  1.0000
  C   C1325     1.0  0.56343  0.66696  0.15510  1.0000
  C   C1326     1.0  0.88045  0.36078  0.46240  1.0000
  H   H1057     1.0  0.88658  0.64162  0.46653  1.0000
  C   C1327     1.0  0.68658  0.47062  0.01113  1.0000
  C   C1328     1.0  0.67369  0.60858  0.01518  1.0000
  H   H1058     1.0  0.60963  0.43423  0.08781  1.0000
  H   H1059     1.0  0.62664  0.43045  0.04114  1.0000
  H   H1060     1.0  0.86108  0.41960  0.48970  1.0000
  C   C1329     1.0  0.63279  0.63617  0.07048  1.0000
  H   H1061     1.0  0.52442  0.51371  0.08178  1.0000
  Fe  Fe91      1.0  0.98203  0.52152  0.44588  1.0000
  C   C1330     1.0  0.76156  0.63843  0.39002  1.0000
  H   H1062     1.0  0.87901  0.40053  0.44771  1.0000
  C   C1331     1.0  0.78088  0.64794  0.40683  1.0000
  H   H1063     1.0  0.71203  0.61626  0.06902  1.0000
  H   H1064     1.0  0.77210  0.57438  0.20243  1.0000
  C   C1332     1.0  0.53974  0.55329  0.03507  1.0000
  H   H1065     1.0  0.63660  0.58380  0.12628  1.0000
  C   C1333     1.0  0.94156  0.38660  0.47532  1.0000
  H   H1066     1.0  0.86905  0.49138  0.46728  1.0000
  H   H1067     1.0  0.63179  0.65086  0.05495  1.0000
  H   H1068     1.0  0.60257  0.61246  0.05413  1.0000
  C   C1334     1.0  0.62181  0.62918  0.18348  1.0000
  H   H1069     1.0  0.72163  0.40480  0.01149  1.0000
  H   H1070     1.0  0.73358  0.64886  0.03875  1.0000
  H   H1071     1.0  0.56045  0.60627  0.17769  1.0000
  C   C1335     1.0  0.65269  0.61971  0.11028  1.0000
  H   H1072     1.0  0.52411  0.61790  0.04719  1.0000
  S   S184      1.0  0.53986  0.65968  0.10776  1.0000
  C   C1336     1.0  0.87658  0.48096  0.42599  1.0000
  C   C1337     1.0  0.72124  0.63236  0.19453  1.0000
  C   C1338     1.0  0.61678  0.59557  0.09065  1.0000
  H   H1073     1.0  0.96086  0.55684  0.38908  1.0000
  C   C1339     1.0  0.65832  0.37689  0.06712  1.0000
  C   C1340     1.0  0.72700  0.61477  0.17327  1.0000
  C   C1341     1.0  0.73316  0.62802  0.21902  1.0000
  C   C1342     1.0  0.74242  0.65568  0.38003  1.0000
  H   H1074     1.0  0.57021  0.52474  0.12259  1.0000
  H   H1075     1.0  0.57491  0.48658  0.08871  1.0000
  C   C1343     1.0  0.86499  0.64185  0.46638  1.0000
  C   C1344     1.0  0.85147  0.66218  0.45358  1.0000
  C   C1345     1.0  0.66527  0.64323  0.19730  1.0000
  S   S185      1.0  0.91358  0.46949  0.50067  1.0000
  H   H1076     1.0  0.66394  0.65589  0.09062  1.0000
  C   C1346     1.0  0.61706  0.61713  0.20813  1.0000
  C   C1347     1.0  0.63643  0.61786  0.22729  1.0000
  C   C1348     1.0  0.66038  0.63085  0.22190  1.0000
  C   C1349     1.0  0.56763  0.57133  0.06898  1.0000
  C   C1350     1.0  0.93092  0.39136  0.50104  1.0000
  S   S186      1.0  0.92706  0.54391  0.49736  1.0000
  C   C1351     1.0  0.57777  0.56680  0.12418  1.0000
  C   C1352     1.0  0.86031  0.52385  0.44128  1.0000
  C   C1353     1.0  0.92572  0.43804  0.49097  1.0000
  H   H1077     1.0  0.78788  0.64122  0.46489  1.0000
  H   H1078     1.0  0.75008  0.58075  0.15947  1.0000
  C   C1354     1.0  0.82304  0.62119  0.47784  1.0000
  H   H1079     1.0  0.72833  0.64043  0.23623  1.0000
  S   S187      1.0  0.56059  0.46849  0.14134  1.0000
  C   C1355     1.0  0.62183  0.53141  0.05883  1.0000
  H   H1080     1.0  0.69316  0.48544  0.02494  1.0000
  C   C1356     1.0  0.61451  0.53845  0.08516  1.0000
  C   C1357     1.0  0.70506  0.61881  0.04905  1.0000
  H   H1081     1.0  0.63948  0.50174  0.03254  1.0000
  C   C1358     1.0  0.87460  0.38776  0.46448  1.0000
  H   H1082     1.0  0.59821  0.60764  0.21261  1.0000
  H   H1083     1.0  0.63263  0.60882  0.24655  1.0000
  H   H1084     1.0  0.67508  0.63139  0.23703  1.0000
  C   C1359     1.0  0.84029  0.47674  0.30787  1.0000
  C   C1360     1.0  0.86176  0.45973  0.30118  1.0000
  C   C1361     1.0  0.88645  0.46366  0.31230  1.0000
  C   C1362     1.0  0.88973  0.48462  0.33006  1.0000
  C   C1363     1.0  0.86832  0.50197  0.33674  1.0000
  C   C1364     1.0  0.84349  0.49772  0.32566  1.0000
  P   P44       1.0  0.87261  0.52855  0.36033  1.0000
  C   C1365     1.0  0.86902  0.51588  0.39389  1.0000
  C   C1366     1.0  0.90600  0.54078  0.35490  1.0000
  C   C1367     1.0  0.92209  0.54569  0.37652  1.0000
  C   C1368     1.0  0.94852  0.55335  0.37221  1.0000
  C   C1369     1.0  0.95892  0.55678  0.34628  1.0000
  C   C1370     1.0  0.94291  0.55239  0.32460  1.0000
  C   C1371     1.0  0.91660  0.54427  0.32886  1.0000
  C   C1372     1.0  0.86061  0.53276  0.41496  1.0000
  C   C1373     1.0  0.84822  0.55449  0.35468  1.0000
  C   C1374     1.0  0.82201  0.55231  0.36527  1.0000
  C   C1375     1.0  0.80257  0.57135  0.35955  1.0000
  C   C1376     1.0  0.80910  0.59272  0.34320  1.0000
  C   C1377     1.0  0.83513  0.59516  0.33280  1.0000
  C   C1378     1.0  0.85466  0.57626  0.33859  1.0000
  H   H1085     1.0  0.82112  0.47366  0.29930  1.0000
  H   H1086     1.0  0.85923  0.44347  0.28743  1.0000
  H   H1087     1.0  0.90307  0.45040  0.30724  1.0000
  H   H1088     1.0  0.90896  0.48721  0.33870  1.0000
  H   H1089     1.0  0.82656  0.51054  0.33055  1.0000
  C   C1379     1.0  0.55384  0.59555  0.06734  1.0000
  H   H1090     1.0  0.67183  0.36067  0.06190  1.0000
  H   H1091     1.0  0.90451  0.54071  0.31186  1.0000
  H   H1092     1.0  0.85548  0.55320  0.41123  1.0000
  H   H1093     1.0  0.81651  0.53565  0.37761  1.0000
  H   H1094     1.0  0.78235  0.56944  0.36755  1.0000
  H   H1095     1.0  0.79405  0.60745  0.33854  1.0000
  H   H1096     1.0  0.84036  0.61200  0.32053  1.0000
  H   H1097     1.0  0.87471  0.57906  0.33061  1.0000
  H   H1098     1.0  0.61983  0.52836  0.12662  1.0000
  C   C1380     1.0  0.52722  0.57791  0.03254  1.0000
  C   C1381     1.0  0.69157  0.34486  0.01199  1.0000
  H   H1099     1.0  0.00282  0.44880  0.49339  1.0000
  H   H1100     1.0  0.51298  0.60721  0.12482  1.0000
  H   H1101     1.0  0.65564  0.65135  0.28225  1.0000
  C   C1382     1.0  0.56873  0.54268  0.13444  1.0000
  H   H1102     1.0  0.79843  0.66651  0.18144  1.0000
  H   H1103     1.0  0.88427  0.47654  0.38399  1.0000
  P   P45       1.0  0.59438  0.56795  0.09176  1.0000
  H   H1104     1.0  0.56907  0.53059  0.05492  1.0000
  C   C1383     1.0  0.80944  0.64145  0.46498  1.0000
  H   H1105     1.0  0.55877  0.61207  0.07992  1.0000
  H   H1106     1.0  0.64330  0.48633  0.11650  1.0000
  H   H1107     1.0  0.54952  0.65258  0.16287  1.0000
  Fe  Fe92      1.0  0.54449  0.66898  0.00936  1.0000
  H   H1108     1.0  0.64861  0.65132  0.15887  1.0000
  H   H1109     1.0  0.69976  0.62817  0.27647  1.0000
  H   H1110     1.0  0.58649  0.34126  0.48399  1.0000
  H   H1111     1.0  0.72803  0.64849  0.36627  1.0000
  H   H1112     1.0  0.58637  0.62285  0.00950  1.0000
  C   C1384     1.0  0.64812  0.37900  0.09341  1.0000
  C   C1385     1.0  0.65099  0.63895  0.09057  1.0000
  P   P46       1.0  0.66417  0.39318  0.01399  1.0000
  S   S188      1.0  0.82607  0.66342  0.28414  1.0000
  C   C1386     1.0  0.87698  0.48984  0.39963  1.0000
  P   P47       1.0  0.69707  0.65885  0.19096  1.0000
  C   C1387     1.0  0.85082  0.62128  0.47833  1.0000
  H   H1113     1.0  0.76078  0.60444  0.24072  1.0000
  H   H1114     1.0  0.66720  0.62157  0.12552  1.0000
  S   S189      1.0  0.97993  0.50602  0.48750  1.0000
  H   H1115     1.0  0.61615  0.54391  0.04260  1.0000
  H   H1116     1.0  0.71729  0.61714  0.15456  1.0000
  C   C1388     1.0  0.55672  0.56403  0.17648  1.0000
  C   C1389     1.0  0.63549  0.59823  0.11050  1.0000
  C   C1390     1.0  0.64577  0.64214  0.17803  1.0000
  C   C1391     1.0  0.82359  0.66172  0.45209  1.0000
  Fe  Fe93      1.0  0.97128  0.54805  0.49904  1.0000
  H   H1117     1.0  0.55374  0.52227  0.16922  1.0000
  H   H1118     1.0  0.79627  0.63447  0.41319  1.0000
  H   H1119     1.0  0.76191  0.61787  0.38399  1.0000
  H   H1120     1.0  0.67335  0.59091  0.05410  1.0000
  H   H1121     1.0  0.62248  0.40133  0.12114  1.0000
  H   H1122     1.0  0.60671  0.62899  0.16872  1.0000
  C   C1392     1.0  0.86446  0.39852  0.48858  1.0000
  S   S190      1.0  0.50906  0.67277  0.03792  1.0000
  C   C1393     1.0  0.72048  0.65640  0.29980  1.0000
  H   H1123     1.0  0.97936  0.56292  0.34306  1.0000
  S   S191      1.0  0.95001  0.35439  0.46459  1.0000
  H   H1124     1.0  0.94000  0.44976  0.45187  1.0000
  C   C1394     1.0  0.57378  0.58996  0.13947  1.0000
  H   H1125     1.0  0.95349  0.40415  0.43780  1.0000
  C   C1395     1.0  0.55896  0.54122  0.16078  1.0000
  C   C1396     1.0  0.56377  0.67334  0.12808  1.0000
  Fe  Fe94      1.0  0.78547  0.66708  0.30460  1.0000
  H   H1126     1.0  0.57903  0.60908  0.13139  1.0000
  H   H1127     1.0  0.88353  0.46115  0.43045  1.0000
  C   C1397     1.0  0.63541  0.50760  0.05314  1.0000
  C   C1398     1.0  0.64291  0.49119  0.07390  1.0000
  C   C1399     1.0  0.63741  0.49895  0.10033  1.0000
  C   C1400     1.0  0.62368  0.52273  0.10599  1.0000
  H   H1128     1.0  0.91856  0.66832  0.03663  1.0000
  H   H1129     1.0  0.50895  0.56202  0.10631  1.0000
  H   H1130     1.0  0.81210  0.60529  0.48727  1.0000
  S   S192      1.0  0.57539  0.67238  0.04025  1.0000
  C   C1401     1.0  0.68125  0.44503  0.02001  1.0000
  H   H1131     1.0  0.51282  0.58094  0.01741  1.0000
  H   H1132     1.0  0.96182  0.66611  0.01139  1.0000
  C   C1402     1.0  0.51118  0.57074  0.23169  1.0000
  H   H1133     1.0  0.00294  0.35991  0.42795  1.0000
  H   H1134     1.0  0.61118  0.58047  0.01376  1.0000
  H   H1135     1.0  0.74153  0.66209  0.15060  1.0000
  C   C1403     1.0  0.69383  0.37248  0.01207  1.0000
  H   H1136     1.0  0.98825  0.40281  0.50085  1.0000
  S   S193      1.0  0.80116  0.67264  0.34549  1.0000
  H   H1137     1.0  0.76167  0.37601  0.00908  1.0000
  C   C1404     1.0  0.89231  0.36873  0.77265  1.0000
  Fe  Fe95      1.0  0.58531  0.49256  0.97492  1.0000
  S   S194      1.0  0.54425  0.48042  0.98822  1.0000
  H   H1138     1.0  0.95835  0.42177  0.54786  1.0000
  Fe  Fe96      1.0  0.59604  0.44284  0.94025  1.0000
  S   S195      1.0  0.55532  0.42663  0.95044  1.0000
  S   S196      1.0  0.63207  0.42602  0.91601  1.0000
  Fe  Fe97      1.0  0.54022  0.46843  0.94553  1.0000
  H   H1139     1.0  0.97488  0.60252  0.63809  1.0000
  C   C1405     1.0  0.66524  0.57767  0.95852  1.0000
  S   S197      1.0  0.58028  0.48379  0.93173  1.0000
  S   S198      1.0  0.60410  0.45308  0.98289  1.0000
  C   C1406     1.0  0.61252  0.38142  0.99917  1.0000
  C   C1407     1.0  0.78742  0.34436  0.55407  1.0000
  H   H1140     1.0  0.80094  0.35392  0.61915  1.0000
  C   C1408     1.0  0.63075  0.55954  0.93180  1.0000
  H   H1141     1.0  0.80942  0.36791  0.78641  1.0000
  C   C1409     1.0  0.59472  0.58172  0.00064  1.0000
  C   C1410     1.0  0.73702  0.34411  0.71523  1.0000
  S   S199      1.0  0.97059  0.54044  0.72551  1.0000
  S   S200      1.0  0.95878  0.53776  0.65085  1.0000
  C   C1411     1.0  0.98187  0.61493  0.59750  1.0000
  C   C1412     1.0  0.87590  0.34905  0.62991  1.0000
  Fe  Fe98      1.0  0.56253  0.44011  0.99237  1.0000
  S   S201      1.0  0.54198  0.63779  0.97723  1.0000
  C   C1413     1.0  0.61832  0.35684  0.87671  1.0000
  H   H1142     1.0  0.94837  0.48784  0.70600  1.0000
  H   H1143     1.0  0.96142  0.35984  0.71849  1.0000
  C   C1414     1.0  0.97235  0.36931  0.70235  1.0000
  H   H1144     1.0  0.76619  0.61979  0.92710  1.0000
  C   C1415     1.0  0.99436  0.38321  0.76488  1.0000
  C   C1416     1.0  0.95984  0.38748  0.68576  1.0000
  H   H1145     1.0  0.95228  0.43976  0.71220  1.0000
  H   H1146     1.0  0.94437  0.42718  0.78207  1.0000
  C   C1417     1.0  0.87779  0.42148  0.58150  1.0000
  C   C1418     1.0  0.73506  0.34344  0.68734  1.0000
  C   C1419     1.0  0.70135  0.63780  0.94103  1.0000
  H   H1147     1.0  0.94015  0.35981  0.64450  1.0000
  H   H1148     1.0  0.51569  0.49581  0.84420  1.0000
  C   C1420     1.0  0.84950  0.45023  0.53209  1.0000
  H   H1149     1.0  0.63618  0.34646  0.93323  1.0000
  C   C1421     1.0  0.55956  0.60771  0.98107  1.0000
  C   C1422     1.0  0.55231  0.58537  0.96653  1.0000
  C   C1423     1.0  0.56581  0.56108  0.96955  1.0000
  C   C1424     1.0  0.74703  0.62953  0.92495  1.0000
  H   H1150     1.0  0.53599  0.58675  0.95317  1.0000
  H   H1151     1.0  0.55986  0.54385  0.95856  1.0000
  C   C1425     1.0  0.63595  0.39572  0.89815  1.0000
  C   C1426     1.0  0.66179  0.38698  0.89002  1.0000
  C   C1427     1.0  0.98204  0.60698  0.92242  1.0000
  H   H1152     1.0  0.83482  0.38316  0.59853  1.0000
  H   H1153     1.0  0.96588  0.41423  0.65266  1.0000
  C   C1428     1.0  0.61421  0.38045  0.89150  1.0000
  H   H1154     1.0  0.67874  0.39868  0.89500  1.0000
  H   H1155     1.0  0.75945  0.65014  0.88926  1.0000
  C   C1429     1.0  0.67452  0.37085  0.79851  1.0000
  H   H1156     1.0  0.59423  0.38698  0.89752  1.0000
  C   C1430     1.0  0.98598  0.55240  0.56429  1.0000
  C   C1431     1.0  0.95897  0.54948  0.57122  1.0000
  C   C1432     1.0  0.95095  0.54419  0.59775  1.0000
  C   C1433     1.0  0.96989  0.54142  0.61737  1.0000
  C   C1434     1.0  0.90238  0.44111  0.66808  1.0000
  C   C1435     1.0  0.87788  0.37831  0.66801  1.0000
  H   H1157     1.0  0.94419  0.55243  0.55640  1.0000
  H   H1158     1.0  0.92996  0.54299  0.60322  1.0000
  C   C1436     1.0  0.72612  0.62498  0.94351  1.0000
  C   C1437     1.0  0.58711  0.55923  0.98659  1.0000
  C   C1438     1.0  0.96302  0.41979  0.77320  1.0000
  C   C1439     1.0  0.91177  0.38527  0.72238  1.0000
  C   C1440     1.0  0.90720  0.35842  0.72728  1.0000
  C   C1441     1.0  0.90056  0.46845  0.66441  1.0000
  C   C1442     1.0  0.90056  0.42513  0.59618  1.0000
  C   C1443     1.0  0.86301  0.36465  0.64965  1.0000
  C   C1444     1.0  0.80646  0.34116  0.68709  1.0000
  C   C1445     1.0  0.00097  0.61868  0.57693  1.0000
  H   H1159     1.0  0.81201  0.36489  0.72210  1.0000
  C   C1446     1.0  0.77458  0.42440  0.77437  1.0000
  C   C1447     1.0  0.79459  0.40791  0.78385  1.0000
  C   C1448     1.0  0.79436  0.38087  0.77838  1.0000
  C   C1449     1.0  0.77423  0.37023  0.76335  1.0000
  C   C1450     1.0  0.75433  0.38670  0.75317  1.0000
  C   C1451     1.0  0.75445  0.41385  0.75927  1.0000
  P   P48       1.0  0.72745  0.37356  0.73426  1.0000
  C   C1452     1.0  0.91940  0.38416  0.57843  1.0000
  H   H1160     1.0  0.66296  0.41811  0.96124  1.0000
  S   S202      1.0  0.97159  0.47153  0.75936  1.0000
  C   C1453     1.0  0.82408  0.37466  0.55809  1.0000
  H   H1161     1.0  0.67249  0.37908  0.81849  1.0000
  C   C1454     1.0  0.89657  0.39551  0.76789  1.0000
  H   H1162     1.0  0.80191  0.49697  0.52098  1.0000
  C   C1455     1.0  0.99700  0.54275  0.61013  1.0000
  C   C1456     1.0  0.92086  0.43043  0.68553  1.0000
  H   H1163     1.0  0.93921  0.40944  0.60567  1.0000
  S   S203      1.0  0.99624  0.56289  0.53216  1.0000
  C   C1457     1.0  0.91866  0.36133  0.64634  1.0000
  C   C1458     1.0  0.71744  0.39895  0.71137  1.0000
  C   C1459     1.0  0.73694  0.41189  0.69570  1.0000
  C   C1460     1.0  0.72956  0.43144  0.67774  1.0000
  C   C1461     1.0  0.70267  0.43815  0.67525  1.0000
  C   C1462     1.0  0.68315  0.42533  0.69075  1.0000
  C   C1463     1.0  0.69046  0.40581  0.70876  1.0000
  H   H1164     1.0  0.77444  0.44531  0.77908  1.0000
  H   H1165     1.0  0.80997  0.41595  0.79591  1.0000
  C   C1464     1.0  0.00497  0.54847  0.58364  1.0000
  C   C1465     1.0  0.93760  0.44751  0.69893  1.0000
  H   H1166     1.0  0.73877  0.42692  0.75271  1.0000
  H   H1167     1.0  0.85115  0.49145  0.52227  1.0000
  H   H1168     1.0  0.71541  0.67205  0.88406  1.0000
  C   C1466     1.0  0.69961  0.36546  0.75637  1.0000
  C   C1467     1.0  0.66956  0.43248  0.97543  1.0000
  H   H1169     1.0  0.71176  0.38944  0.78961  1.0000
  H   H1170     1.0  0.79157  0.35436  0.67927  1.0000
  C   C1468     1.0  0.90585  0.37725  0.66610  1.0000
  H   H1171     1.0  0.86765  0.38996  0.68357  1.0000
  H   H1172     1.0  0.84151  0.36609  0.65076  1.0000
  H   H1173     1.0  0.95706  0.47059  0.54404  1.0000
  H   H1174     1.0  0.75784  0.40679  0.69737  1.0000
  H   H1175     1.0  0.74467  0.44139  0.66572  1.0000
  H   H1176     1.0  0.69692  0.45326  0.66131  1.0000
  H   H1177     1.0  0.66229  0.43050  0.68878  1.0000
  H   H1178     1.0  0.67494  0.39621  0.72050  1.0000
  C   C1469     1.0  0.62352  0.58498  0.92394  1.0000
  C   C1470     1.0  0.96579  0.62709  0.91267  1.0000
  C   C1471     1.0  0.89771  0.35021  0.75235  1.0000
  C   C1472     1.0  0.78536  0.34192  0.58176  1.0000
  C   C1473     1.0  0.65716  0.60341  0.95187  1.0000
  C   C1474     1.0  0.63704  0.60681  0.93347  1.0000
  H   H1179     1.0  0.86195  0.43623  0.58300  1.0000
  H   H1180     1.0  0.68159  0.57436  0.97155  1.0000
  H   H1181     1.0  0.96088  0.61738  0.59378  1.0000
  C   C1475     1.0  0.92142  0.40653  0.59455  1.0000
  H   H1182     1.0  0.91590  0.50646  0.67515  1.0000
  C   C1476     1.0  0.82181  0.37230  0.58594  1.0000
  C   C1477     1.0  0.64827  0.36645  0.96865  1.0000
  H   H1183     1.0  0.88651  0.47673  0.65080  1.0000
  C   C1478     1.0  0.97506  0.40002  0.66561  1.0000
  C   C1479     1.0  0.67990  0.34853  0.74748  1.0000
  H   H1184     1.0  0.67831  0.66398  0.91655  1.0000
  H   H1185     1.0  0.60713  0.58778  0.91081  1.0000
  C   C1480     1.0  0.62511  0.65796  0.97182  1.0000
  C   C1481     1.0  0.63989  0.37919  0.99256  1.0000
  C   C1482     1.0  0.69749  0.65448  0.91925  1.0000
  H   H1186     1.0  0.92845  0.37514  0.51470  1.0000
  C   C1483     1.0  0.59387  0.37118  0.98211  1.0000
  H   H1187     1.0  0.77447  0.34917  0.76014  1.0000
  P   P49       1.0  0.67426  0.63166  0.96469  1.0000
  C   C1484     1.0  0.68654  0.62611  0.99753  1.0000
  H   H1188     1.0  0.90234  0.44270  0.60834  1.0000
  C   C1485     1.0  0.87603  0.39948  0.56446  1.0000
  H   H1189     1.0  0.65717  0.53609  0.95493  1.0000
  C   C1486     1.0  0.96967  0.39271  0.77507  1.0000
  H   H1190     1.0  0.91376  0.42063  0.52828  1.0000
  C   C1487     1.0  0.98050  0.43747  0.76036  1.0000
  C   C1488     1.0  0.74322  0.64660  0.90362  1.0000
  H   H1191     1.0  0.58791  0.35104  0.94494  1.0000
  H   H1192     1.0  0.61976  0.54264  0.92511  1.0000
  H   H1193     1.0  0.95620  0.37942  0.78538  1.0000
  H   H1194     1.0  0.88962  0.42857  0.65697  1.0000
  C   C1489     1.0  0.65493  0.35411  0.78944  1.0000
  S   S204      1.0  0.00550  0.35031  0.77057  1.0000
  C   C1490     1.0  0.93554  0.47479  0.69538  1.0000
  C   C1491     1.0  0.89666  0.38045  0.56378  1.0000
  C   C1492     1.0  0.97556  0.46036  0.54831  1.0000
  H   H1195     1.0  0.90997  0.42458  0.73993  1.0000
  C   C1493     1.0  0.64416  0.34815  0.86855  1.0000
  H   H1196     1.0  0.63136  0.62631  0.92681  1.0000
  C   C1494     1.0  0.91711  0.48527  0.67809  1.0000
  C   C1495     1.0  0.90636  0.40380  0.74289  1.0000
  P   P50       1.0  0.92467  0.39517  0.68994  1.0000
  C   C1496     1.0  0.69681  0.37656  0.78206  1.0000
  H   H1197     1.0  0.89285  0.40986  0.78377  1.0000
  H   H1198     1.0  0.79244  0.41493  0.53926  1.0000
  C   C1497     1.0  0.98177  0.65745  0.94591  1.0000
  H   H1199     1.0  0.99809  0.49609  0.55033  1.0000
  H   H1200     1.0  0.63784  0.34952  0.80237  1.0000
  C   C1498     1.0  0.83325  0.42837  0.53716  1.0000
  Fe  Fe99      1.0  0.98802  0.53506  0.68378  1.0000
  H   H1201     1.0  0.93559  0.36971  0.57710  1.0000
  H   H1202     1.0  0.68655  0.49716  0.97770  1.0000
  C   C1499     1.0  0.86539  0.35503  0.50841  1.0000
  C   C1500     1.0  0.68300  0.47723  0.98451  1.0000
  C   C1501     1.0  0.97631  0.43285  0.55030  1.0000
  P   P51       1.0  0.84834  0.39627  0.54267  1.0000
  C   C1502     1.0  0.98978  0.60666  0.62250  1.0000
  C   C1503     1.0  0.66592  0.36326  0.87545  1.0000
  C   C1504     1.0  0.65185  0.55587  0.94875  1.0000
  H   H1203     1.0  0.68589  0.35684  0.86929  1.0000
  C   C1505     1.0  0.65280  0.66050  0.96838  1.0000
  C   C1506     1.0  0.99957  0.36352  0.69860  1.0000
  H   H1204     1.0  0.89566  0.36309  0.55137  1.0000
  H   H1205     1.0  0.95333  0.62319  0.89599  1.0000
  C   C1507     1.0  0.96545  0.65217  0.92451  1.0000
  H   H1206     1.0  0.00021  0.49982  0.80839  1.0000
  C   C1508     1.0  0.80669  0.36060  0.54224  1.0000
  C   C1509     1.0  0.99872  0.47470  0.55171  1.0000
  H   H1207     1.0  0.72822  0.36045  0.67651  1.0000
  H   H1208     1.0  0.57276  0.37352  0.98715  1.0000
  H   H1209     1.0  0.80788  0.36219  0.52072  1.0000
  C   C1510     1.0  0.00235  0.39453  0.66225  1.0000
  C   C1511     1.0  0.99783  0.61191  0.94415  1.0000
  H   H1210     1.0  0.67162  0.46309  0.94599  1.0000
  C   C1512     1.0  0.65767  0.34288  0.76398  1.0000
  C   C1513     1.0  0.58070  0.60576  0.99825  1.0000
  H   H1211     1.0  0.95246  0.66746  0.91698  1.0000
  C   C1514     1.0  0.67468  0.45810  0.96665  1.0000
  H   H1212     1.0  0.61611  0.63875  0.97258  1.0000
  C   C1515     1.0  0.71843  0.65898  0.90071  1.0000
  H   H1213     1.0  0.91142  0.34371  0.71183  1.0000
  C   C1516     1.0  0.80256  0.35588  0.59771  1.0000
  Fe  Fe100     1.0  0.99303  0.50280  0.73433  1.0000
  C   C1517     1.0  0.90368  0.34705  0.62854  1.0000
  H   H1214     1.0  0.72929  0.61147  0.95977  1.0000
  S   S205      1.0  0.60441  0.52908  0.99089  1.0000
  C   C1518     1.0  0.67220  0.42589  0.00229  1.0000
  H   H1215     1.0  0.88515  0.36228  0.79215  1.0000
  C   C1519     1.0  0.80547  0.43150  0.53603  1.0000
  H   H1216     1.0  0.87099  0.44815  0.53211  1.0000
  H   H1217     1.0  0.71750  0.65539  0.99365  1.0000
  C   C1520     1.0  0.00469  0.42779  0.74925  1.0000
  C   C1521     1.0  0.62959  0.35591  0.95183  1.0000
  C   C1522     1.0  0.86000  0.38229  0.51090  1.0000
  H   H1218     1.0  0.66919  0.36512  0.96262  1.0000
  H   H1219     1.0  0.86210  0.34197  0.52517  1.0000
  H   H1220     1.0  0.00018  0.39822  0.55643  1.0000
  C   C1523     1.0  0.00023  0.41956  0.55515  1.0000
  C   C1524     1.0  0.81060  0.47788  0.52557  1.0000
  H   H1221     1.0  0.60134  0.34534  0.87142  1.0000
  C   C1525     1.0  0.99760  0.63700  0.95600  1.0000
  C   C1526     1.0  0.60238  0.35848  0.95843  1.0000
  H   H1222     1.0  0.77279  0.45852  0.52948  1.0000
  C   C1527     1.0  0.79422  0.45622  0.53039  1.0000
  C   C1528     1.0  0.81775  0.34699  0.71133  1.0000
  C   C1529     1.0  0.83825  0.47485  0.52637  1.0000
  C   C1530     1.0  0.92259  0.41699  0.50865  1.0000
  H   H1223     1.0  0.98219  0.58753  0.91328  1.0000
  H   H1224     1.0  0.99469  0.62381  0.55720  1.0000
  Fe  Fe101     1.0  0.82233  0.70735  0.27929  1.0000
  S   S206      1.0  0.83282  0.73210  0.24328  1.0000
  Fe  Fe102     1.0  0.79928  0.71589  0.33559  1.0000
  H   H1225     1.0  0.60527  0.86259  0.25560  1.0000
  S   S207      1.0  0.78138  0.74749  0.36307  1.0000
  C   C1531     1.0  0.97068  0.75821  0.12008  1.0000
  H   H1226     1.0  0.82678  0.88257  0.25425  1.0000
  S   S208      1.0  0.84104  0.71654  0.31803  1.0000
  S   S209      1.0  0.78063  0.71017  0.29640  1.0000
  Fe  Fe103     1.0  0.60793  0.70012  0.28283  1.0000
  S   S210      1.0  0.56402  0.70168  0.29417  1.0000
  C   C1532     1.0  0.74700  0.94168  0.02785  1.0000
  Fe  Fe104     1.0  0.59820  0.71332  0.22582  1.0000
  S   S211      1.0  0.55407  0.71730  0.23288  1.0000
  S   S212      1.0  0.61616  0.71794  0.18460  1.0000
  Fe  Fe105     1.0  0.56340  0.73932  0.27024  1.0000
  S   S213      1.0  0.54155  0.77517  0.28939  1.0000
  S   S214      1.0  0.60744  0.73863  0.26093  1.0000
  C   C1533     1.0  0.86128  0.83776  0.17771  1.0000
  S   S215      1.0  0.53885  0.72349  0.06344  1.0000
  H   H1227     1.0  0.84753  0.77134  0.14268  1.0000
  H   H1228     1.0  0.87096  0.76686  0.21519  1.0000
  H   H1229     1.0  0.94892  0.83534  0.00907  1.0000
  Fe  Fe106     1.0  0.79755  0.72358  0.09864  1.0000
  S   S216      1.0  0.79958  0.71037  0.05587  1.0000
  S   S217      1.0  0.79855  0.69231  0.13045  1.0000
  Fe  Fe107     1.0  0.78457  0.78006  0.08396  1.0000
  S   S218      1.0  0.78356  0.77068  0.04023  1.0000
  S   S219      1.0  0.77918  0.82087  0.10180  1.0000
  Fe  Fe108     1.0  0.76156  0.73411  0.05282  1.0000
  S   S220      1.0  0.72839  0.71095  0.03435  1.0000
  Fe  Fe109     1.0  0.82158  0.74798  0.04740  1.0000
  S   S221      1.0  0.85578  0.75494  0.01705  1.0000
  S   S222      1.0  0.75896  0.74584  0.09597  1.0000
  S   S223      1.0  0.82330  0.75890  0.09067  1.0000
  Fe  Fe110     1.0  0.83702  0.94872  0.05529  1.0000
  S   S224      1.0  0.79580  0.96216  0.06719  1.0000
  S   S225      1.0  0.84387  0.90792  0.03825  1.0000
  S   S226      1.0  0.84503  0.98377  0.02963  1.0000
  S   S227      1.0  0.85611  0.96547  0.09118  1.0000
  Fe  Fe111     1.0  0.55415  0.96709  0.33099  1.0000
  S   S228      1.0  0.54395  0.97198  0.28817  1.0000
  S   S229      1.0  0.59259  0.98113  0.34662  1.0000
  S   S230      1.0  0.54142  0.92495  0.33429  1.0000
  Fe  Fe112     1.0  0.75163  0.94184  0.35107  1.0000
  S   S231      1.0  0.73494  0.90305  0.33815  1.0000
  S   S232      1.0  0.73194  0.95655  0.39030  1.0000
  Fe  Fe113     1.0  0.77827  0.95115  0.29463  1.0000
  S   S233      1.0  0.76246  0.91348  0.27909  1.0000
  S   S234      1.0  0.80266  0.97692  0.26589  1.0000
  Fe  Fe114     1.0  0.72452  0.92467  0.30126  1.0000
  S   S235      1.0  0.68491  0.91913  0.28302  1.0000
  Fe  Fe115     1.0  0.77475  0.89606  0.31758  1.0000
  S   S236      1.0  0.79808  0.85854  0.30974  1.0000
  S   S237      1.0  0.73923  0.96388  0.31448  1.0000
  S   S238      1.0  0.79290  0.93332  0.33278  1.0000
  C   C1534     1.0  0.61826  0.96534  0.32770  1.0000
  C   C1535     1.0  0.64481  0.97084  0.33243  1.0000
  C   C1536     1.0  0.66540  0.95668  0.31883  1.0000
  C   C1537     1.0  0.65951  0.93764  0.29975  1.0000
  C   C1538     1.0  0.63296  0.93298  0.29425  1.0000
  C   C1539     1.0  0.61233  0.94660  0.30835  1.0000
  H   H1230     1.0  0.64945  0.98582  0.34674  1.0000
  H   H1231     1.0  0.68570  0.96040  0.32341  1.0000
  H   H1232     1.0  0.62834  0.91841  0.27950  1.0000
  H   H1233     1.0  0.59187  0.94230  0.30442  1.0000
  C   C1540     1.0  0.79747  0.96930  0.17451  1.0000
  C   C1541     1.0  0.78297  0.95246  0.19159  1.0000
  C   C1542     1.0  0.78505  0.95404  0.21941  1.0000
  C   C1543     1.0  0.80158  0.97267  0.23068  1.0000
  C   C1544     1.0  0.59857  0.87267  0.29697  1.0000
  C   C1545     1.0  0.70984  0.71995  0.25726  1.0000
  H   H1234     1.0  0.76940  0.93861  0.18331  1.0000
  H   H1235     1.0  0.77290  0.94163  0.23208  1.0000
  C   C1546     1.0  0.55590  0.84554  0.37015  1.0000
  C   C1547     1.0  0.79790  0.84476  0.08442  1.0000
  C   C1548     1.0  0.79953  0.87031  0.09502  1.0000
  C   C1549     1.0  0.81368  0.88983  0.08099  1.0000
  C   C1550     1.0  0.82678  0.88366  0.05659  1.0000
  C   C1551     1.0  0.82594  0.85791  0.04642  1.0000
  C   C1552     1.0  0.81136  0.83854  0.06019  1.0000
  H   H1236     1.0  0.78987  0.87499  0.11411  1.0000
  H   H1237     1.0  0.81446  0.90963  0.08910  1.0000
  H   H1238     1.0  0.83628  0.85301  0.02770  1.0000
  H   H1239     1.0  0.81069  0.81880  0.05207  1.0000
  C   C1553     1.0  0.72302  0.96916  0.44308  1.0000
  C   C1554     1.0  0.74187  0.95970  0.42370  1.0000
  C   C1555     1.0  0.76773  0.95366  0.43136  1.0000
  C   C1556     1.0  0.77468  0.95761  0.45804  1.0000
  H   H1240     1.0  0.74484  0.68334  0.21061  1.0000
  H   H1241     1.0  0.78243  0.94635  0.41669  1.0000
  C   C1557     1.0  0.63984  0.73541  0.03756  1.0000
  C   C1558     1.0  0.64750  0.70878  0.03610  1.0000
  C   C1559     1.0  0.67466  0.70152  0.03583  1.0000
  C   C1560     1.0  0.69439  0.72074  0.03756  1.0000
  C   C1561     1.0  0.68666  0.74729  0.04042  1.0000
  H   H1242     1.0  0.63256  0.69392  0.03394  1.0000
  H   H1243     1.0  0.93101  0.75281  0.27188  1.0000
  H   H1244     1.0  0.70166  0.76228  0.04182  1.0000
  C   C1562     1.0  0.54208  0.80930  0.28112  1.0000
  C   C1563     1.0  0.66341  0.99820  0.15711  1.0000
  H   H1245     1.0  0.55482  0.74703  0.34422  1.0000
  C   C1564     1.0  0.99045  0.97746  0.04674  1.0000
  H   H1246     1.0  0.97336  0.98229  0.00886  1.0000
  C   C1565     1.0  0.59766  0.69917  0.16254  1.0000
  C   C1566     1.0  0.59964  0.70388  0.13509  1.0000
  C   C1567     1.0  0.64241  0.86061  0.47842  1.0000
  H   H1247     1.0  0.82128  0.84880  0.16753  1.0000
  C   C1568     1.0  0.61661  0.78839  0.20669  1.0000
  C   C1569     1.0  0.91136  0.76445  0.19860  1.0000
  H   H1248     1.0  0.61366  0.71809  0.12722  1.0000
  Fe  Fe116     1.0  0.80496  0.99873  0.04396  1.0000
  C   C1570     1.0  0.83184  0.80943  0.15407  1.0000
  C   C1571     1.0  0.85165  0.78968  0.15256  1.0000
  C   C1572     1.0  0.65948  0.75460  0.04016  1.0000
  C   C1573     1.0  0.94378  0.75929  0.03843  1.0000
  C   C1574     1.0  0.92494  0.74828  0.05637  1.0000
  C   C1575     1.0  0.89788  0.74728  0.05023  1.0000
  C   C1576     1.0  0.88944  0.75712  0.02599  1.0000
  H   H1249     1.0  0.69709  0.86602  0.36110  1.0000
  H   H1250     1.0  0.66220  0.85558  0.47046  1.0000
  H   H1251     1.0  0.88357  0.73851  0.06398  1.0000
  Fe  Fe117     1.0  0.51119  0.71623  0.03012  1.0000
  C   C1577     1.0  0.75152  0.71927  0.49102  1.0000
  C   C1578     1.0  0.78292  0.77844  0.34755  1.0000
  C   C1579     1.0  0.77415  0.80142  0.36128  1.0000
  C   C1580     1.0  0.77719  0.82635  0.34935  1.0000
  C   C1581     1.0  0.78908  0.82816  0.32375  1.0000
  C   C1582     1.0  0.79669  0.80510  0.30975  1.0000
  C   C1583     1.0  0.79376  0.78035  0.32161  1.0000
  H   H1252     1.0  0.76569  0.79998  0.38135  1.0000
  H   H1253     1.0  0.77145  0.84414  0.36030  1.0000
  H   H1254     1.0  0.80567  0.80641  0.28990  1.0000
  H   H1255     1.0  0.80052  0.76282  0.31081  1.0000
  C   C1584     1.0  0.82083  0.72124  0.21273  1.0000
  C   C1585     1.0  0.82090  0.73862  0.19111  1.0000
  C   C1586     1.0  0.81274  0.73010  0.16613  1.0000
  C   C1587     1.0  0.80530  0.70397  0.16244  1.0000
  H   H1256     1.0  0.82732  0.75866  0.19358  1.0000
  H   H1257     1.0  0.81259  0.74351  0.14954  1.0000
  H   H1258     1.0  0.59227  0.71534  0.35037  1.0000
  C   C1588     1.0  0.97412  0.78303  0.10864  1.0000
  H   H1259     1.0  0.94057  0.82408  0.21155  1.0000
  C   C1589     1.0  0.70179  0.68381  0.21598  1.0000
  H   H1260     1.0  0.50932  0.97395  0.47461  1.0000
  C   C1590     1.0  0.76295  0.70459  0.46968  1.0000
  C   C1591     1.0  0.97837  0.94085  0.01842  1.0000
  C   C1592     1.0  0.57395  0.75411  0.35028  1.0000
  C   C1593     1.0  0.77533  0.90555  0.01131  1.0000
  C   C1594     1.0  0.69288  0.69178  0.31953  1.0000
  C   C1595     1.0  0.81196  0.69543  0.20941  1.0000
  H   H1261     1.0  0.79107  0.86550  0.22781  1.0000
  C   C1596     1.0  0.88104  0.91660  0.18558  1.0000
  C   C1597     1.0  0.85465  0.92203  0.17934  1.0000
  C   C1598     1.0  0.84621  0.91675  0.15373  1.0000
  C   C1599     1.0  0.86402  0.90573  0.13448  1.0000
  C   C1600     1.0  0.89025  0.89901  0.14088  1.0000
  C   C1601     1.0  0.89892  0.90548  0.16634  1.0000
  P   P52       1.0  0.91298  0.88588  0.11502  1.0000
  C   C1602     1.0  0.89965  0.85776  0.09801  1.0000
  C   C1603     1.0  0.91795  0.91306  0.09264  1.0000
  C   C1604     1.0  0.90482  0.91433  0.06858  1.0000
  C   C1605     1.0  0.90674  0.93692  0.05277  1.0000
  C   C1606     1.0  0.92223  0.95802  0.06064  1.0000
  C   C1607     1.0  0.93588  0.95647  0.08425  1.0000
  C   C1608     1.0  0.93347  0.93431  0.10042  1.0000
  C   C1609     1.0  0.91457  0.84575  0.07684  1.0000
  C   C1610     1.0  0.90521  0.82313  0.06437  1.0000
  C   C1611     1.0  0.88054  0.81287  0.07234  1.0000
  C   C1612     1.0  0.86563  0.82466  0.09330  1.0000
  C   C1613     1.0  0.87515  0.84688  0.10622  1.0000
  C   C1614     1.0  0.94505  0.87504  0.12637  1.0000
  C   C1615     1.0  0.94695  0.86079  0.15013  1.0000
  C   C1616     1.0  0.97176  0.85135  0.15806  1.0000
  H   H1262     1.0  0.73500  0.68702  0.32506  1.0000
  C   C1617     1.0  0.66089  0.98264  0.10374  1.0000
  C   C1618     1.0  0.96818  0.87876  0.11019  1.0000
  H   H1263     1.0  0.88774  0.92179  0.20511  1.0000
  H   H1264     1.0  0.84095  0.93116  0.19407  1.0000
  H   H1265     1.0  0.82603  0.92191  0.14853  1.0000
  H   H1266     1.0  0.85739  0.90277  0.11442  1.0000
  H   H1267     1.0  0.91953  0.90282  0.17123  1.0000
  H   H1268     1.0  0.89231  0.89838  0.06250  1.0000
  H   H1269     1.0  0.89529  0.93848  0.03504  1.0000
  H   H1270     1.0  0.92328  0.97584  0.04884  1.0000
  H   H1271     1.0  0.94811  0.97264  0.09023  1.0000
  H   H1272     1.0  0.94345  0.93395  0.11914  1.0000
  H   H1273     1.0  0.93352  0.85373  0.07009  1.0000
  H   H1274     1.0  0.91699  0.81357  0.04844  1.0000
  H   H1275     1.0  0.87273  0.79594  0.06220  1.0000
  H   H1276     1.0  0.84641  0.81675  0.09927  1.0000
  H   H1277     1.0  0.86313  0.85534  0.12243  1.0000
  H   H1278     1.0  0.92925  0.85662  0.16226  1.0000
  H   H1279     1.0  0.97326  0.84043  0.17640  1.0000
  H   H1280     1.0  0.96720  0.88867  0.09119  1.0000
  C   C1619     1.0  0.71477  0.75416  0.16103  1.0000
  C   C1620     1.0  0.73809  0.74190  0.16934  1.0000
  C   C1621     1.0  0.74767  0.74799  0.19430  1.0000
  C   C1622     1.0  0.73385  0.76603  0.21114  1.0000
  C   C1623     1.0  0.71006  0.77798  0.20322  1.0000
  C   C1624     1.0  0.70083  0.77220  0.17780  1.0000
  P   P53       1.0  0.69412  0.80366  0.22363  1.0000
  C   C1625     1.0  0.69601  0.79470  0.25845  1.0000
  C   C1626     1.0  0.71193  0.83393  0.21747  1.0000
  C   C1627     1.0  0.70919  0.85507  0.23567  1.0000
  C   C1628     1.0  0.72275  0.87856  0.23082  1.0000
  C   C1629     1.0  0.73913  0.88120  0.20791  1.0000
  C   C1630     1.0  0.74214  0.86022  0.18980  1.0000
  C   C1631     1.0  0.72848  0.83674  0.19441  1.0000
  C   C1632     1.0  0.71884  0.80074  0.27249  1.0000
  C   C1633     1.0  0.72088  0.79311  0.29907  1.0000
  C   C1634     1.0  0.70032  0.77922  0.31187  1.0000
  C   C1635     1.0  0.67752  0.77315  0.29817  1.0000
  C   C1636     1.0  0.67530  0.78095  0.27165  1.0000
  C   C1637     1.0  0.65959  0.80760  0.21504  1.0000
  C   C1638     1.0  0.64349  0.78535  0.21248  1.0000
  H   H1281     1.0  0.70767  0.74990  0.14141  1.0000
  H   H1282     1.0  0.74886  0.72783  0.15637  1.0000
  H   H1283     1.0  0.76571  0.73847  0.20078  1.0000
  H   H1284     1.0  0.74187  0.77057  0.23028  1.0000
  H   H1285     1.0  0.68315  0.78188  0.17064  1.0000
  H   H1286     1.0  0.69648  0.85352  0.25356  1.0000
  H   H1287     1.0  0.72039  0.89485  0.24481  1.0000
  H   H1288     1.0  0.74948  0.89951  0.20426  1.0000
  H   H1289     1.0  0.75493  0.86221  0.17204  1.0000
  H   H1290     1.0  0.73092  0.82093  0.17985  1.0000
  H   H1291     1.0  0.73528  0.81112  0.26292  1.0000
  H   H1292     1.0  0.73860  0.79772  0.30970  1.0000
  H   H1293     1.0  0.70226  0.77287  0.33229  1.0000
  H   H1294     1.0  0.66175  0.76188  0.30792  1.0000
  H   H1295     1.0  0.65754  0.77569  0.26162  1.0000
  H   H1296     1.0  0.65159  0.76558  0.21514  1.0000
  C   C1639     1.0  0.61691  0.90665  0.39177  1.0000
  C   C1640     1.0  0.63687  0.91445  0.37344  1.0000
  C   C1641     1.0  0.66161  0.92211  0.38234  1.0000
  C   C1642     1.0  0.66649  0.92179  0.40954  1.0000
  C   C1643     1.0  0.64692  0.91296  0.42805  1.0000
  C   C1644     1.0  0.62186  0.90592  0.41897  1.0000
  C   C1645     1.0  0.64905  0.96732  0.46236  1.0000
  H   H1297     1.0  0.75051  0.69138  0.45883  1.0000
  H   H1298     1.0  0.59749  0.90139  0.38489  1.0000
  H   H1299     1.0  0.63308  0.91487  0.35236  1.0000
  H   H1300     1.0  0.67700  0.92858  0.36818  1.0000
  H   H1301     1.0  0.60602  0.89999  0.43278  1.0000
  H   H1302     1.0  0.79011  0.81790  0.21570  1.0000
  H   H1303     1.0  0.65482  0.96578  0.44147  1.0000
  H   H1304     1.0  0.86487  0.85645  0.18745  1.0000
  C   C1646     1.0  0.51659  0.92335  0.41185  1.0000
  C   C1647     1.0  0.99288  0.86914  0.11805  1.0000
  C   C1648     1.0  0.53396  0.85512  0.38549  1.0000
  H   H1305     1.0  0.81275  0.80607  0.14535  1.0000
  H   H1306     1.0  0.88500  0.71836  0.19302  1.0000
  C   C1649     1.0  0.76722  0.73608  0.50574  1.0000
  H   H1307     1.0  0.98476  0.71121  0.01580  1.0000
  C   C1650     1.0  0.55976  0.76481  0.15527  1.0000
  C   C1651     1.0  0.83934  0.75119  0.39783  1.0000
  C   C1652     1.0  0.85975  0.73945  0.38189  1.0000
  C   C1653     1.0  0.80592  0.72344  0.47791  1.0000
  H   H1308     1.0  0.52233  0.82083  0.31834  1.0000
  H   H1309     1.0  0.83552  0.77225  0.39679  1.0000
  H   H1310     1.0  0.87214  0.75143  0.36880  1.0000
  C   C1654     1.0  0.62405  0.77267  0.36292  1.0000
  H   H1311     1.0  0.55723  0.76116  0.17646  1.0000
  C   C1655     1.0  0.86415  0.85537  0.36066  1.0000
  C   C1656     1.0  0.85522  0.82982  0.36564  1.0000
  C   C1657     1.0  0.85250  0.81219  0.34450  1.0000
  C   C1658     1.0  0.85811  0.82025  0.31832  1.0000
  C   C1659     1.0  0.86599  0.84623  0.31297  1.0000
  C   C1660     1.0  0.86981  0.86348  0.33449  1.0000
  P   P54       1.0  0.87331  0.85644  0.27896  1.0000
  C   C1661     1.0  0.87501  0.89207  0.27700  1.0000
  C   C1662     1.0  0.90497  0.84180  0.26828  1.0000
  C   C1663     1.0  0.92383  0.83467  0.28696  1.0000
  C   C1664     1.0  0.94852  0.82379  0.27844  1.0000
  C   C1665     1.0  0.95458  0.82007  0.25126  1.0000
  C   C1666     1.0  0.93592  0.82720  0.23256  1.0000
  C   C1667     1.0  0.91124  0.83815  0.24104  1.0000
  C   C1668     1.0  0.85476  0.90791  0.28925  1.0000
  C   C1669     1.0  0.85553  0.93539  0.28724  1.0000
  C   C1670     1.0  0.87641  0.94736  0.27299  1.0000
  C   C1671     1.0  0.89688  0.93183  0.26105  1.0000
  C   C1672     1.0  0.89621  0.90428  0.26300  1.0000
  C   C1673     1.0  0.84764  0.84482  0.25750  1.0000
  C   C1674     1.0  0.84726  0.81809  0.24991  1.0000
  C   C1675     1.0  0.82660  0.80848  0.23492  1.0000
  C   C1676     1.0  0.80638  0.82551  0.22686  1.0000
  C   C1677     1.0  0.80698  0.85229  0.23355  1.0000
  C   C1678     1.0  0.82752  0.86195  0.24870  1.0000
  H   H1312     1.0  0.86630  0.86905  0.37707  1.0000
  H   H1313     1.0  0.85019  0.82376  0.38584  1.0000
  H   H1314     1.0  0.84514  0.79249  0.34822  1.0000
  H   H1315     1.0  0.85545  0.80628  0.30238  1.0000
  H   H1316     1.0  0.87688  0.88328  0.33123  1.0000
  H   H1317     1.0  0.91959  0.83759  0.30811  1.0000
  H   H1318     1.0  0.96298  0.81828  0.29296  1.0000
  H   H1319     1.0  0.89702  0.84401  0.22650  1.0000
  H   H1320     1.0  0.83813  0.89898  0.30006  1.0000
  H   H1321     1.0  0.83969  0.94749  0.29647  1.0000
  H   H1322     1.0  0.87655  0.96869  0.27115  1.0000
  H   H1323     1.0  0.91317  0.94123  0.25018  1.0000
  H   H1324     1.0  0.91222  0.89272  0.25350  1.0000
  H   H1325     1.0  0.86246  0.80445  0.25625  1.0000
  H   H1326     1.0  0.82581  0.78762  0.23029  1.0000
  H   H1327     1.0  0.93133  0.74034  0.07506  1.0000
  Fe  Fe118     1.0  0.81474  0.98097  0.10236  1.0000
  H   H1328     1.0  0.56079  0.80442  0.24216  1.0000
  H   H1329     1.0  0.79477  0.95313  0.46378  1.0000
  C   C1679     1.0  0.82292  0.73558  0.41422  1.0000
  C   C1680     1.0  0.63296  0.88686  0.47833  1.0000
  H   H1330     1.0  0.86810  0.70596  0.09717  1.0000
  C   C1681     1.0  0.53615  0.85949  0.41277  1.0000
  H   H1331     1.0  0.66219  0.69490  0.16258  1.0000
  H   H1332     1.0  0.66006  0.97668  0.08303  1.0000
  C   C1682     1.0  0.53074  0.82772  0.29953  1.0000
  Fe  Fe119     1.0  0.57260  0.71614  0.03350  1.0000
  C   C1683     1.0  0.98785  0.92320  0.03751  1.0000
  H   H1333     1.0  0.56130  0.79454  0.34992  1.0000
  C   C1684     1.0  0.93826  0.76078  0.20464  1.0000
  C   C1685     1.0  0.76166  0.69198  0.40386  1.0000
  C   C1686     1.0  0.94532  0.75676  0.23102  1.0000
  S   S239      1.0  0.79117  0.96822  0.13996  1.0000
  C   C1687     1.0  0.94836  0.75350  0.13679  1.0000
  C   C1688     1.0  0.60733  0.83772  0.32838  1.0000
  C   C1689     1.0  0.53000  0.85495  0.29381  1.0000
  C   C1690     1.0  0.64850  0.83282  0.21076  1.0000
  H   H1334     1.0  0.66042  0.85030  0.21217  1.0000
  H   H1335     1.0  0.74083  0.87017  0.11381  1.0000
  H   H1336     1.0  0.53252  0.71637  0.16229  1.0000
  H   H1337     1.0  0.68558  0.92847  0.41602  1.0000
  C   C1691     1.0  0.53995  0.86411  0.26921  1.0000
  C   C1692     1.0  0.60701  0.89263  0.48840  1.0000
  H   H1338     1.0  0.59075  0.89224  0.29293  1.0000
  C   C1693     1.0  0.74259  0.68247  0.38683  1.0000
  C   C1694     1.0  0.89185  0.76461  0.21941  1.0000
  C   C1695     1.0  0.60677  0.85595  0.27588  1.0000
  S   S240      1.0  0.60622  0.74554  0.03455  1.0000
  C   C1696     1.0  0.57089  0.96250  0.47612  1.0000
  H   H1339     1.0  0.60419  0.77115  0.20539  1.0000
  C   C1697     1.0  0.88213  0.71597  0.17193  1.0000
  C   C1698     1.0  0.62006  0.74558  0.35992  1.0000
  H   H1340     1.0  0.78719  0.88822  0.01567  1.0000
  H   H1341     1.0  0.65968  0.69075  0.22519  1.0000
  Fe  Fe120     1.0  0.52826  0.93036  0.29243  1.0000
  C   C1699     1.0  0.83664  0.83348  0.16659  1.0000
  H   H1342     1.0  0.88066  0.69407  0.01909  1.0000
  C   C1700     1.0  0.70208  0.96394  0.22387  1.0000
  C   C1701     1.0  0.70350  0.89012  0.45054  1.0000
  C   C1702     1.0  0.72988  0.97290  0.46973  1.0000
  H   H1343     1.0  0.75172  0.71416  0.24763  1.0000
  C   C1703     1.0  0.52805  0.91946  0.43659  1.0000
  P   P55       1.0  0.60793  0.82592  0.36216  1.0000
  S   S241      1.0  0.53909  0.89834  0.26113  1.0000
  C   C1704     1.0  0.56054  0.85521  0.42458  1.0000
  C   C1705     1.0  0.73008  0.88502  0.12588  1.0000
  H   H1344     1.0  0.76102  0.91404  0.12185  1.0000
  H   H1345     1.0  0.89993  0.82120  0.18521  1.0000
  H   H1346     1.0  0.52486  0.77576  0.09934  1.0000
  P   P56       1.0  0.65313  0.91243  0.46332  1.0000
  H   H1347     1.0  0.99169  0.99844  0.05028  1.0000
  H   H1348     1.0  0.60267  0.76437  0.15597  1.0000
  C   C1706     1.0  0.59930  0.86380  0.32319  1.0000
  C   C1707     1.0  0.87626  0.79358  0.16406  1.0000
  H   H1349     1.0  0.62497  0.96235  0.17766  1.0000
  C   C1708     1.0  0.82696  0.70809  0.41493  1.0000
  H   H1350     1.0  0.96600  0.75339  0.23555  1.0000
  H   H1351     1.0  0.95732  0.82170  0.10350  1.0000
  C   C1709     1.0  0.64664  0.99234  0.47416  1.0000
  C   C1710     1.0  0.74148  0.90954  0.13049  1.0000
  H   H1352     1.0  0.69579  0.86076  0.13287  1.0000
  H   H1353     1.0  0.72841  0.69604  0.37827  1.0000
  C   C1711     1.0  0.64540  0.94454  0.47774  1.0000
  H   H1354     1.0  0.54939  0.91691  0.43743  1.0000
  H   H1355     1.0  0.60924  0.77161  0.10745  1.0000
  C   C1712     1.0  0.62171  0.83572  0.20447  1.0000
  C   C1713     1.0  0.60575  0.81351  0.20257  1.0000
  C   C1714     1.0  0.88786  0.73632  0.15377  1.0000
  H   H1356     1.0  0.63657  0.73169  0.36154  1.0000
  C   C1715     1.0  0.70467  0.87971  0.13667  1.0000
  C   C1716     1.0  0.65933  0.91471  0.21036  1.0000
  C   C1717     1.0  0.88100  0.81786  0.17645  1.0000
  C   C1718     1.0  0.58551  0.76682  0.14382  1.0000
  P   P57       1.0  0.90114  0.76735  0.16459  1.0000
  H   H1357     1.0  0.64223  0.88941  0.24040  1.0000
  H   H1358     1.0  0.67920  0.90666  0.21252  1.0000
  C   C1719     1.0  0.75584  0.96733  0.47736  1.0000
  S   S242      1.0  0.52658  0.91323  0.49075  1.0000
  Fe  Fe121     1.0  0.54009  0.67958  0.06809  1.0000
  C   C1720     1.0  0.73074  0.88609  0.45417  1.0000
  H   H1359     1.0  0.56219  0.85917  0.44570  1.0000
  C   C1721     1.0  0.69058  0.89892  0.15193  1.0000
  H   H1360     1.0  0.76364  0.89401  0.47922  1.0000
  H   H1361     1.0  0.55849  0.85245  0.23138  1.0000
  C   C1722     1.0  0.67107  0.97236  0.14948  1.0000
  H   H1362     1.0  0.80654  0.74497  0.42551  1.0000
  C   C1723     1.0  0.58929  0.77101  0.11647  1.0000
  H   H1363     1.0  0.58493  0.81573  0.19791  1.0000
  C   C1724     1.0  0.87256  0.70865  0.11792  1.0000
  C   C1725     1.0  0.88315  0.73240  0.12666  1.0000
  C   C1726     1.0  0.72751  0.92870  0.14585  1.0000
  C   C1727     1.0  0.63827  0.90470  0.22603  1.0000
  H   H1364     1.0  0.73654  0.94771  0.14840  1.0000
  H   H1365     1.0  0.66570  0.71520  0.11810  1.0000
  C   C1728     1.0  0.86351  0.71207  0.38207  1.0000
  C   C1729     1.0  0.97982  0.96811  0.02327  1.0000
  H   H1366     1.0  0.61323  0.85519  0.20120  1.0000
  C   C1730     1.0  0.68321  0.85351  0.37193  1.0000
  H   H1367     1.0  0.58299  0.69619  0.09695  1.0000
  C   C1731     1.0  0.70206  0.92351  0.15700  1.0000
  H   H1368     1.0  0.67058  0.89463  0.15926  1.0000
  H   H1369     1.0  0.59617  0.90784  0.23654  1.0000
  H   H1370     1.0  0.57029  0.77713  0.07935  1.0000
  C   C1732     1.0  0.74242  0.89644  0.47667  1.0000
  H   H1371     1.0  0.97370  0.81157  0.24472  1.0000
  H   H1372     1.0  0.51514  0.85906  0.37625  1.0000
  C   C1733     1.0  0.73624  0.99639  0.22990  1.0000
  S   S243      1.0  0.97767  0.75927  0.04675  1.0000
  H   H1373     1.0  0.95383  0.76055  0.18919  1.0000
  H   H1374     1.0  0.88721  0.74791  0.11238  1.0000
  C   C1734     1.0  0.92945  0.77373  0.14241  1.0000
  H   H1375     1.0  0.52912  0.92409  0.39387  1.0000
  C   C1735     1.0  0.72188  0.98619  0.18558  1.0000
  C   C1736     1.0  0.61252  0.91523  0.22405  1.0000
  H   H1376     1.0  0.71508  0.98003  0.48439  1.0000
  C   C1737     1.0  0.84691  0.69644  0.39819  1.0000
  H   H1377     1.0  0.65368  0.77525  0.04141  1.0000
  C   C1738     1.0  0.66958  0.96463  0.12267  1.0000
  C   C1739     1.0  0.80443  0.68673  0.18419  1.0000
  H   H1378     1.0  0.71306  0.73301  0.27392  1.0000
  H   H1379     1.0  0.94584  0.73405  0.14533  1.0000
  H   H1380     1.0  0.91765  0.81381  0.13289  1.0000
  C   C1740     1.0  0.56729  0.77404  0.10062  1.0000
  H   H1381     1.0  0.70296  0.97366  0.43747  1.0000
  C   C1741     1.0  0.65500  0.93577  0.19293  1.0000
  H   H1382     1.0  0.68830  0.95027  0.23299  1.0000
  C   C1742     1.0  0.54150  0.77271  0.11205  1.0000
  H   H1383     1.0  0.69098  0.70923  0.33204  1.0000
  C   C1743     1.0  0.93254  0.79831  0.13003  1.0000
  H   H1384     1.0  0.87884  0.70278  0.36919  1.0000
  H   H1385     1.0  0.62228  0.80095  0.31048  1.0000
  C   C1744     1.0  0.60791  0.93584  0.20638  1.0000
  C   C1745     1.0  0.64742  0.82096  0.39961  1.0000
  H   H1386     1.0  0.71687  0.97493  0.26188  1.0000
  H   H1387     1.0  0.67876  0.81523  0.42723  1.0000
  H   H1388     1.0  0.58795  0.94410  0.20509  1.0000
  P   P58       1.0  0.68287  0.94957  0.17405  1.0000
  C   C1746     1.0  0.62904  0.94616  0.19090  1.0000
  H   H1389     1.0  0.74294  0.87546  0.43927  1.0000
  H   H1390     1.0  0.82709  0.72498  0.47324  1.0000
  C   C1747     1.0  0.70389  0.96759  0.19612  1.0000
  C   C1748     1.0  0.86691  0.68855  0.13610  1.0000
  C   C1749     1.0  0.95490  0.80289  0.11327  1.0000
  H   H1391     1.0  0.67526  0.94481  0.11624  1.0000
  C   C1750     1.0  0.71822  0.97822  0.24059  1.0000
  C   C1751     1.0  0.65786  0.84958  0.36228  1.0000
  H   H1392     1.0  0.66704  0.72185  0.26201  1.0000
  C   C1752     1.0  0.87180  0.69218  0.16304  1.0000
  H   H1393     1.0  0.73047  0.71753  0.49622  1.0000
  C   C1753     1.0  0.89895  0.76040  0.24569  1.0000
  H   H1394     1.0  0.56828  0.98329  0.43914  1.0000
  C   C1754     1.0  0.81493  0.98720  0.18558  1.0000
  C   C1755     1.0  0.73165  0.70906  0.24270  1.0000
  C   C1756     1.0  0.68396  0.71364  0.25053  1.0000
  S   S244      1.0  0.51579  0.98438  0.34748  1.0000
  C   C1757     1.0  0.53751  0.76736  0.13937  1.0000
  C   C1758     1.0  0.67988  0.69571  0.22986  1.0000
  C   C1759     1.0  0.67282  0.82497  0.40922  1.0000
  C   C1760     1.0  0.76129  0.91834  0.03238  1.0000
  C   C1761     1.0  0.68784  0.90510  0.46908  1.0000
  C   C1762     1.0  0.92566  0.75648  0.25152  1.0000
  C   C1763     1.0  0.63981  0.83305  0.37591  1.0000
  C   C1764     1.0  0.56874  0.98514  0.46062  1.0000
  C   C1765     1.0  0.55235  0.81843  0.25660  1.0000
  H   H1395     1.0  0.52134  0.86881  0.30832  1.0000
  H   H1396     1.0  0.63396  0.80784  0.41026  1.0000
  H   H1397     1.0  0.59294  0.87710  0.33924  1.0000
  H   H1398     1.0  0.82979  0.00338  0.22199  1.0000
  H   H1399     1.0  0.69484  0.88210  0.43296  1.0000
  C   C1766     1.0  0.61586  0.82111  0.30707  1.0000
  H   H1400     1.0  0.76230  0.91062  0.05241  1.0000
  C   C1767     1.0  0.61548  0.83022  0.28090  1.0000
  C   C1768     1.0  0.55091  0.84564  0.25054  1.0000
  H   H1401     1.0  0.51958  0.97714  0.42601  1.0000
  H   H1402     1.0  0.70708  0.70912  0.08990  1.0000
  H   H1403     1.0  0.60113  0.84247  0.41897  1.0000
  H   H1404     1.0  0.72372  0.98963  0.16432  1.0000
  C   C1769     1.0  0.67044  0.68199  0.30727  1.0000
  C   C1770     1.0  0.72680  0.91046  0.49574  1.0000
  C   C1771     1.0  0.62625  0.84056  0.48875  1.0000
  C   C1772     1.0  0.51189  0.91822  0.45998  1.0000
  C   C1773     1.0  0.69081  0.84103  0.39521  1.0000
  C   C1774     1.0  0.51454  0.71703  0.17493  1.0000
  C   C1775     1.0  0.58037  0.84040  0.38192  1.0000
  H   H1405     1.0  0.59905  0.91254  0.48815  1.0000
  H   H1406     1.0  0.57192  0.94327  0.46668  1.0000
  C   C1776     1.0  0.81688  0.98892  0.21356  1.0000
  H   H1407     1.0  0.62107  0.81702  0.26451  1.0000
  S   S245      1.0  0.63937  0.69789  0.31376  1.0000
  C   C1777     1.0  0.73800  0.00043  0.20240  1.0000
  H   H1408     1.0  0.65269  0.85926  0.34398  1.0000
  H   H1409     1.0  0.64396  0.77929  0.36635  1.0000
  C   C1778     1.0  0.59504  0.73630  0.35359  1.0000
  H   H1410     1.0  0.88353  0.75933  0.26142  1.0000
  C   C1779     1.0  0.72656  0.68476  0.11847  1.0000
  H   H1411     1.0  0.73695  0.95216  0.04434  1.0000
  H   H1412     1.0  0.98509  0.74251  0.11546  1.0000
  C   C1780     1.0  0.79017  0.70692  0.46271  1.0000
  H   H1413     1.0  0.71070  0.84375  0.40226  1.0000
  H   H1414     1.0  0.74500  0.68299  0.10653  1.0000
  C   C1781     1.0  0.58260  0.84572  0.40926  1.0000
  H   H1415     1.0  0.98807  0.90212  0.03401  1.0000
  H   H1416     1.0  0.55360  0.84190  0.34912  1.0000
  Fe  Fe122     1.0  0.86012  0.00261  0.06661  1.0000
  C   C1782     1.0  0.57773  0.78118  0.35365  1.0000
  C   C1783     1.0  0.60272  0.79071  0.36039  1.0000
  H   H1417     1.0  0.66011  0.97945  0.39192  1.0000
  C   C1784     1.0  0.93533  0.76953  0.01431  1.0000
  H   H1418     1.0  0.51892  0.86644  0.42470  1.0000
  C   C1785     1.0  0.69966  0.91479  0.49202  1.0000
  H   H1419     1.0  0.76196  0.71294  0.40831  1.0000
  C   C1786     1.0  0.68199  0.70308  0.12503  1.0000
  C   C1787     1.0  0.67993  0.69132  0.15012  1.0000
  H   H1420     1.0  0.80448  0.99171  0.37615  1.0000
  C   C1788     1.0  0.79443  0.73809  0.49924  1.0000
  C   C1789     1.0  0.70526  0.69965  0.10914  1.0000
  C   C1790     1.0  0.72766  0.69151  0.22174  1.0000
  H   H1421     1.0  0.74933  0.00683  0.24285  1.0000
  C   C1791     1.0  0.57101  0.96457  0.50386  1.0000
  C   C1792     1.0  0.58231  0.69140  0.11791  1.0000
  C   C1793     1.0  0.91293  0.85846  0.00585  1.0000
  C   C1794     1.0  0.64009  0.99481  0.50137  1.0000
  H   H1422     1.0  0.66430  0.00451  0.17771  1.0000
  C   C1795     1.0  0.99470  0.85557  0.14204  1.0000
  H   H1423     1.0  0.86296  0.67802  0.44487  1.0000
  H   H1424     1.0  0.82621  0.00034  0.17269  1.0000
  P   P59       1.0  0.80555  0.68774  0.43569  1.0000
  C   C1796     1.0  0.71787  0.67926  0.31551  1.0000
  C   C1797     1.0  0.90825  0.76832  0.00808  1.0000
  H   H1425     1.0  0.99126  0.78659  0.09539  1.0000
  H   H1426     1.0  0.81166  0.68196  0.22605  1.0000
  C   C1798     1.0  0.99834  0.93269  0.06102  1.0000
  Fe  Fe123     1.0  0.55860  0.67926  0.25568  1.0000
  C   C1799     1.0  0.59091  0.87259  0.49871  1.0000
  H   H1427     1.0  0.61726  0.00384  0.39946  1.0000
  C   C1800     1.0  0.66004  0.00018  0.39745  1.0000
  H   H1428     1.0  0.70253  0.00214  0.39591  1.0000
  H   H1429     1.0  0.86658  0.67690  0.17725  1.0000
  C   C1801     1.0  0.99989  0.95984  0.06554  1.0000
  C   C1802     1.0  0.92097  0.67849  0.01780  1.0000
  C   C1803     1.0  0.78782  0.00436  0.38264  1.0000
  H   H1430     1.0  0.68034  0.68095  0.03386  1.0000
  C   C1804     1.0  0.57989  0.68029  0.17243  1.0000
  H   H1431     1.0  0.79969  0.00648  0.42333  1.0000
  H   H1432     1.0  0.63368  0.82036  0.48897  1.0000
  C   C1805     1.0  0.60051  0.84656  0.49891  1.0000
  H   H1433     1.0  0.77089  0.00542  0.34398  1.0000
  C   C1806     1.0  0.63867  0.94722  0.50505  1.0000
  C   C1807     1.0  0.50849  0.69536  0.19113  1.0000
  C   C1808     1.0  0.70055  0.67501  0.15901  1.0000
  H   H1434     1.0  0.89984  0.84224  0.01080  1.0000
  C   C1809     1.0  0.00447  0.70564  0.00804  1.0000
  C   C1810     1.0  0.89957  0.69283  0.00788  1.0000
  S   S246      1.0  0.60269  0.67472  0.24667  1.0000
  H   H1435     1.0  0.52198  0.67853  0.19164  1.0000
  H   H1436     1.0  0.57850  0.67612  0.19351  1.0000
  C   C1811     1.0  0.78064  0.67472  0.41441  1.0000
  H   H1437     1.0  0.84962  0.67527  0.39749  1.0000
  S   S247      1.0  0.53623  0.97095  0.60742  1.0000
  H   H1438     1.0  0.75834  0.74743  0.52228  1.0000
  H   H1439     1.0  0.77723  0.92824  0.69353  1.0000
  C   C1812     1.0  0.78314  0.94292  0.73313  1.0000
  H   H1440     1.0  0.82554  0.90210  0.90891  1.0000
  H   H1441     1.0  0.97052  0.74643  0.96495  1.0000
  H   H1442     1.0  0.99005  0.77264  0.88554  1.0000
  Fe  Fe124     1.0  0.68823  0.97281  0.57951  1.0000
  S   S248      1.0  0.73179  0.96243  0.58300  1.0000
  S   S249      1.0  0.65716  0.94100  0.57884  1.0000
  C   C1813     1.0  0.83765  0.93615  0.72084  1.0000
  C   C1814     1.0  0.91567  0.90642  0.77809  1.0000
  Fe  Fe125     1.0  0.73771  0.98600  0.54531  1.0000
  C   C1815     1.0  0.78080  0.84904  0.97882  1.0000
  H   H1443     1.0  0.82367  0.91577  0.79527  1.0000
  H   H1444     1.0  0.84294  0.86767  0.95722  1.0000
  C   C1816     1.0  0.99860  0.89938  0.94840  1.0000
  H   H1445     1.0  0.93071  0.84484  0.85066  1.0000
  H   H1446     1.0  0.60832  0.92231  0.55867  1.0000
  H   H1447     1.0  0.65588  0.72763  0.97323  1.0000
  H   H1448     1.0  0.95084  0.97864  0.80850  1.0000
  H   H1449     1.0  0.98084  0.88824  0.94505  1.0000
  C   C1817     1.0  0.77201  0.89969  0.92896  1.0000
  H   H1450     1.0  0.51746  0.92079  0.71639  1.0000
  H   H1451     1.0  0.91099  0.89837  0.93990  1.0000
  C   C1818     1.0  0.82917  0.94635  0.74590  1.0000
  C   C1819     1.0  0.92436  0.88651  0.92710  1.0000
  H   H1452     1.0  0.76043  0.85629  0.98141  1.0000
  C   C1820     1.0  0.62371  0.94982  0.58690  1.0000
  C   C1821     1.0  0.61708  0.96873  0.60657  1.0000
  C   C1822     1.0  0.59016  0.97456  0.61329  1.0000
  C   C1823     1.0  0.56982  0.96259  0.59944  1.0000
  C   C1824     1.0  0.57651  0.94396  0.57952  1.0000
  C   C1825     1.0  0.60334  0.93720  0.57367  1.0000
  C   C1826     1.0  0.51377  0.94140  0.72150  1.0000
  C   C1827     1.0  0.81583  0.92829  0.83582  1.0000
  H   H1453     1.0  0.56102  0.93450  0.56883  1.0000
  H   H1454     1.0  0.63268  0.97823  0.61714  1.0000
  H   H1455     1.0  0.54274  0.94138  0.75200  1.0000
  C   C1828     1.0  0.97350  0.87100  0.80390  1.0000
  C   C1829     1.0  0.88454  0.94053  0.76432  1.0000
  H   H1456     1.0  0.60691  0.72284  0.97747  1.0000
  C   C1830     1.0  0.95113  0.95320  0.96735  1.0000
  H   H1457     1.0  0.63123  0.97427  0.53785  1.0000
  C   C1831     1.0  0.94122  0.96338  0.82021  1.0000
  H   H1458     1.0  0.73170  0.86138  0.89220  1.0000
  C   C1832     1.0  0.83495  0.93128  0.96912  1.0000
  S   S250      1.0  0.69429  0.99406  0.54077  1.0000
  H   H1459     1.0  0.85377  0.82271  0.97253  1.0000
  H   H1460     1.0  0.97660  0.93923  0.82087  1.0000
  C   C1833     1.0  0.84009  0.95430  0.80258  1.0000
  C   C1834     1.0  0.74254  0.87858  0.89828  1.0000
  H   H1461     1.0  0.92891  0.71551  0.95066  1.0000
  C   C1835     1.0  0.94322  0.97440  0.92493  1.0000
  C   C1836     1.0  0.95672  0.95553  0.93978  1.0000
  C   C1837     1.0  0.98319  0.71571  0.93685  1.0000
  C   C1838     1.0  0.98793  0.75675  0.89979  1.0000
  H   H1462     1.0  0.85863  0.93391  0.71544  1.0000
  H   H1463     1.0  0.00295  0.72698  0.87208  1.0000
  C   C1839     1.0  0.74075  0.90196  0.88375  1.0000
  H   H1464     1.0  0.97876  0.87243  0.99751  1.0000
  S   S251      1.0  0.99747  0.99626  0.85034  1.0000
  H   H1465     1.0  0.92037  0.89005  0.79092  1.0000
  H   H1466     1.0  0.92764  0.81097  0.81554  1.0000
  C   C1840     1.0  0.73177  0.99138  0.68420  1.0000
  C   C1841     1.0  0.75812  0.87739  0.92077  1.0000
  H   H1467     1.0  0.97267  0.84393  0.88180  1.0000
  H   H1468     1.0  0.88126  0.94827  0.84935  1.0000
  H   H1469     1.0  0.52740  0.73457  0.94687  1.0000
  H   H1470     1.0  0.86759  0.95658  0.97754  1.0000
  H   H1471     1.0  0.95367  0.81523  0.77275  1.0000
  C   C1842     1.0  0.97122  0.85196  0.78387  1.0000
  H   H1472     1.0  0.94781  0.97652  0.90376  1.0000
  H   H1473     1.0  0.97160  0.94306  0.92963  1.0000
  C   C1843     1.0  0.90207  0.88319  0.00011  1.0000
  H   H1474     1.0  0.82554  0.92191  0.68265  1.0000
  C   C1844     1.0  0.93462  0.91494  0.75904  1.0000
  C   C1845     1.0  0.76022  0.93910  0.98099  1.0000
  H   H1475     1.0  0.90587  0.90756  0.85959  1.0000
  S   S252      1.0  0.50917  0.90940  0.56681  1.0000
  H   H1476     1.0  0.89900  0.96456  0.73139  1.0000
  C   C1846     1.0  0.94662  0.90077  0.99300  1.0000
  H   H1477     1.0  0.94320  0.94242  0.72749  1.0000
  H   H1478     1.0  0.88063  0.88609  0.00072  1.0000
  C   C1847     1.0  0.82707  0.85554  0.96525  1.0000
  C   C1848     1.0  0.94052  0.82772  0.81237  1.0000
  H   H1479     1.0  0.92216  0.85212  0.95209  1.0000
  H   H1480     1.0  0.81066  0.97512  0.93220  1.0000
  C   C1849     1.0  0.95503  0.83015  0.78821  1.0000
  C   C1850     1.0  0.95140  0.88139  0.88616  1.0000
  C   C1851     1.0  0.95901  0.85595  0.89416  1.0000
  C   C1852     1.0  0.89078  0.91918  0.78081  1.0000
  H   H1481     1.0  0.95409  0.90535  0.75720  1.0000
  C   C1853     1.0  0.75463  0.92416  0.89163  1.0000
  C   C1854     1.0  0.97915  0.76223  0.92603  1.0000
  H   H1482     1.0  0.76203  0.94612  0.73769  1.0000
  H   H1483     1.0  0.79455  0.95881  0.77049  1.0000
  C   C1855     1.0  0.92845  0.93586  0.74226  1.0000
  H   H1484     1.0  0.88781  0.95332  0.93158  1.0000
  H   H1485     1.0  0.80666  0.75095  0.51079  1.0000
  C   C1856     1.0  0.72737  0.98765  0.71182  1.0000
  H   H1486     1.0  0.80984  0.94654  0.87461  1.0000
  H   H1487     1.0  0.89783  0.99354  0.77785  1.0000
  C   C1857     1.0  0.77022  0.92302  0.91402  1.0000
  C   C1858     1.0  0.81872  0.94831  0.85470  1.0000
  S   S253      1.0  0.54494  0.71225  0.99955  1.0000
  H   H1488     1.0  0.71986  0.98104  0.67013  1.0000
  C   C1859     1.0  0.81895  0.92936  0.70214  1.0000
  H   H1489     1.0  0.72850  0.90296  0.86648  1.0000
  C   C1860     1.0  0.66385  0.68579  0.96903  1.0000
  C   C1861     1.0  0.52333  0.97943  0.74878  1.0000
  H   H1490     1.0  0.56382  0.91573  0.63900  1.0000
  C   C1862     1.0  0.95737  0.87567  0.99828  1.0000
  C   C1863     1.0  0.79172  0.93285  0.70824  1.0000
  C   C1864     1.0  0.82645  0.93125  0.80983  1.0000
  C   C1865     1.0  0.83230  0.97122  0.84767  1.0000
  C   C1866     1.0  0.91452  0.96638  0.82872  1.0000
  H   H1491     1.0  0.77185  0.81140  0.99657  1.0000
  C   C1867     1.0  0.93073  0.86057  0.93408  1.0000
  H   H1492     1.0  0.53401  0.94342  0.66790  1.0000
  H   H1493     1.0  0.80891  0.98237  0.98124  1.0000
  C   C1868     1.0  0.52803  0.95296  0.74175  1.0000
  H   H1494     1.0  0.98565  0.88807  0.80004  1.0000
  H   H1495     1.0  0.95448  0.82588  0.92400  1.0000
  H   H1496     1.0  0.94967  0.77806  0.00037  1.0000
  C   C1869     1.0  0.80172  0.94986  0.75182  1.0000
  C   C1870     1.0  0.99518  0.73095  0.89221  1.0000
  C   C1871     1.0  0.90344  0.94843  0.74466  1.0000
  C   C1872     1.0  0.85847  0.94460  0.96258  1.0000
  C   C1873     1.0  0.92421  0.99117  0.93745  1.0000
  C   C1874     1.0  0.64729  0.70819  0.97194  1.0000
  C   C1875     1.0  0.77447  0.91549  0.98527  1.0000
  C   C1876     1.0  0.54291  0.91093  0.64141  1.0000
  C   C1877     1.0  0.79747  0.99021  0.94090  1.0000
  C   C1878     1.0  0.80066  0.86523  0.96755  1.0000
  H   H1497     1.0  0.93077  0.91757  0.89905  1.0000
  H   H1498     1.0  0.87667  0.91245  0.79598  1.0000
  C   C1879     1.0  0.85814  0.99303  0.76236  1.0000
  C   C1880     1.0  0.74672  0.95219  0.00223  1.0000
  C   C1881     1.0  0.52587  0.92659  0.65787  1.0000
  P   P60       1.0  0.85310  0.95840  0.76880  1.0000
  H   H1499     1.0  0.85293  0.99246  0.81671  1.0000
  H   H1500     1.0  0.88596  0.71727  0.97617  1.0000
  C   C1882     1.0  0.93524  0.89717  0.90358  1.0000
  H   H1501     1.0  0.75318  0.94246  0.88055  1.0000
  H   H1502     1.0  0.58510  0.98845  0.62919  1.0000
  H   H1503     1.0  0.80477  0.91079  0.84116  1.0000
  C   C1883     1.0  0.95995  0.86815  0.82863  1.0000
  C   C1884     1.0  0.94264  0.84683  0.83240  1.0000
  P   P61       1.0  0.96275  0.89333  0.85393  1.0000
  H   H1504     1.0  0.54592  0.87801  0.61405  1.0000
  C   C1885     1.0  0.94356  0.92125  0.84287  1.0000
  C   C1886     1.0  0.95579  0.94094  0.82733  1.0000
  C   C1887     1.0  0.84302  0.97424  0.82175  1.0000
  H   H1505     1.0  0.68525  0.68825  0.96783  1.0000
  C   C1888     1.0  0.90194  0.94617  0.84293  1.0000
  C   C1889     1.0  0.91616  0.92330  0.84921  1.0000
  C   C1890     1.0  0.94057  0.85465  0.00485  1.0000
  C   C1891     1.0  0.94861  0.84557  0.91800  1.0000
  C   C1892     1.0  0.97689  0.74182  0.94454  1.0000
  C   C1893     1.0  0.79665  0.99434  0.96871  1.0000
  C   C1894     1.0  0.88215  0.00487  0.76888  1.0000
  H   H1506     1.0  0.90367  0.98444  0.82447  1.0000
  C   C1895     1.0  0.91877  0.90429  0.99392  1.0000
  H   H1507     1.0  0.98210  0.85403  0.76492  1.0000
  H   H1508     1.0  0.78077  0.94051  0.91965  1.0000
  H   H1509     1.0  0.73594  0.91882  0.51305  1.0000
  C   C1896     1.0  0.91830  0.98880  0.96474  1.0000
  P   P62       1.0  0.98065  0.68978  0.96123  1.0000
  H   H1510     1.0  0.63684  0.93004  0.51770  1.0000
  C   C1897     1.0  0.99686  0.90243  0.85821  1.0000
  C   C1898     1.0  0.85794  0.92745  0.91750  1.0000
  C   C1899     1.0  0.92715  0.70526  0.96945  1.0000
  H   H1511     1.0  0.71200  0.97440  0.71887  1.0000
  H   H1512     1.0  0.83375  0.98706  0.86215  1.0000
  C   C1900     1.0  0.94549  0.67749  0.00355  1.0000
  H   H1513     1.0  0.73661  0.97091  0.99893  1.0000
  C   C1901     1.0  0.78121  0.00527  0.92436  1.0000
  Fe  Fe126     1.0  0.73375  0.00104  0.60566  1.0000
  H   H1514     1.0  0.92671  0.96839  0.00074  1.0000
  H   H1515     1.0  0.97478  0.78240  0.93222  1.0000
  C   C1902     1.0  0.99299  0.71047  0.91070  1.0000
  P   P63       1.0  0.96826  0.92849  0.98656  1.0000
  C   C1903     1.0  0.82254  0.91632  0.94971  1.0000
  S   S254      1.0  0.73743  0.99465  0.76480  1.0000
  H   H1516     1.0  0.90966  0.92323  0.98999  1.0000
  C   C1904     1.0  0.53280  0.88980  0.62720  1.0000
  C   C1905     1.0  0.90261  0.70600  0.98363  1.0000
  H   H1517     1.0  0.58797  0.83108  0.50699  1.0000
  C   C1906     1.0  0.78720  0.82363  0.98754  1.0000
  H   H1518     1.0  0.75916  0.85906  0.93157  1.0000
  C   C1907     1.0  0.86985  0.94279  0.93676  1.0000
  H   H1519     1.0  0.51741  0.76273  0.90819  1.0000
  C   C1908     1.0  0.61966  0.70549  0.97453  1.0000
  S   S255      1.0  0.76552  0.97204  0.51068  1.0000
  C   C1909     1.0  0.60862  0.68035  0.97439  1.0000
  H   H1520     1.0  0.53443  0.98838  0.76444  1.0000
  C   C1910     1.0  0.81348  0.81415  0.98513  1.0000
  H   H1521     1.0  0.86672  0.92616  0.89748  1.0000
  S   S256      1.0  0.78078  0.99719  0.88991  1.0000
  C   C1911     1.0  0.83338  0.83007  0.97396  1.0000
  P   P64       1.0  0.79242  0.89871  0.95792  1.0000
  H   H1522     1.0  0.57008  0.99035  0.53774  1.0000
  H   H1523     1.0  0.75987  0.94795  0.96152  1.0000
  C   C1912     1.0  0.83449  0.91404  0.92400  1.0000
  H   H1524     1.0  0.98650  0.94035  0.87635  1.0000
  C   C1913     1.0  0.74278  0.00087  0.73033  1.0000
  H   H1525     1.0  0.81887  0.00033  0.74693  1.0000
  C   C1914     1.0  0.50718  0.73632  0.94026  1.0000
  H   H1526     1.0  0.81849  0.79456  0.99225  1.0000
  C   C1915     1.0  0.63577  0.97229  0.51667  1.0000
  H   H1527     1.0  0.57188  0.94688  0.51589  1.0000
  H   H1528     1.0  0.58725  0.67807  0.97661  1.0000
  H   H1529     1.0  0.68828  0.92616  0.50696  1.0000
  H   H1530     1.0  0.90187  0.77587  0.98923  1.0000
  H   H1531     1.0  0.82632  0.93298  0.98921  1.0000
  C   C1916     1.0  0.93163  0.96990  0.97963  1.0000
  H   H1532     1.0  0.91400  0.00590  0.92587  1.0000
  C   C1917     1.0  0.00248  0.92678  0.87011  1.0000
  Fe  Fe127     1.0  0.00541  0.00277  0.80685  1.0000
  H   H1533     1.0  0.90333  0.00155  0.97445  1.0000
  Fe  Fe128     1.0  0.50703  0.95155  0.58074  1.0000
  C   C1918     1.0  0.94897  0.69142  0.97960  1.0000
  C   C1919     1.0  0.99867  0.91898  0.96830  1.0000
  H   H1534     1.0  0.99929  0.69076  0.90455  1.0000
  C   C1920     1.0  0.56977  0.98937  0.51619  1.0000
  H   H1535     1.0  0.00283  0.93703  0.73069  1.0000
  H   H1536     1.0  0.57089  0.87730  0.50649  1.0000
