data_image0
_chemical_formula_structural       FeCFeS2FeS2H2C2FeSCHCSCHSC2H3C8H4CHCHCH2SC2HSCHC2H3CHC3H3CHC3H2C6H3CH2CH4PSC2FeCHC2HC2H3CH4C2H3C4H2CHCHC3PHFeH2SC4HC3HCHCH2SHC4HC6H2CHC3HCHC2H2SFeH2CH4C2H2CHCHFeCHCHC3S3HC2HCFeCHC6H3SHC6H2C2H3SH3CHCHCH2CH2SHCHC2FeCH2SC3HC4SHSCH2C3HCHCSC3HC2H5C3H2CHC2HFeHC3HFeCHPHPCHCHC5HCHCH2C3HCH5C6PC2H2PCHCH2C2H2CHSC2HCHCHFeS2FeS2FeSFeS4FeSCFeS2FeSFeS3FeS2H2CH4SH2C3H4C8FeH2C5HSHCHCSHC6H4C6H6SHC6H3CH2C4H5CH3C4SCHCH3C2HSCHFeHC7PC18H17CH2C12H6C3HCH2CHC3SH3SH2CH2C3H3C6PC18H2CH14SPHC3HPSHCFeCH3C2HC4SH2C2H2C4HC2PCHC2HCPCH2C2H2C2HC2FeH2CH2C5FeH3CH2C3HCH2CHC3H2CH3C5HSH2C3HC3HCHC6H2C4HCH2C3H4CH4C3H3C5HFeS2FeS2FeSFeS3FeSHFeSFeSFeS3C3HCHC2SHSC12HCH2CSCH3CHCHC6H5CHCH2C8H3C3H2C3HPH2CSH2CH4C6HC3H2CHC5HC5PHCHC4HSH4CH5SHC7PC18H19SFeHC6PCH3C8HSH3CH2C3H8C2FeH3SCSH3CHC6HCHCHC3PC18HC2H17C10H4CH2C4H2CH2SHCHPC3HC2HC2FeC2H2C3H2SC2HCH2C2HCH5C2SCHCSHCH2C3H3CSC3HCFeH2CFeCHC6HC3H4CH4C2H2CSHCFeCHC3H2CH3FeHSFeS2CFeS3C2FeSC5H2C4H2C3HC7H7CHC4H5C5HCFePH3C3PHCH2S2CHCH2SHC2H2CHCHC3H3CSHSHCHCH2C2HC2HCSC3HC2PHC4H2C4FeHCHCHC2H5C4FeH3C4HC2H2CHC3HCHFeH2C2SC2FeCHC3H3CHCH3CHC4HCHC3HSCFeS2FeS2FeSFeS3H2C2HC3HC2HC6H4C5HC2HPC6H4CHC5PC3HC4H2C3H2CHSCHCH5C2H2C4SC4H2C2HCPC3HC2HC3PHC7H5CH3CH8CH5C5HCHCSCH3C5HC2FeCHC3H2CHCHCH4FeS2FeS2FeCFeS3HCHCH2S2HCHCH2C5HC7H4C6H7CSH4C7HCHCH3C2H2C2HCPCHC3H3CHCFeH3CHCH2C6H2CHC6PC18H21C3HCHCH3C3HSCH2CHCHC2H4FeH3CH2CHCHC2HCHC4HC2HCPC3HC3HCHC3H2C4SFeHC8PC2HCH2C2H5SCPC2SC2HFeCHSH3CHC2FeSHFeS2FeSHFeS2Fe2S3HC2H2FeSCH2FeS2CHFeCS2C5H2SC8H4C6H4CHPHC2SH4C3H9C3HCHC4H2C2HC2PC7H3CH5C2H2C2H3CSCHC2H3CHC3H4CHC3FeC3HCH2CH2CH2C4HCH2C5H2PH2C2H2CSHCFeC2SH3C6H3C3FeC2HCHCHCSHCHC2H4CH2C2HC5H4CHCSCHFeCSHCS3FeS2FeS2FeCFeS3HS2C6H5C6H3C6H4CHC7HCH2C2H2C2HC2HCHC2HCHCPHCH3CHC3HCH5CFeHCH2C9HCH5SCHC6PC13H14C2H2C3HPC2SC2H3C6FeC3H2C2HC2HCHC2HC3H5SCHCHC3HFeH3C2SHC3HCPCHCHCHCH4CHC2H3C2HC4HCFeHCHCHC2H2SCHCPH5C2SH4C2FeS2FeS2FeS2FeS2FeSFeS2HCHC3FeSCSHSCHC3HC6H4C2PH2CHCHCHC6H4SC2HCH2C2HC2HCH2SC2H2C6H3CH2CHC2H2C2HC3HC5HC7PC6H10C10H5CH4C2HCHCHC2HC4H2C2H2CH2SHC2HCHC2H4CSCH6C2HCHC2H3C3HCH8C3HCHC3HC2H5C2HCPHCFeS2FeHFeSCSCFeS2FeSFeS2Fe2S3C2H4C7H4C6H4C4H6CH2C2HC4H2CH3C3PCH3CHSC2H2C7HCH2CH6CH2C2HCHC4PHSHCHC8H3CH9FeHC2HC2PSHCH2CH5C5H5C2H6PH4C6PC17H2SCH5CFeCHCH3CHC2HC7H3C2HCFeS2FeS2FeS2FeSFeS3CFeS2HC4SHCHCH2C2HC7H4CH2CHCHC2HC6H4C5H3C2H2CFeC2H3CSC3HCH4S2CHC2H3CHCHC4HC3HFeH3C2H3C2H3CHCH4C3HCH2CH3C3PC4PC13H16C4SCHC3HC3PC7HC7H15CHCH2C2HC3H2C6HC2HPH2C2HFeHC4HC4H2CHC2HCFeSCH2FeS2FeS2FeSFeS3CHC2H2C2HCH2C6H4CH3C2HC2H3C8H4CS2PC3HC6HC3HCHC5PHC2SC2H2CSH5CHFeCHCH2SHC5H3CH2C5HC4HCH2CHC2H8C2HCPC8HC2H5CHC5HC3HCHCHC4PC13H9C2HCH2CHC2H3C3H2C3H2CH4SCHSCHCHSC2SFeS2FeS2Fe2S3CHCHC2SH2C6H4C3SHC2H2C2HC3H4CHC4H2CHCH3CHCH3CHC2PCH2C2FeC5HC2SHFeH2C2HCH3PC3SC3H4C4HC4H3CHC2HCHC2H3CPCH2CHC2HC2H2CH2C2H2C2H3C4SC2H2CHCHCHCHCHC3H3FeCSFeSHSCHFeS2H4C2H2SFeCSFeS2C2FeS3C6HCH2C3HCHCH5C3HCH2C6H4C6H3CSCHCHCHCH3CFeHCHC6PC9H2C7H12C2H9C7PHSC7HC3HCH2SHCHCH2PFeHC4HCHC5H2CHC2H3C3HCH2PC2PCH2C3H2C2HCHC3PSHC7H2SC3HCHCH2SHCH5C3HC3H2C3HC2H2C2HCH2C2HCH3C2HCHC2H2C5H2C2HFeCHCHSC2HCHCH3C2H4C3SH2CHFeHC2HS2CSHFeS2FeS2CHCFeSCSCFeS2FeS2FeSFeS3C6H4C2H2CH2C6H4C6H5C6H4CH4C2HCHPHC2HCHC2HCSC2HCHCH4CHFeCHCH2FeH2C4H2CHC6H4C7HC3HCH2CS2C2HC4SHCHC3HC3H3C3H3CHCHC2H4C2HC2HC4P2C22H10CH2C2H5PC2HC2PHFeHC2HC3H2C2H3C2HC2SCHCHCHC6HCH3FeC2HSC2FeCHCH5CHSH4C2H3C2H2CFeC2HC2H2CHCSFeS2FeS2FeSFeHS2FeS2H2C6SFeH2C3HCHCHC6SH3C6H4CHC2H2CH5C2HCH2SC2HCH2C4HC3FeH2CSH2CH2C4H3C6PC19H15CHC3H3C6PC3H3CSC2HC2H2CHCH6C2H4CH2CHC2H4SC2HPC3H2C2FeH2SC2H2CHC2HCHCHCHCH2CHCH2C4H4C5HCPC3HFeS2FeSCFeSFeS3HC2PSCS2FeS2C3H3FeC5H2SHC7H4C6H4C6H5CH2CHCHCH2CH2FePC5H2C6HC2SC4H4CSHCH5C2H2CHCH2C3H2CHC4PC15HCH4C3H7SC2HC3HC3HC3HPCH2CHCH2CHC2H2C6PC3H2FeC12H6CSH2C2H4CSFeC3H2CH2C2H3CH4C2HCHCHCH2CH3CHC3HPCH2CHCHSHFeS2FeS2FeSFeS4HC2HPC6H4CHC10H4C2HCHCH3CHCH2C2HCHC2H2CFeC3H2CH2CH3CH3C3H2C7HC4HPH2CH4C2HCHCHCH4CHCH2CH2C2H2C2HC2H2C3HC2H4C3H2CH2SFeS2FeSFeS2HCSH2C3HFeC2H2C6H4C4HCHCH2PC2H3CH5CH3SH6C3H2CHCHCHFeHCHC2HC2H2C2HC3HCHC2H3C2HC3HFeC7HC3SHPCHCHCHC3HC2H2C2HCFeCHC2HCHCHS2HC6H2C3H3SFeS2FeS2FeSFeS3FePC2HSPFeSCFeSFeHFeS3FeS2FeSC2HC3HC3HCHC2H2C7H4C2HC6H4C7H3C3H5CPHC2HSCHFeHC3HCHCHC2H2C3HCPC5H2C2HC8H3PCH2CH4CH6CH2C3HC2HCHC2PCHSC2PC2H4FeC11HCH8C5HCHC2SC7HC3SH7PC2HCH2C2H3CH2C5H3C5PC18H17C2HCHCH2CHC3H2C2H2CHCHCH2FeC2HC2HC4HC2H2SCHC2H2CHCH2C4SH2PFeC2HCH2C2HC3HC2H4C3HCHC2H2CHC5H2CH2CHC5SC2H3C2SC2SHCH3SC2HC2HC2H5CHCSHFeSFeS2FeSFeS3HFeS2FeS2FeSFeHS2HSCHSFeSFeC3HSC2FeSCSFeCFeS2FeS2C2H2C2H2C2H2C3HC2H4C6H4C6HPH3C2H5C10H4C6H4CHSC3H2CFeC6H3PH2CH2FeH3CHC2H5FeH4C2HCHC6HC3HC6HC3H7C2HC8H4CHCH2C5PC9HSCHCH2SH10CH2C4PC18H17C6H2CHCS2H2CHC3HCPH2C2HCPC4H2PC2H3CHCH2CSC2HCHC2H2C2H2C2PCH2C4HC2H2CHC2HC3HC2HC3HCHCHPC3H3CHC2HCHCHCH3C3H6CSCHC3H3CHC4HCH2CH2C2HC2H2C3H2C3H7CHC2HC4SC2HCH4PCFeS2HFeSHSCHFeS3HC2SHFeS2HFeSHSC2HC3HC2HC2H4C2HC7H4C3HCH2C4H2CSHC2HCHC7FeSCH4C2HCH5C4HSC2HCHC9H5SC4H2CSC3H3C3HCHCH2C2HCHCH5CH2FeCPCHCHC2HC2H2C2HCHC2PC7HCHCH2CHCHFeH2SHCFeS2CFeSH4CHC7H2CHC2FeHCHCHC3HCHCPCHPHC6HC4HC3H5CHC3H2CH5C2HS2C4PHC5H3CH2CHC3HCHCHC4H4C4HC3HCH5CHCHSH2CH2CH2C3H2CHPC2HC2HC6HC2H2C2H3CH2C3SHC3H
_chemical_formula_sum              "Fe216 C3240 S432 H2592 P108"
_cell_length_a       74.652
_cell_length_b       77.187
_cell_length_c       45.5637
_cell_angle_alpha    84.4217
_cell_angle_beta     87.827
_cell_angle_gamma    111.863

_space_group_name_H-M_alt    "P 1"
_space_group_IT_number       1

loop_
  _space_group_symop_operation_xyz
  'x, y, z'

loop_
  _atom_site_type_symbol
  _atom_site_label
  _atom_site_symmetry_multiplicity
  _atom_site_fract_x
  _atom_site_fract_y
  _atom_site_fract_z
  _atom_site_occupancy
  Fe  Fe1       1.0  0.23855  0.23694  0.06507  1.0000
  C   C1        1.0  0.23078  0.05145  0.44648  1.0000
  Fe  Fe2       1.0  0.27079  0.22105  0.06586  1.0000
  S   S1        1.0  0.28694  0.24205  0.09577  1.0000
  S   S2        1.0  0.28938  0.20488  0.05258  1.0000
  Fe  Fe3       1.0  0.25853  0.23566  0.12133  1.0000
  S   S3        1.0  0.26044  0.23161  0.17116  1.0000
  S   S4        1.0  0.24239  0.21294  0.09352  1.0000
  H   H1        1.0  0.31808  0.19893  0.33635  1.0000
  H   H2        1.0  0.28324  0.07716  0.44063  1.0000
  C   C2        1.0  0.16349  0.21103  0.02840  1.0000
  C   C3        1.0  0.16754  0.22157  0.00056  1.0000
  Fe  Fe4       1.0  0.30996  0.12762  0.42837  1.0000
  S   S5        1.0  0.28221  0.16813  0.35914  1.0000
  C   C4        1.0  0.22107  0.18603  0.28366  1.0000
  H   H3        1.0  0.23563  0.23763  0.45350  1.0000
  C   C5        1.0  0.20007  0.20574  0.30703  1.0000
  S   S6        1.0  0.23340  0.21353  0.40404  1.0000
  C   C6        1.0  0.23628  0.18303  0.20825  1.0000
  H   H4        1.0  0.19335  0.21081  0.26230  1.0000
  S   S7        1.0  0.26538  0.24276  0.03533  1.0000
  C   C7        1.0  0.25300  0.22327  0.47259  1.0000
  C   C8        1.0  0.21117  0.19433  0.26506  1.0000
  H   H5        1.0  0.23052  0.07525  0.46721  1.0000
  H   H6        1.0  0.10420  0.19274  0.99616  1.0000
  H   H7        1.0  0.19224  0.21367  0.31578  1.0000
  C   C9        1.0  0.24688  0.14998  0.30688  1.0000
  C   C10       1.0  0.27121  0.18671  0.00582  1.0000
  C   C11       1.0  0.24841  0.20197  0.39256  1.0000
  C   C12       1.0  0.25000  0.18722  0.41156  1.0000
  C   C13       1.0  0.26133  0.17733  0.40244  1.0000
  C   C14       1.0  0.27084  0.18201  0.37409  1.0000
  C   C15       1.0  0.26951  0.19693  0.35547  1.0000
  C   C16       1.0  0.25842  0.20694  0.36459  1.0000
  H   H8        1.0  0.24211  0.18317  0.43312  1.0000
  H   H9        1.0  0.26202  0.16561  0.41674  1.0000
  H   H10       1.0  0.27690  0.20046  0.33371  1.0000
  H   H11       1.0  0.25712  0.21807  0.34963  1.0000
  C   C17       1.0  0.28824  0.19354  0.02019  1.0000
  H   H12       1.0  0.29762  0.03344  0.36696  1.0000
  C   C18       1.0  0.22041  0.18775  0.31409  1.0000
  H   H13       1.0  0.06248  0.23798  0.04617  1.0000
  C   C19       1.0  0.14588  0.20716  0.04452  1.0000
  H   H14       1.0  0.24466  0.19736  0.21195  1.0000
  H   H15       1.0  0.30741  0.00272  0.45482  1.0000
  S   S8        1.0  0.21327  0.23807  0.03995  1.0000
  C   C20       1.0  0.31265  0.05356  0.07048  1.0000
  C   C21       1.0  0.23217  0.17908  0.17942  1.0000
  H   H16       1.0  0.22154  0.10978  0.35232  1.0000
  S   S9        1.0  0.29574  0.12413  0.38542  1.0000
  C   C22       1.0  0.30355  0.04665  0.37617  1.0000
  H   H17       1.0  0.25703  0.21067  0.29078  1.0000
  C   C23       1.0  0.24326  0.13422  0.32757  1.0000
  C   C24       1.0  0.30456  0.19026  0.00975  1.0000
  H   H18       1.0  0.07851  0.22972  0.00478  1.0000
  H   H19       1.0  0.21843  0.15767  0.15163  1.0000
  H   H20       1.0  0.29906  0.04152  0.07337  1.0000
  C   C25       1.0  0.31760  0.06584  0.04416  1.0000
  H   H21       1.0  0.20070  0.24081  0.09972  1.0000
  C   C26       1.0  0.29489  0.20773  0.46599  1.0000
  C   C27       1.0  0.30954  0.20070  0.47071  1.0000
  C   C28       1.0  0.24822  0.23899  0.46564  1.0000
  H   H22       1.0  0.24528  0.23913  0.27345  1.0000
  H   H23       1.0  0.26173  0.15956  0.30145  1.0000
  H   H24       1.0  0.26259  0.23036  0.23341  1.0000
  C   C29       1.0  0.22151  0.16068  0.17407  1.0000
  H   H25       1.0  0.27444  0.16966  0.47344  1.0000
  C   C30       1.0  0.30036  0.21271  0.26174  1.0000
  C   C31       1.0  0.24488  0.15077  0.48155  1.0000
  C   C32       1.0  0.21497  0.14622  0.19760  1.0000
  H   H26       1.0  0.23738  0.19035  0.16123  1.0000
  H   H27       1.0  0.22827  0.18177  0.32879  1.0000
  C   C33       1.0  0.07779  0.24059  0.04599  1.0000
  C   C34       1.0  0.20060  0.20402  0.27681  1.0000
  C   C35       1.0  0.23342  0.24548  0.19169  1.0000
  C   C36       1.0  0.24199  0.24106  0.25077  1.0000
  C   C37       1.0  0.29331  0.21529  0.43737  1.0000
  C   C38       1.0  0.28235  0.07210  0.46383  1.0000
  H   H28       1.0  0.26997  0.17187  0.23976  1.0000
  H   H29       1.0  0.21178  0.19372  0.24146  1.0000
  H   H30       1.0  0.29138  0.23031  0.28797  1.0000
  C   C39       1.0  0.21905  0.15015  0.22653  1.0000
  H   H31       1.0  0.27288  0.24443  0.38951  1.0000
  H   H32       1.0  0.19405  0.11591  0.33089  1.0000
  C   C40       1.0  0.20880  0.12534  0.32400  1.0000
  H   H33       1.0  0.13286  0.25109  0.04490  1.0000
  H   H34       1.0  0.21407  0.13869  0.24426  1.0000
  H   H35       1.0  0.14293  0.19924  0.06632  1.0000
  H   H36       1.0  0.24420  0.21012  0.46499  1.0000
  P   P1        1.0  0.11912  0.23418  0.99092  1.0000
  S   S10       1.0  0.20550  0.24107  0.36018  1.0000
  C   C41       1.0  0.23145  0.15347  0.29439  1.0000
  C   C42       1.0  0.31786  0.13577  0.02311  1.0000
  Fe  Fe5       1.0  0.23307  0.23949  0.37640  1.0000
  C   C43       1.0  0.25165  0.23591  0.22811  1.0000
  H   H37       1.0  0.20026  0.14388  0.29463  1.0000
  C   C44       1.0  0.22425  0.12187  0.33607  1.0000
  C   C45       1.0  0.09008  0.25209  0.48299  1.0000
  H   H38       1.0  0.20989  0.19925  0.34908  1.0000
  C   C46       1.0  0.30650  0.21635  0.41410  1.0000
  C   C47       1.0  0.08164  0.23684  0.46685  1.0000
  H   H39       1.0  0.29361  0.02212  0.01866  1.0000
  H   H40       1.0  0.30466  0.19223  0.23635  1.0000
  H   H41       1.0  0.23896  0.05993  0.42649  1.0000
  C   C48       1.0  0.08703  0.23605  0.02234  1.0000
  H   H42       1.0  0.28159  0.21992  0.43267  1.0000
  H   H43       1.0  0.22931  0.02527  0.43194  1.0000
  H   H44       1.0  0.11879  0.21082  0.04580  1.0000
  H   H45       1.0  0.25528  0.13188  0.33746  1.0000
  C   C49       1.0  0.22966  0.16865  0.23208  1.0000
  C   C50       1.0  0.27455  0.18471  0.25016  1.0000
  H   H46       1.0  0.26586  0.04313  0.45827  1.0000
  H   H47       1.0  0.31561  0.22144  0.26063  1.0000
  H   H48       1.0  0.31046  0.22687  0.34071  1.0000
  C   C51       1.0  0.26716  0.20638  0.27883  1.0000
  C   C52       1.0  0.26018  0.16797  0.48246  1.0000
  C   C53       1.0  0.13232  0.21389  0.03286  1.0000
  C   C54       1.0  0.08830  0.24858  0.06926  1.0000
  H   H49       1.0  0.30494  0.22187  0.39207  1.0000
  H   H50       1.0  0.24752  0.13954  0.47192  1.0000
  C   C55       1.0  0.21001  0.19764  0.32569  1.0000
  H   H51       1.0  0.08906  0.23555  0.44680  1.0000
  C   C56       1.0  0.21237  0.14115  0.30339  1.0000
  H   H52       1.0  0.23001  0.24718  0.16898  1.0000
  C   C57       1.0  0.29804  0.06151  0.36629  1.0000
  C   C58       1.0  0.11744  0.24794  0.04497  1.0000
  C   C59       1.0  0.24749  0.23814  0.19852  1.0000
  P   P2        1.0  0.23571  0.17431  0.26894  1.0000
  H   H53       1.0  0.30669  0.03969  0.45586  1.0000
  Fe  Fe6       1.0  0.30076  0.15487  0.38307  1.0000
  H   H54       1.0  0.30769  0.06326  0.02687  1.0000
  H   H55       1.0  0.20683  0.13194  0.19336  1.0000
  S   S11       1.0  0.30220  0.10946  0.47330  1.0000
  C   C60       1.0  0.26092  0.18962  0.26581  1.0000
  C   C61       1.0  0.22541  0.03194  0.44960  1.0000
  C   C62       1.0  0.28681  0.21777  0.27697  1.0000
  C   C63       1.0  0.10698  0.23984  0.02151  1.0000
  H   H56       1.0  0.25850  0.18894  0.01380  1.0000
  C   C64       1.0  0.19890  0.24956  0.05401  1.0000
  C   C65       1.0  0.27241  0.05283  0.47393  1.0000
  C   C66       1.0  0.19455  0.24828  0.08443  1.0000
  H   H57       1.0  0.29240  0.13895  0.00659  1.0000
  C   C67       1.0  0.29421  0.19622  0.24819  1.0000
  H   H58       1.0  0.28791  0.05990  0.34938  1.0000
  C   C68       1.0  0.30591  0.07865  0.37780  1.0000
  H   H59       1.0  0.17426  0.20627  0.03774  1.0000
  H   H60       1.0  0.05700  0.21126  0.46418  1.0000
  S   S12       1.0  0.31191  0.15757  0.42804  1.0000
  H   H61       1.0  0.30194  0.09027  0.36962  1.0000
  C   C69       1.0  0.21547  0.02105  0.47583  1.0000
  C   C70       1.0  0.30137  0.13064  0.00728  1.0000
  C   C71       1.0  0.28836  0.25220  0.38563  1.0000
  C   C72       1.0  0.29070  0.08483  0.48398  1.0000
  H   H62       1.0  0.13774  0.24821  0.46113  1.0000
  C   C73       1.0  0.26937  0.22483  0.48800  1.0000
  C   C74       1.0  0.31617  0.04268  0.47360  1.0000
  C   C75       1.0  0.06353  0.22295  0.47675  1.0000
  C   C76       1.0  0.29352  0.02210  0.99493  1.0000
  C   C77       1.0  0.13641  0.22480  0.00509  1.0000
  C   C78       1.0  0.31715  0.04904  0.39725  1.0000
  H   H63       1.0  0.99844  0.23992  0.47407  1.0000
  H   H64       1.0  0.28948  0.24653  0.34063  1.0000
  C   C79       1.0  0.22778  0.24823  0.24407  1.0000
  H   H65       1.0  0.21171  0.00603  0.47782  1.0000
  C   C80       1.0  0.30824  0.10433  0.99233  1.0000
  C   C81       1.0  0.29642  0.11478  0.99226  1.0000
  C   C82       1.0  0.22603  0.06009  0.46946  1.0000
  H   H66       1.0  0.31776  0.19537  0.02084  1.0000
  C   C83       1.0  0.22350  0.25036  0.21444  1.0000
  H   H67       1.0  0.08121  0.25221  0.08754  1.0000
  C   C84       1.0  0.10805  0.25205  0.06888  1.0000
  C   C85       1.0  0.31939  0.08106  0.39906  1.0000
  H   H68       1.0  0.16340  0.24361  0.48941  1.0000
  H   H69       1.0  0.25288  0.05237  0.58654  1.0000
  S   S13       1.0  0.99740  0.22208  0.58206  1.0000
  Fe  Fe7       1.0  0.98934  0.22896  0.86833  1.0000
  H   H70       1.0  0.28358  0.11083  0.98007  1.0000
  H   H71       1.0  0.31648  0.17774  0.97752  1.0000
  C   C86       1.0  0.26315  0.05291  0.78932  1.0000
  H   H72       1.0  0.11396  0.24726  0.72452  1.0000
  H   H73       1.0  0.11253  0.24094  0.79194  1.0000
  H   H74       1.0  0.28455  0.03432  0.71092  1.0000
  H   H75       1.0  0.98908  0.22798  0.77174  1.0000
  C   C87       1.0  0.27035  0.17621  0.98189  1.0000
  C   C88       1.0  0.27739  0.06429  0.76737  1.0000
  H   H76       1.0  0.03987  0.21331  0.51073  1.0000
  H   H77       1.0  0.08756  0.21519  0.71012  1.0000
  C   C89       1.0  0.14808  0.02479  0.51255  1.0000
  H   H78       1.0  0.08560  0.20517  0.80527  1.0000
  C   C90       1.0  0.29170  0.05823  0.75698  1.0000
  H   H79       1.0  0.20755  0.00677  0.63881  1.0000
  Fe  Fe8       1.0  0.25827  0.00619  0.56056  1.0000
  C   C91       1.0  0.14217  0.02982  0.53879  1.0000
  H   H80       1.0  0.99564  0.18946  0.76190  1.0000
  C   C92       1.0  0.23818  0.17988  0.50601  1.0000
  H   H81       1.0  0.01546  0.20286  0.71435  1.0000
  C   C93       1.0  0.25692  0.18276  0.49440  1.0000
  C   C94       1.0  0.28124  0.24252  0.49521  1.0000
  C   C95       1.0  0.31454  0.03036  0.65641  1.0000
  S   S14       1.0  0.24789  0.01931  0.88747  1.0000
  S   S15       1.0  0.30301  0.15019  0.86679  1.0000
  S   S16       1.0  0.25651  0.02204  0.51623  1.0000
  H   H82       1.0  0.04624  0.21126  0.80936  1.0000
  C   C96       1.0  0.09095  0.22297  0.95074  1.0000
  C   C97       1.0  0.27745  0.02943  0.79047  1.0000
  H   H83       1.0  0.29614  0.08763  0.52974  1.0000
  C   C98       1.0  0.07143  0.24848  0.80946  1.0000
  Fe  Fe9       1.0  0.01852  0.25117  0.81693  1.0000
  C   C99       1.0  0.31195  0.00279  0.87616  1.0000
  H   H84       1.0  0.27160  0.18919  0.60397  1.0000
  C   C100      1.0  0.29498  0.07902  0.86694  1.0000
  C   C101      1.0  0.27755  0.07591  0.88310  1.0000
  C   C102      1.0  0.26329  0.05757  0.88891  1.0000
  C   C103      1.0  0.26642  0.04208  0.87920  1.0000
  C   C104      1.0  0.28403  0.04516  0.86350  1.0000
  C   C105      1.0  0.29813  0.06356  0.85721  1.0000
  H   H85       1.0  0.27489  0.08767  0.89064  1.0000
  H   H86       1.0  0.24975  0.05534  0.90112  1.0000
  H   H87       1.0  0.28668  0.03341  0.85593  1.0000
  S   S17       1.0  0.01794  0.22814  0.85190  1.0000
  H   H88       1.0  0.01522  0.24311  0.66641  1.0000
  C   C106      1.0  0.30746  0.01041  0.77305  1.0000
  C   C107      1.0  0.27074  0.04608  0.50415  1.0000
  C   C108      1.0  0.10136  0.21703  0.97187  1.0000
  C   C109      1.0  0.27978  0.05868  0.52405  1.0000
  C   C110      1.0  0.28958  0.07794  0.51402  1.0000
  C   C111      1.0  0.01367  0.24441  0.74128  1.0000
  H   H89       1.0  0.27712  0.17707  0.87727  1.0000
  H   H90       1.0  0.27887  0.05367  0.54726  1.0000
  C   C112      1.0  0.08581  0.24912  0.73065  1.0000
  C   C113      1.0  0.21073  0.02965  0.49911  1.0000
  H   H91       1.0  0.29012  0.02112  0.91043  1.0000
  H   H92       1.0  0.31268  0.23724  0.66242  1.0000
  H   H93       1.0  0.09796  0.17995  0.80060  1.0000
  S   S18       1.0  0.00335  0.25008  0.89947  1.0000
  H   H94       1.0  0.05056  0.22080  0.71388  1.0000
  H   H95       1.0  0.27748  0.07790  0.75879  1.0000
  H   H96       1.0  0.28650  0.03235  0.65758  1.0000
  C   C114      1.0  0.28649  0.03467  0.94798  1.0000
  H   H97       1.0  0.16919  0.01675  0.49043  1.0000
  C   C115      1.0  0.31277  0.03309  0.71737  1.0000
  H   H98       1.0  0.07829  0.16965  0.97218  1.0000
  C   C116      1.0  0.29770  0.00891  0.95022  1.0000
  H   H99       1.0  0.12923  0.03304  0.54005  1.0000
  H   H100      1.0  0.31338  0.09605  0.78404  1.0000
  C   C117      1.0  0.21062  0.02171  0.56498  1.0000
  H   H101      1.0  0.14844  0.03474  0.58369  1.0000
  H   H102      1.0  0.01111  0.19374  0.80932  1.0000
  S   S19       1.0  0.28442  0.15886  0.94212  1.0000
  H   H103      1.0  0.21218  0.05612  0.51311  1.0000
  C   C118      1.0  0.30387  0.18025  0.98522  1.0000
  H   H104      1.0  0.30396  0.09201  0.98074  1.0000
  C   C119      1.0  0.01110  0.19707  0.76184  1.0000
  C   C120      1.0  0.09666  0.19771  0.97958  1.0000
  Fe  Fe10      1.0  0.31792  0.12986  0.87548  1.0000
  C   C121      1.0  0.29144  0.02160  0.93393  1.0000
  H   H105      1.0  0.31574  0.22342  0.51532  1.0000
  H   H106      1.0  0.31513  0.02914  0.63290  1.0000
  S   S20       1.0  0.27680  0.01813  0.59692  1.0000
  C   C122      1.0  0.29176  0.04069  0.76837  1.0000
  C   C123      1.0  0.31162  0.22918  0.87874  1.0000
  C   C124      1.0  0.22870  0.03668  0.56304  1.0000
  H   H107      1.0  0.10530  0.17236  0.75099  1.0000
  C   C125      1.0  0.15493  0.25096  0.49824  1.0000
  C   C126      1.0  0.20307  0.01089  0.59246  1.0000
  C   C127      1.0  0.29936  0.20142  0.85292  1.0000
  C   C128      1.0  0.22290  0.16266  0.50498  1.0000
  S   S21       1.0  0.31302  0.10191  0.85738  1.0000
  H   H108      1.0  0.15781  0.23698  0.96764  1.0000
  S   S22       1.0  0.98926  0.25047  0.83156  1.0000
  C   C129      1.0  0.28664  0.17292  0.97144  1.0000
  H   H109      1.0  0.09990  0.18995  0.70587  1.0000
  H   H110      1.0  0.21437  0.13484  0.49167  1.0000
  C   C130      1.0  0.31328  0.21577  0.56220  1.0000
  C   C131      1.0  0.29876  0.00906  0.98087  1.0000
  C   C132      1.0  0.08394  0.24206  0.79409  1.0000
  H   H111      1.0  0.29808  0.24342  0.56723  1.0000
  C   C133      1.0  0.00939  0.23985  0.68926  1.0000
  H   H112      1.0  0.29452  0.02219  0.50507  1.0000
  C   C134      1.0  0.15298  0.03075  0.56338  1.0000
  S   S23       1.0  0.24673  0.00479  0.67267  1.0000
  C   C135      1.0  0.10235  0.24515  0.80403  1.0000
  C   C136      1.0  0.23104  0.03038  0.61559  1.0000
  C   C137      1.0  0.23882  0.04098  0.58827  1.0000
  H   H113      1.0  0.05521  0.23955  0.54027  1.0000
  C   C138      1.0  0.08191  0.18456  0.96609  1.0000
  C   C139      1.0  0.21583  0.04923  0.49552  1.0000
  H   H114      1.0  0.07168  0.24980  0.96754  1.0000
  H   H115      1.0  0.29429  0.24417  0.50596  1.0000
  H   H116      1.0  0.25692  0.17049  0.97152  1.0000
  H   H117      1.0  0.23533  0.19097  0.51563  1.0000
  H   H118      1.0  0.30001  0.19434  0.83373  1.0000
  C   C140      1.0  0.28119  0.19668  0.58453  1.0000
  C   C141      1.0  0.29895  0.21907  0.90354  1.0000
  C   C142      1.0  0.16476  0.02061  0.51094  1.0000
  H   H119      1.0  0.18147  0.22489  0.98857  1.0000
  H   H120      1.0  0.25228  0.05770  0.79790  1.0000
  C   C143      1.0  0.06253  0.23882  0.51966  1.0000
  H   H121      1.0  0.05998  0.18043  0.93506  1.0000
  C   C144      1.0  0.99478  0.23137  0.74882  1.0000
  C   C145      1.0  0.02229  0.20467  0.73504  1.0000
  H   H122      1.0  0.13974  0.02414  0.49344  1.0000
  Fe  Fe11      1.0  0.30923  0.15704  0.91344  1.0000
  H   H123      1.0  0.05054  0.25053  0.60653  1.0000
  C   C146      1.0  0.28621  0.20581  0.53127  1.0000
  C   C147      1.0  0.27386  0.19640  0.55668  1.0000
  C   C148      1.0  0.28619  0.20058  0.90252  1.0000
  H   H124      1.0  0.13230  0.23906  0.92829  1.0000
  Fe  Fe12      1.0  0.03205  0.25132  0.88043  1.0000
  C   C149      1.0  0.03973  0.20979  0.78846  1.0000
  H   H125      1.0  0.31652  0.15278  0.78388  1.0000
  P   P3        1.0  0.27670  0.20508  0.49519  1.0000
  H   H126      1.0  0.09401  0.23778  0.94483  1.0000
  P   P4        1.0  0.31141  0.03395  0.75679  1.0000
  C   C150      1.0  0.01982  0.19959  0.78853  1.0000
  H   H127      1.0  0.28168  0.04449  0.93523  1.0000
  C   C151      1.0  0.29845  0.03223  0.67026  1.0000
  H   H128      1.0  0.26435  0.24093  0.56371  1.0000
  C   C152      1.0  0.07161  0.19061  0.94514  1.0000
  C   C153      1.0  0.17559  0.02129  0.53565  1.0000
  C   C154      1.0  0.30595  0.21579  0.53438  1.0000
  C   C155      1.0  0.30091  0.20627  0.58727  1.0000
  C   C156      1.0  0.99076  0.22637  0.69684  1.0000
  H   H129      1.0  0.20842  0.16062  0.51351  1.0000
  C   C157      1.0  0.26312  0.03545  0.80071  1.0000
  H   H130      1.0  0.25859  0.18869  0.55512  1.0000
  C   C158      1.0  0.31276  0.12378  0.78260  1.0000
  H   H131      1.0  0.23537  0.04481  0.54211  1.0000
  H   H132      1.0  0.31468  0.02951  0.54748  1.0000
  C   C159      1.0  0.16966  0.02657  0.56185  1.0000
  C   C160      1.0  0.31191  0.22007  0.85356  1.0000
  C   C161      1.0  0.28648  0.19169  0.87737  1.0000
  H   H133      1.0  0.30664  0.20625  0.60879  1.0000
  C   C162      1.0  0.04217  0.21505  0.73490  1.0000
  H   H134      1.0  0.31045  0.19377  0.49210  1.0000
  H   H135      1.0  0.31160  0.06584  0.84478  1.0000
  H   H136      1.0  0.25230  0.02678  0.81819  1.0000
  H   H137      1.0  0.06790  0.21461  0.92174  1.0000
  H   H138      1.0  0.27647  0.19285  0.92167  1.0000
  C   C163      1.0  0.09715  0.19357  0.72753  1.0000
  C   C164      1.0  0.10013  0.18362  0.75294  1.0000
  C   C165      1.0  0.09606  0.18796  0.78089  1.0000
  C   C166      1.0  0.08924  0.20239  0.78344  1.0000
  C   C167      1.0  0.08690  0.21291  0.75799  1.0000
  C   C168      1.0  0.09033  0.20801  0.73002  1.0000
  P   P5        1.0  0.07683  0.23063  0.76126  1.0000
  C   C169      1.0  0.05098  0.21803  0.76166  1.0000
  C   C170      1.0  0.07612  0.20982  0.93751  1.0000
  H   H139      1.0  0.29717  0.11888  0.78221  1.0000
  H   H140      1.0  0.23901  0.03356  0.63506  1.0000
  P   P6        1.0  0.19713  0.01589  0.53276  1.0000
  C   C171      1.0  0.29747  0.03348  0.70064  1.0000
  H   H141      1.0  0.29915  0.22513  0.92402  1.0000
  C   C172      1.0  0.05391  0.22403  0.50303  1.0000
  H   H142      1.0  0.05742  0.24689  0.80175  1.0000
  H   H143      1.0  0.27748  0.01619  0.80037  1.0000
  C   C173      1.0  0.21320  0.01531  0.61769  1.0000
  C   C174      1.0  0.30905  0.03282  0.50167  1.0000
  H   H144      1.0  0.24796  0.01188  0.73366  1.0000
  H   H145      1.0  0.30286  0.06732  0.74038  1.0000
  C   C175      1.0  0.02079  0.24875  0.71137  1.0000
  H   H146      1.0  0.17785  0.02763  0.58111  1.0000
  S   S24       1.0  0.05538  0.25025  0.91146  1.0000
  C   C176      1.0  0.22623  0.14813  0.49267  1.0000
  C   C177      1.0  0.28758  0.03497  0.97844  1.0000
  H   H147      1.0  0.30763  0.25209  0.61520  1.0000
  C   C178      1.0  0.15411  0.22851  0.98892  1.0000
  H   H148      1.0  0.28348  0.04499  0.98923  1.0000
  C   C179      1.0  0.11479  0.32872  0.48751  1.0000
  H   H149      1.0  0.24550  0.42389  0.04322  1.0000
  Fe  Fe13      1.0  0.05894  0.38944  0.26103  1.0000
  S   S25       1.0  0.04875  0.37222  0.30552  1.0000
  S   S26       1.0  0.04098  0.40348  0.23751  1.0000
  Fe  Fe14      1.0  0.09266  0.37698  0.25115  1.0000
  S   S27       1.0  0.08557  0.35897  0.29505  1.0000
  S   S28       1.0  0.11854  0.38064  0.21956  1.0000
  Fe  Fe15      1.0  0.05471  0.34992  0.28361  1.0000
  S   S29       1.0  0.03585  0.31920  0.29225  1.0000
  Fe  Fe16      1.0  0.08024  0.38269  0.31389  1.0000
  S   S30       1.0  0.09186  0.38968  0.35865  1.0000
  S   S31       1.0  0.06213  0.36598  0.23840  1.0000
  S   S32       1.0  0.09018  0.40186  0.27076  1.0000
  S   S33       1.0  0.04151  0.39671  0.46975  1.0000
  Fe  Fe17      1.0  0.13375  0.31624  0.01685  1.0000
  S   S34       1.0  0.12258  0.29984  0.06163  1.0000
  C   C180      1.0  0.07242  0.35872  0.12932  1.0000
  Fe  Fe18      1.0  0.17222  0.34070  0.04053  1.0000
  S   S35       1.0  0.16354  0.32619  0.08695  1.0000
  S   S36       1.0  0.20169  0.36246  0.02173  1.0000
  Fe  Fe19      1.0  0.15248  0.29968  0.06531  1.0000
  S   S37       1.0  0.15718  0.27498  0.08984  1.0000
  Fe  Fe20      1.0  0.13430  0.32745  0.08065  1.0000
  S   S38       1.0  0.11300  0.32826  0.11752  1.0000
  S   S39       1.0  0.16299  0.31392  0.01912  1.0000
  S   S40       1.0  0.14366  0.34414  0.03538  1.0000
  Fe  Fe21      1.0  0.30854  0.41369  0.05342  1.0000
  S   S41       1.0  0.30721  0.38619  0.03992  1.0000
  S   S42       1.0  0.28112  0.42010  0.05680  1.0000
  H   H150      1.0  0.21380  0.40123  0.03157  1.0000
  H   H151      1.0  0.05235  0.49169  0.19655  1.0000
  C   C181      1.0  0.19759  0.28675  0.43738  1.0000
  H   H152      1.0  0.17837  0.30179  0.43449  1.0000
  H   H153      1.0  0.01974  0.45633  0.22484  1.0000
  H   H154      1.0  0.06646  0.43203  0.27062  1.0000
  H   H155      1.0  0.13334  0.27498  0.99579  1.0000
  S   S43       1.0  0.30289  0.28970  0.04352  1.0000
  H   H156      1.0  0.08395  0.31710  0.48458  1.0000
  H   H157      1.0  0.02966  0.35596  0.16273  1.0000
  C   C182      1.0  0.29995  0.30750  0.09146  1.0000
  C   C183      1.0  0.17342  0.26561  0.07547  1.0000
  C   C184      1.0  0.30065  0.27659  0.29325  1.0000
  H   H158      1.0  0.26009  0.30283  0.00663  1.0000
  H   H159      1.0  0.19383  0.25998  0.01077  1.0000
  H   H160      1.0  0.29158  0.29367  0.10279  1.0000
  H   H161      1.0  0.00621  0.35955  0.21612  1.0000
  C   C185      1.0  0.14057  0.27641  0.38793  1.0000
  C   C186      1.0  0.22106  0.37687  0.04075  1.0000
  C   C187      1.0  0.22467  0.39612  0.03925  1.0000
  C   C188      1.0  0.24281  0.40903  0.04542  1.0000
  C   C189      1.0  0.25782  0.40299  0.05258  1.0000
  C   C190      1.0  0.25400  0.38369  0.05561  1.0000
  C   C191      1.0  0.23575  0.37069  0.04958  1.0000
  C   C192      1.0  0.31679  0.26348  0.25983  1.0000
  Fe  Fe22      1.0  0.25647  0.28025  0.35375  1.0000
  H   H162      1.0  0.26531  0.37889  0.06198  1.0000
  H   H163      1.0  0.23350  0.35604  0.04976  1.0000
  C   C193      1.0  0.99963  0.36627  0.20033  1.0000
  C   C194      1.0  0.06169  0.30895  0.05153  1.0000
  C   C195      1.0  0.02285  0.26368  0.48446  1.0000
  C   C196      1.0  0.00729  0.42137  0.45382  1.0000
  C   C197      1.0  0.02018  0.29415  0.47540  1.0000
  H   H164      1.0  0.02748  0.26562  0.18756  1.0000
  S   S44       1.0  0.31940  0.36111  0.11019  1.0000
  H   H165      1.0  0.04981  0.33420  0.19327  1.0000
  C   C198      1.0  0.01722  0.44073  0.32430  1.0000
  H   H166      1.0  0.21774  0.27348  0.44726  1.0000
  C   C199      1.0  0.04477  0.36168  0.15468  1.0000
  S   S45       1.0  0.04457  0.48469  0.25851  1.0000
  H   H167      1.0  0.07901  0.35092  0.11727  1.0000
  C   C200      1.0  0.11672  0.36620  0.19096  1.0000
  C   C201      1.0  0.10027  0.35001  0.18960  1.0000
  C   C202      1.0  0.09952  0.33852  0.16712  1.0000
  C   C203      1.0  0.11507  0.34319  0.14551  1.0000
  C   C204      1.0  0.13150  0.35946  0.14673  1.0000
  C   C205      1.0  0.13233  0.37086  0.16945  1.0000
  H   H168      1.0  0.08818  0.34626  0.20601  1.0000
  H   H169      1.0  0.08678  0.32593  0.16652  1.0000
  H   H170      1.0  0.14355  0.36324  0.13022  1.0000
  H   H171      1.0  0.14512  0.38338  0.17033  1.0000
  C   C206      1.0  0.07744  0.39076  0.38974  1.0000
  C   C207      1.0  0.08479  0.39169  0.41778  1.0000
  C   C208      1.0  0.07393  0.39324  0.44272  1.0000
  C   C209      1.0  0.05561  0.39390  0.43973  1.0000
  C   C210      1.0  0.04815  0.39262  0.41181  1.0000
  C   C211      1.0  0.05903  0.39119  0.38691  1.0000
  H   H172      1.0  0.09907  0.39146  0.42015  1.0000
  H   H173      1.0  0.07984  0.39422  0.46409  1.0000
  H   H174      1.0  0.03393  0.39290  0.40938  1.0000
  H   H175      1.0  0.05330  0.39057  0.36544  1.0000
  H   H176      1.0  0.15496  0.27845  0.37888  1.0000
  H   H177      1.0  0.99572  0.37966  0.39321  1.0000
  S   S46       1.0  0.23101  0.28486  0.33543  1.0000
  H   H178      1.0  0.01145  0.28242  0.28146  1.0000
  C   C212      1.0  0.04252  0.42621  0.24326  1.0000
  C   C213      1.0  0.02949  0.43326  0.23015  1.0000
  C   C214      1.0  0.02999  0.45115  0.23475  1.0000
  C   C215      1.0  0.04373  0.46224  0.25215  1.0000
  C   C216      1.0  0.05705  0.45539  0.26473  1.0000
  C   C217      1.0  0.05630  0.43731  0.26060  1.0000
  H   H179      1.0  0.01886  0.42479  0.21659  1.0000
  H   H180      1.0  0.06794  0.46401  0.27778  1.0000
  H   H181      1.0  0.08914  0.26870  0.42088  1.0000
  C   C218      1.0  0.18746  0.29716  0.44854  1.0000
  H   H182      1.0  0.09568  0.27058  0.36682  1.0000
  H   H183      1.0  0.26071  0.34316  0.14860  1.0000
  C   C219      1.0  0.20989  0.28150  0.45548  1.0000
  C   C220      1.0  0.31471  0.26903  0.28781  1.0000
  C   C221      1.0  0.10718  0.27183  0.38128  1.0000
  C   C222      1.0  0.05669  0.37919  0.16224  1.0000
  H   H184      1.0  0.09650  0.27425  0.99223  1.0000
  H   H185      1.0  0.27507  0.27190  0.16337  1.0000
  H   H186      1.0  0.22287  0.28289  0.10535  1.0000
  H   H187      1.0  0.28341  0.40197  0.11653  1.0000
  H   H188      1.0  0.05070  0.38692  0.17569  1.0000
  C   C223      1.0  0.11829  0.27200  0.43083  1.0000
  H   H189      1.0  0.05991  0.45153  0.42777  1.0000
  H   H190      1.0  0.17808  0.25474  0.11865  1.0000
  H   H191      1.0  0.21241  0.25573  0.20902  1.0000
  C   C224      1.0  0.28897  0.28267  0.16625  1.0000
  C   C225      1.0  0.28977  0.29838  0.17980  1.0000
  C   C226      1.0  0.29929  0.46467  0.20820  1.0000
  C   C227      1.0  0.99776  0.38298  0.20581  1.0000
  S   S47       1.0  0.21455  0.25394  0.27217  1.0000
  C   C228      1.0  0.30706  0.30945  0.06203  1.0000
  H   H192      1.0  0.27646  0.29967  0.18758  1.0000
  C   C229      1.0  0.05253  0.34375  0.38019  1.0000
  H   H193      1.0  0.28851  0.37236  0.13032  1.0000
  H   H194      1.0  0.27480  0.29371  0.40880  1.0000
  H   H195      1.0  0.07026  0.31593  0.12289  1.0000
  C   C230      1.0  0.05255  0.35122  0.13832  1.0000
  C   C231      1.0  0.00482  0.42950  0.13254  1.0000
  H   H196      1.0  0.29911  0.28148  0.31430  1.0000
  S   S48       1.0  0.00289  0.48679  0.20545  1.0000
  C   C232      1.0  0.28987  0.27148  0.24437  1.0000
  H   H197      1.0  0.00391  0.47539  0.05598  1.0000
  Fe  Fe23      1.0  0.27998  0.26314  0.06658  1.0000
  H   H198      1.0  0.03011  0.45460  0.13443  1.0000
  C   C233      1.0  0.00246  0.28555  0.46320  1.0000
  C   C234      1.0  0.11962  0.32852  0.39514  1.0000
  C   C235      1.0  0.11624  0.34498  0.39746  1.0000
  C   C236      1.0  0.12068  0.35871  0.37304  1.0000
  C   C237      1.0  0.12878  0.35617  0.34638  1.0000
  C   C238      1.0  0.13270  0.33989  0.34405  1.0000
  C   C239      1.0  0.12761  0.32588  0.36845  1.0000
  P   P7        1.0  0.14280  0.33629  0.30947  1.0000
  C   C240      1.0  0.12369  0.32613  0.28570  1.0000
  C   C241      1.0  0.15862  0.35877  0.29012  1.0000
  C   C242      1.0  0.15080  0.36963  0.27221  1.0000
  C   C243      1.0  0.16289  0.38678  0.25654  1.0000
  C   C244      1.0  0.18287  0.39330  0.25864  1.0000
  C   C245      1.0  0.19080  0.38266  0.27647  1.0000
  C   C246      1.0  0.17875  0.36547  0.29216  1.0000
  C   C247      1.0  0.12839  0.32602  0.25558  1.0000
  C   C248      1.0  0.11379  0.31952  0.23640  1.0000
  C   C249      1.0  0.09437  0.31329  0.24704  1.0000
  C   C250      1.0  0.08952  0.31347  0.27692  1.0000
  C   C251      1.0  0.10410  0.31979  0.29626  1.0000
  C   C252      1.0  0.15684  0.32178  0.31689  1.0000
  C   C253      1.0  0.16842  0.32442  0.34100  1.0000
  C   C254      1.0  0.17974  0.31370  0.34649  1.0000
  C   C255      1.0  0.17966  0.30029  0.32797  1.0000
  C   C256      1.0  0.16818  0.29751  0.30400  1.0000
  C   C257      1.0  0.15678  0.30817  0.29847  1.0000
  H   H199      1.0  0.11614  0.31785  0.41406  1.0000
  H   H200      1.0  0.11011  0.34712  0.41811  1.0000
  H   H201      1.0  0.11784  0.37139  0.37472  1.0000
  H   H202      1.0  0.13187  0.36694  0.32773  1.0000
  H   H203      1.0  0.12995  0.31298  0.36701  1.0000
  H   H204      1.0  0.13532  0.36492  0.27021  1.0000
  H   H205      1.0  0.15666  0.39500  0.24274  1.0000
  H   H206      1.0  0.19216  0.40663  0.24650  1.0000
  H   H207      1.0  0.20630  0.38776  0.27820  1.0000
  H   H208      1.0  0.18529  0.35754  0.30574  1.0000
  H   H209      1.0  0.14338  0.33136  0.24677  1.0000
  H   H210      1.0  0.11749  0.31977  0.21307  1.0000
  H   H211      1.0  0.08315  0.30869  0.23192  1.0000
  H   H212      1.0  0.07443  0.30915  0.28494  1.0000
  H   H213      1.0  0.09999  0.32021  0.31912  1.0000
  H   H214      1.0  0.16887  0.33490  0.35546  1.0000
  H   H215      1.0  0.18855  0.31564  0.36526  1.0000
  C   C258      1.0  0.29881  0.26120  0.40823  1.0000
  H   H216      1.0  0.16819  0.28709  0.28967  1.0000
  H   H217      1.0  0.14806  0.30571  0.27977  1.0000
  C   C259      1.0  0.00849  0.42950  0.30250  1.0000
  C   C260      1.0  0.00923  0.41169  0.30223  1.0000
  C   C261      1.0  0.01830  0.40488  0.32412  1.0000
  C   C262      1.0  0.02676  0.41592  0.34617  1.0000
  C   C263      1.0  0.02685  0.43415  0.34592  1.0000
  C   C264      1.0  0.06025  0.44508  0.38253  1.0000
  C   C265      1.0  0.06744  0.44755  0.41051  1.0000
  C   C266      1.0  0.08424  0.44436  0.41674  1.0000
  C   C267      1.0  0.09430  0.43929  0.39483  1.0000
  C   C268      1.0  0.08776  0.43769  0.36652  1.0000
  C   C269      1.0  0.07091  0.44076  0.36026  1.0000
  C   C270      1.0  0.99402  0.48733  0.09096  1.0000
  H   H218      1.0  0.01912  0.39119  0.32361  1.0000
  H   H219      1.0  0.03370  0.41042  0.36299  1.0000
  H   H220      1.0  0.08927  0.44549  0.43874  1.0000
  H   H221      1.0  0.10704  0.43635  0.39984  1.0000
  H   H222      1.0  0.09550  0.43359  0.34963  1.0000
  H   H223      1.0  0.06616  0.43948  0.33811  1.0000
  C   C271      1.0  0.21195  0.28654  0.48443  1.0000
  C   C272      1.0  0.01296  0.32589  0.12917  1.0000
  C   C273      1.0  0.31412  0.34138  0.09122  1.0000
  H   H224      1.0  0.03011  0.35667  0.48031  1.0000
  C   C274      1.0  0.00392  0.45859  0.14674  1.0000
  H   H225      1.0  0.02487  0.32201  0.07191  1.0000
  H   H226      1.0  0.00311  0.40327  0.28474  1.0000
  C   C275      1.0  0.00892  0.32425  0.25576  1.0000
  H   H227      1.0  0.30527  0.25955  0.21706  1.0000
  C   C276      1.0  0.30768  0.31247  0.18295  1.0000
  C   C277      1.0  0.08433  0.37620  0.13703  1.0000
  C   C278      1.0  0.07651  0.38637  0.15364  1.0000
  S   S49       1.0  0.99261  0.48056  0.27858  1.0000
  H   H228      1.0  0.09979  0.38156  0.13097  1.0000
  H   H229      1.0  0.08588  0.39963  0.16039  1.0000
  H   H230      1.0  0.01030  0.33974  0.30647  1.0000
  S   S50       1.0  0.25112  0.25341  0.33384  1.0000
  H   H231      1.0  0.00188  0.33063  0.35986  1.0000
  H   H232      1.0  0.00859  0.41194  0.47216  1.0000
  C   C279      1.0  0.03242  0.28062  0.18857  1.0000
  H   H233      1.0  0.14891  0.27760  0.43217  1.0000
  H   H234      1.0  0.04911  0.49331  0.14293  1.0000
  C   C280      1.0  0.04672  0.32008  0.10080  1.0000
  C   C281      1.0  0.13190  0.32533  0.48587  1.0000
  C   C282      1.0  0.00612  0.29226  0.27006  1.0000
  H   H235      1.0  0.00223  0.38877  0.22622  1.0000
  H   H236      1.0  0.06769  0.30496  0.03243  1.0000
  H   H237      1.0  0.06171  0.31865  0.43903  1.0000
  C   C283      1.0  0.20983  0.31829  0.07621  1.0000
  C   C284      1.0  0.21413  0.30212  0.07785  1.0000
  C   C285      1.0  0.21956  0.29546  0.10427  1.0000
  C   C286      1.0  0.22100  0.30512  0.12903  1.0000
  C   C287      1.0  0.21643  0.32126  0.12771  1.0000
  C   C288      1.0  0.21110  0.32791  0.10100  1.0000
  P   P8        1.0  0.21930  0.33472  0.15864  1.0000
  C   C289      1.0  0.19755  0.33866  0.16833  1.0000
  C   C290      1.0  0.22327  0.32229  0.19182  1.0000
  C   C291      1.0  0.21010  0.30399  0.20162  1.0000
  C   C292      1.0  0.21263  0.29430  0.22767  1.0000
  C   C293      1.0  0.22816  0.30287  0.24433  1.0000
  C   C294      1.0  0.24106  0.32125  0.23516  1.0000
  C   C295      1.0  0.23856  0.33102  0.20911  1.0000
  C   C296      1.0  0.19813  0.35182  0.18790  1.0000
  C   C297      1.0  0.18129  0.35467  0.19621  1.0000
  C   C298      1.0  0.16375  0.34429  0.18524  1.0000
  C   C299      1.0  0.16297  0.33089  0.16627  1.0000
  C   C300      1.0  0.17975  0.32789  0.15813  1.0000
  C   C301      1.0  0.23963  0.35632  0.14673  1.0000
  C   C302      1.0  0.23682  0.37303  0.13803  1.0000
  C   C303      1.0  0.25265  0.38949  0.12768  1.0000
  C   C304      1.0  0.27129  0.38930  0.12537  1.0000
  C   C305      1.0  0.27412  0.37260  0.13310  1.0000
  C   C306      1.0  0.25834  0.35612  0.14351  1.0000
  H   H238      1.0  0.20553  0.32342  0.05572  1.0000
  H   H239      1.0  0.21328  0.29469  0.05867  1.0000
  C   C307      1.0  0.30834  0.43320  0.22469  1.0000
  H   H240      1.0  0.22584  0.29998  0.14888  1.0000
  H   H241      1.0  0.20801  0.34061  0.09922  1.0000
  H   H242      1.0  0.19791  0.29716  0.18903  1.0000
  H   H243      1.0  0.20259  0.28006  0.23495  1.0000
  H   H244      1.0  0.23011  0.29524  0.26445  1.0000
  H   H245      1.0  0.25292  0.32792  0.24840  1.0000
  H   H246      1.0  0.24845  0.34539  0.20283  1.0000
  H   H247      1.0  0.21162  0.35989  0.19665  1.0000
  H   H248      1.0  0.18179  0.36499  0.21100  1.0000
  H   H249      1.0  0.15075  0.34664  0.19141  1.0000
  H   H250      1.0  0.14933  0.32291  0.15764  1.0000
  H   H251      1.0  0.17873  0.31714  0.14392  1.0000
  H   H252      1.0  0.22244  0.37333  0.13831  1.0000
  H   H253      1.0  0.25044  0.40227  0.12022  1.0000
  S   S51       1.0  0.28552  0.30409  0.34565  1.0000
  P   P9        1.0  0.03755  0.32742  0.13282  1.0000
  H   H254      1.0  0.07400  0.33177  0.38713  1.0000
  C   C308      1.0  0.04378  0.48447  0.38646  1.0000
  C   C309      1.0  0.03768  0.31882  0.07412  1.0000
  C   C310      1.0  0.29782  0.25350  0.35795  1.0000
  H   H255      1.0  0.05046  0.31301  0.23632  1.0000
  P   P10       1.0  0.03786  0.44796  0.37489  1.0000
  S   S52       1.0  0.19417  0.28017  0.40109  1.0000
  H   H256      1.0  0.01140  0.47303  0.15081  1.0000
  C   C311      1.0  0.02084  0.42696  0.42930  1.0000
  Fe  Fe24      1.0  0.21474  0.26896  0.37838  1.0000
  C   C312      1.0  0.99223  0.42796  0.45473  1.0000
  H   H257      1.0  0.01658  0.45452  0.32389  1.0000
  H   H258      1.0  0.05326  0.47260  0.31914  1.0000
  H   H259      1.0  0.01657  0.33922  0.25573  1.0000
  C   C313      1.0  0.07055  0.30983  0.07807  1.0000
  C   C314      1.0  0.06307  0.31526  0.10261  1.0000
  H   H260      1.0  0.27124  0.44855  0.23084  1.0000
  C   C315      1.0  0.01994  0.43984  0.40606  1.0000
  C   C316      1.0  0.04461  0.47290  0.36488  1.0000
  C   C317      1.0  0.99731  0.31220  0.14693  1.0000
  C   C318      1.0  0.26248  0.33057  0.01583  1.0000
  S   S53       1.0  0.24079  0.26613  0.39780  1.0000
  H   H261      1.0  0.27702  0.28307  0.27646  1.0000
  H   H262      1.0  0.99954  0.30267  0.16411  1.0000
  C   C319      1.0  0.99471  0.26607  0.46258  1.0000
  C   C320      1.0  0.18930  0.30197  0.47766  1.0000
  H   H263      1.0  0.17142  0.27423  0.02983  1.0000
  H   H264      1.0  0.25645  0.26874  0.46724  1.0000
  C   C321      1.0  0.27658  0.25828  0.48792  1.0000
  C   C322      1.0  0.31889  0.31894  0.37278  1.0000
  C   C323      1.0  0.05733  0.50048  0.32827  1.0000
  C   C324      1.0  0.04518  0.31333  0.04962  1.0000
  H   H265      1.0  0.26617  0.35686  0.03248  1.0000
  C   C325      1.0  0.99253  0.35622  0.30178  1.0000
  C   C326      1.0  0.00457  0.44613  0.40682  1.0000
  P   P11       1.0  0.11331  0.27027  0.47039  1.0000
  C   C327      1.0  0.29021  0.30121  0.40539  1.0000
  H   H266      1.0  0.00382  0.38184  0.44507  1.0000
  C   C328      1.0  0.99684  0.49171  0.36551  1.0000
  C   C329      1.0  0.31874  0.27131  0.40332  1.0000
  H   H267      1.0  0.00344  0.45575  0.38873  1.0000
  C   C330      1.0  0.01445  0.44825  0.13729  1.0000
  P   P12       1.0  0.02978  0.31927  0.47671  1.0000
  C   C331      1.0  0.28820  0.27770  0.27170  1.0000
  H   H268      1.0  0.30826  0.32481  0.19299  1.0000
  H   H269      1.0  0.26300  0.31193  0.09788  1.0000
  C   C332      1.0  0.04537  0.30729  0.21604  1.0000
  C   C333      1.0  0.03832  0.31210  0.16497  1.0000
  H   H270      1.0  0.10446  0.49226  0.08891  1.0000
  H   H271      1.0  0.18842  0.29195  0.33242  1.0000
  C   C334      1.0  0.06156  0.33373  0.39695  1.0000
  C   C335      1.0  0.05463  0.32645  0.42629  1.0000
  H   H272      1.0  0.05816  0.34967  0.35763  1.0000
  C   C336      1.0  0.01573  0.31157  0.27104  1.0000
  C   C337      1.0  0.12567  0.27447  0.36931  1.0000
  Fe  Fe25      1.0  0.01896  0.49208  0.24648  1.0000
  H   H273      1.0  0.29576  0.47684  0.20172  1.0000
  H   H274      1.0  0.12853  0.27514  0.34564  1.0000
  C   C338      1.0  0.19060  0.25905  0.03434  1.0000
  H   H275      1.0  0.00144  0.43475  0.28543  1.0000
  H   H276      1.0  0.02691  0.28679  0.14359  1.0000
  C   C339      1.0  0.03211  0.29265  0.16372  1.0000
  C   C340      1.0  0.03868  0.32930  0.43911  1.0000
  C   C341      1.0  0.02956  0.33925  0.42204  1.0000
  C   C342      1.0  0.03655  0.34648  0.39270  1.0000
  C   C343      1.0  0.99076  0.44022  0.43110  1.0000
  Fe  Fe26      1.0  0.22428  0.25685  0.31875  1.0000
  H   H277      1.0  0.03210  0.42135  0.42874  1.0000
  H   H278      1.0  0.98862  0.50186  0.12642  1.0000
  H   H279      1.0  0.27973  0.27174  0.22816  1.0000
  C   C344      1.0  0.26448  0.34242  0.03797  1.0000
  H   H280      1.0  0.01720  0.34158  0.43126  1.0000
  H   H281      1.0  0.02995  0.35467  0.37978  1.0000
  C   C345      1.0  0.30347  0.32351  0.10601  1.0000
  C   C346      1.0  0.30148  0.30367  0.42974  1.0000
  C   C347      1.0  0.31782  0.26395  0.35267  1.0000
  H   H282      1.0  0.29141  0.26060  0.42936  1.0000
  C   C348      1.0  0.26284  0.31717  0.07502  1.0000
  H   H283      1.0  0.29473  0.29766  0.45168  1.0000
  H   H284      1.0  0.26060  0.29133  0.05834  1.0000
  C   C349      1.0  0.99178  0.31749  0.24125  1.0000
  H   H285      1.0  0.03826  0.31254  0.02902  1.0000
  C   C350      1.0  0.31762  0.46490  0.20000  1.0000
  C   C351      1.0  0.29897  0.30836  0.37678  1.0000
  C   C352      1.0  0.99272  0.35818  0.17485  1.0000
  H   H286      1.0  0.02121  0.34927  0.09443  1.0000
  H   H287      1.0  0.29763  0.32215  0.12846  1.0000
  C   C353      1.0  0.26460  0.33572  0.06752  1.0000
  H   H288      1.0  0.00017  0.48645  0.34564  1.0000
  H   H289      1.0  0.03911  0.27867  0.23413  1.0000
  H   H290      1.0  0.98809  0.40481  0.19050  1.0000
  C   C354      1.0  0.00932  0.33840  0.10798  1.0000
  C   C355      1.0  0.18163  0.25604  0.09508  1.0000
  C   C356      1.0  0.26125  0.30545  0.05293  1.0000
  C   C357      1.0  0.00814  0.48556  0.07173  1.0000
  C   C358      1.0  0.13143  0.30765  0.48042  1.0000
  H   H291      1.0  0.26629  0.34499  0.08448  1.0000
  S   S54       1.0  0.25292  0.25894  0.09471  1.0000
  H   H292      1.0  0.99802  0.41716  0.07933  1.0000
  H   H293      1.0  0.27929  0.42066  0.24554  1.0000
  C   C359      1.0  0.98977  0.28562  0.25402  1.0000
  C   C360      1.0  0.04494  0.31933  0.19139  1.0000
  C   C361      1.0  0.03902  0.28795  0.21475  1.0000
  H   H294      1.0  0.08344  0.30657  0.07956  1.0000
  C   C362      1.0  0.10352  0.27070  0.41192  1.0000
  C   C363      1.0  0.25997  0.25650  0.47331  1.0000
  C   C364      1.0  0.30603  0.28085  0.15612  1.0000
  H   H295      1.0  0.98759  0.34617  0.08684  1.0000
  C   C365      1.0  0.11372  0.29307  0.47728  1.0000
  H   H296      1.0  0.03903  0.47859  0.40926  1.0000
  C   C366      1.0  0.99583  0.33972  0.34792  1.0000
  C   C367      1.0  0.26113  0.31210  0.02345  1.0000
  C   C368      1.0  0.28547  0.44873  0.22460  1.0000
  C   C369      1.0  0.17797  0.26716  0.04503  1.0000
  C   C370      1.0  0.13700  0.27557  0.41844  1.0000
  C   C371      1.0  0.29001  0.43302  0.23287  1.0000
  H   H297      1.0  0.99447  0.29387  0.45470  1.0000
  H   H298      1.0  0.14486  0.30529  0.47927  1.0000
  C   C372      1.0  0.03062  0.28315  0.48513  1.0000
  C   C373      1.0  0.99031  0.33671  0.10365  1.0000
  C   C374      1.0  0.00047  0.34475  0.31758  1.0000
  C   C375      1.0  0.05186  0.48112  0.33591  1.0000
  H   H299      1.0  0.01324  0.42140  0.12652  1.0000
  C   C376      1.0  0.30425  0.26453  0.23827  1.0000
  H   H300      1.0  0.18144  0.30997  0.48601  1.0000
  H   H301      1.0  0.08289  0.28594  0.47465  1.0000
  C   C377      1.0  0.02770  0.49689  0.07285  1.0000
  C   C378      1.0  0.09667  0.29678  0.47776  1.0000
  C   C379      1.0  0.00479  0.25510  0.47352  1.0000
  H   H302      1.0  0.31150  0.42086  0.23125  1.0000
  H   H303      1.0  0.99596  0.35995  0.27807  1.0000
  H   H304      1.0  0.00018  0.40875  0.02896  1.0000
  H   H305      1.0  0.14551  0.33637  0.48941  1.0000
  C   C380      1.0  0.98878  0.37657  0.44002  1.0000
  H   H306      1.0  0.99353  0.34485  0.17124  1.0000
  H   H307      1.0  0.06687  0.35174  0.47193  1.0000
  H   H308      1.0  0.30491  0.26847  0.14579  1.0000
  H   H309      1.0  0.10853  0.49770  0.03408  1.0000
  C   C381      1.0  0.31757  0.32737  0.04710  1.0000
  C   C382      1.0  0.98954  0.39195  0.18554  1.0000
  C   C383      1.0  0.09722  0.31453  0.48307  1.0000
  H   H310      1.0  0.22535  0.31032  0.00703  1.0000
  H   H311      1.0  0.03835  0.49522  0.05786  1.0000
  H   H312      1.0  0.27402  0.34475  0.48469  1.0000
  C   C384      1.0  0.98874  0.40339  0.07458  1.0000
  C   C385      1.0  0.14061  0.25395  0.48196  1.0000
  C   C386      1.0  0.99945  0.50040  0.11135  1.0000
  C   C387      1.0  0.98993  0.39872  0.04581  1.0000
  C   C388      1.0  0.09662  0.49962  0.07691  1.0000
  H   H313      1.0  0.11620  0.25823  0.08698  1.0000
  Fe  Fe27      1.0  0.14873  0.30404  0.59569  1.0000
  S   S55       1.0  0.15666  0.31441  0.54764  1.0000
  S   S56       1.0  0.12098  0.27954  0.61242  1.0000
  Fe  Fe28      1.0  0.18711  0.33282  0.61498  1.0000
  S   S57       1.0  0.19724  0.34539  0.56759  1.0000
  S   S58       1.0  0.20340  0.33787  0.65742  1.0000
  Fe  Fe29      1.0  0.16620  0.34297  0.56331  1.0000
  S   S59       1.0  0.15581  0.36353  0.53716  1.0000
  Fe  Fe30      1.0  0.18646  0.31558  0.55634  1.0000
  S   S60       1.0  0.20488  0.30279  0.53219  1.0000
  S   S61       1.0  0.15681  0.33242  0.61131  1.0000
  S   S62       1.0  0.17779  0.30309  0.60373  1.0000
  Fe  Fe31      1.0  0.02535  0.37916  0.57808  1.0000
  S   S63       1.0  0.04731  0.39890  0.60337  1.0000
  H   H314      1.0  0.99862  0.36307  0.87351  1.0000
  Fe  Fe32      1.0  0.04769  0.39776  0.51838  1.0000
  S   S64       1.0  0.07134  0.41955  0.53959  1.0000
  Fe  Fe33      1.0  0.06913  0.39470  0.57241  1.0000
  S   S65       1.0  0.09214  0.38813  0.59699  1.0000
  Fe  Fe34      1.0  0.04732  0.42168  0.56923  1.0000
  S   S66       1.0  0.04205  0.44766  0.58080  1.0000
  S   S67       1.0  0.04680  0.37283  0.54963  1.0000
  S   S68       1.0  0.02407  0.40201  0.54527  1.0000
  C   C389      1.0  0.03020  0.32508  0.80536  1.0000
  C   C390      1.0  0.00683  0.43810  0.84257  1.0000
  C   C391      1.0  0.08158  0.26338  0.60896  1.0000
  H   H315      1.0  0.14733  0.26714  0.89163  1.0000
  C   C392      1.0  0.00436  0.40275  0.72186  1.0000
  H   H316      1.0  0.99281  0.33975  0.79828  1.0000
  C   C393      1.0  0.10449  0.25417  0.71681  1.0000
  C   C394      1.0  0.01923  0.33618  0.80783  1.0000
  S   S69       1.0  0.01058  0.47665  0.78375  1.0000
  H   H317      1.0  0.24521  0.36386  0.83937  1.0000
  S   S70       1.0  0.27356  0.40171  0.70948  1.0000
  C   C395      1.0  0.08129  0.28734  0.55925  1.0000
  C   C396      1.0  0.27118  0.33146  0.56988  1.0000
  C   C397      1.0  0.20161  0.29670  0.49571  1.0000
  C   C398      1.0  0.07970  0.34953  0.51270  1.0000
  C   C399      1.0  0.11095  0.26805  0.69240  1.0000
  C   C400      1.0  0.24967  0.36863  0.97828  1.0000
  C   C401      1.0  0.03586  0.44980  0.61803  1.0000
  C   C402      1.0  0.03939  0.43888  0.64170  1.0000
  C   C403      1.0  0.03536  0.44146  0.67100  1.0000
  C   C404      1.0  0.02740  0.45471  0.67725  1.0000
  C   C405      1.0  0.02344  0.46540  0.65360  1.0000
  C   C406      1.0  0.02783  0.46307  0.62412  1.0000
  H   H318      1.0  0.04574  0.42880  0.63745  1.0000
  C   C407      1.0  0.00285  0.29707  0.66044  1.0000
  H   H319      1.0  0.01740  0.47570  0.65810  1.0000
  H   H320      1.0  0.02511  0.47164  0.60598  1.0000
  C   C408      1.0  0.01186  0.32731  0.49138  1.0000
  S   S71       1.0  0.31893  0.42469  0.75684  1.0000
  C   C409      1.0  0.09171  0.27803  0.97133  1.0000
  H   H321      1.0  0.99537  0.43738  0.85856  1.0000
  H   H322      1.0  0.02419  0.34808  0.82035  1.0000
  H   H323      1.0  0.99776  0.33711  0.66516  1.0000
  C   C410      1.0  0.28888  0.33691  0.55278  1.0000
  H   H324      1.0  0.29572  0.38796  0.67166  1.0000
  C   C411      1.0  0.98776  0.30802  0.58659  1.0000
  H   H325      1.0  0.01240  0.33451  0.58133  1.0000
  C   C412      1.0  0.22411  0.35551  0.66989  1.0000
  C   C413      1.0  0.23287  0.37373  0.65500  1.0000
  C   C414      1.0  0.24805  0.38757  0.66726  1.0000
  C   C415      1.0  0.25525  0.38331  0.69400  1.0000
  C   C416      1.0  0.24701  0.36490  0.70831  1.0000
  C   C417      1.0  0.23142  0.35121  0.69652  1.0000
  H   H326      1.0  0.22774  0.37731  0.63437  1.0000
  H   H327      1.0  0.25426  0.40172  0.65592  1.0000
  H   H328      1.0  0.25229  0.36134  0.72890  1.0000
  H   H329      1.0  0.22487  0.33720  0.70829  1.0000
  H   H330      1.0  0.01515  0.39671  0.71908  1.0000
  C   C418      1.0  0.31761  0.31289  0.62759  1.0000
  H   H331      1.0  0.08124  0.29671  0.54008  1.0000
  C   C419      1.0  0.09913  0.27736  0.59636  1.0000
  H   H332      1.0  0.12174  0.25555  0.83784  1.0000
  H   H333      1.0  0.29191  0.35005  0.87219  1.0000
  C   C420      1.0  0.31445  0.33324  0.75936  1.0000
  C   C421      1.0  0.24957  0.40832  0.90273  1.0000
  C   C422      1.0  0.13695  0.36908  0.55327  1.0000
  C   C423      1.0  0.13090  0.36396  0.58336  1.0000
  C   C424      1.0  0.11712  0.36989  0.59627  1.0000
  C   C425      1.0  0.10870  0.38042  0.57913  1.0000
  C   C426      1.0  0.11427  0.38515  0.54883  1.0000
  C   C427      1.0  0.12851  0.37964  0.53601  1.0000
  H   H334      1.0  0.13745  0.35618  0.59701  1.0000
  H   H335      1.0  0.11306  0.36650  0.61972  1.0000
  H   H336      1.0  0.30126  0.40656  0.97693  1.0000
  C   C428      1.0  0.25227  0.38743  0.97955  1.0000
  C   C429      1.0  0.07879  0.28750  0.91721  1.0000
  C   C430      1.0  0.09291  0.30134  0.93116  1.0000
  H   H337      1.0  0.07406  0.29130  0.89627  1.0000
  H   H338      1.0  0.09878  0.31575  0.92085  1.0000
  C   C431      1.0  0.29994  0.34064  0.96957  1.0000
  C   C432      1.0  0.99284  0.28162  0.68127  1.0000
  C   C433      1.0  0.14882  0.28671  0.92293  1.0000
  H   H339      1.0  0.23982  0.39125  0.98258  1.0000
  P   P13       1.0  0.26206  0.33882  0.97769  1.0000
  H   H340      1.0  0.09863  0.26529  0.86622  1.0000
  H   H341      1.0  0.04359  0.32838  0.81601  1.0000
  C   C434      1.0  0.31025  0.29339  0.63475  1.0000
  S   S72       1.0  0.31737  0.38692  0.72883  1.0000
  H   H342      1.0  0.15509  0.29903  0.90676  1.0000
  H   H343      1.0  0.28404  0.39068  0.62199  1.0000
  C   C435      1.0  0.21518  0.28262  0.61396  1.0000
  H   H344      1.0  0.12537  0.27794  0.52979  1.0000
  H   H345      1.0  0.28758  0.32055  0.73962  1.0000
  H   H346      1.0  0.09223  0.36237  0.50649  1.0000
  H   H347      1.0  0.19161  0.27575  0.64738  1.0000
  C   C436      1.0  0.18590  0.34880  0.88636  1.0000
  C   C437      1.0  0.08063  0.25267  0.50986  1.0000
  C   C438      1.0  0.29060  0.37576  0.65974  1.0000
  C   C439      1.0  0.24467  0.30880  0.62133  1.0000
  C   C440      1.0  0.27334  0.34135  0.50847  1.0000
  C   C441      1.0  0.98688  0.28717  0.91995  1.0000
  H   H348      1.0  0.98993  0.41218  0.82693  1.0000
  C   C442      1.0  0.30956  0.27801  0.95760  1.0000
  C   C443      1.0  0.23859  0.32643  0.96468  1.0000
  C   C444      1.0  0.08067  0.27265  0.69632  1.0000
  H   H349      1.0  0.13319  0.38380  0.51275  1.0000
  H   H350      1.0  0.14853  0.30269  0.95901  1.0000
  C   C445      1.0  0.98776  0.29913  0.89442  1.0000
  H   H351      1.0  0.06688  0.26116  0.84775  1.0000
  C   C446      1.0  0.00516  0.30379  0.77937  1.0000
  C   C447      1.0  0.23501  0.33080  0.93542  1.0000
  C   C448      1.0  0.21672  0.32198  0.92538  1.0000
  C   C449      1.0  0.20174  0.30895  0.94468  1.0000
  C   C450      1.0  0.23423  0.29452  0.60454  1.0000
  H   H352      1.0  0.28602  0.27195  0.49315  1.0000
  C   C451      1.0  0.28158  0.33484  0.95843  1.0000
  C   C452      1.0  0.27844  0.32480  0.93373  1.0000
  C   C453      1.0  0.29362  0.32140  0.91971  1.0000
  C   C454      1.0  0.04897  0.32675  0.50108  1.0000
  C   C455      1.0  0.13361  0.27051  0.52056  1.0000
  P   P14       1.0  0.26940  0.32388  0.60911  1.0000
  H   H353      1.0  0.29214  0.25492  0.89863  1.0000
  C   C456      1.0  0.26320  0.43875  0.93610  1.0000
  H   H354      1.0  0.10392  0.28780  0.66304  1.0000
  C   C457      1.0  0.28412  0.37730  0.63160  1.0000
  C   C458      1.0  0.29649  0.26934  0.93736  1.0000
  C   C459      1.0  0.06532  0.34334  0.49305  1.0000
  C   C460      1.0  0.20651  0.28470  0.64039  1.0000
  H   H355      1.0  0.26764  0.34718  0.83555  1.0000
  S   S73       1.0  0.99942  0.29777  0.86130  1.0000
  H   H356      1.0  0.24317  0.32200  0.66088  1.0000
  H   H357      1.0  0.24635  0.34104  0.92039  1.0000
  H   H358      1.0  0.21412  0.32545  0.90276  1.0000
  H   H359      1.0  0.18756  0.30217  0.93704  1.0000
  C   C461      1.0  0.28701  0.28849  0.55251  1.0000
  H   H360      1.0  0.04522  0.43090  0.73751  1.0000
  H   H361      1.0  0.26434  0.31941  0.92529  1.0000
  H   H362      1.0  0.29114  0.31376  0.90057  1.0000
  H   H363      1.0  0.99664  0.29889  0.63992  1.0000
  H   H364      1.0  0.24065  0.29281  0.58385  1.0000
  S   S74       1.0  0.04228  0.27107  0.55455  1.0000
  H   H365      1.0  0.21223  0.40132  0.85214  1.0000
  C   C462      1.0  0.18118  0.34476  0.91693  1.0000
  C   C463      1.0  0.21905  0.40603  0.70652  1.0000
  C   C464      1.0  0.22055  0.39377  0.73007  1.0000
  C   C465      1.0  0.20442  0.37782  0.74111  1.0000
  C   C466      1.0  0.18681  0.37389  0.72826  1.0000
  C   C467      1.0  0.18530  0.38589  0.70403  1.0000
  C   C468      1.0  0.20148  0.40218  0.69360  1.0000
  P   P15       1.0  0.16352  0.37972  0.68455  1.0000
  C   C469      1.0  0.17141  0.38377  0.64550  1.0000
  C   C470      1.0  0.14899  0.35510  0.69562  1.0000
  C   C471      1.0  0.15425  0.34109  0.68486  1.0000
  C   C472      1.0  0.14341  0.32208  0.69422  1.0000
  C   C473      1.0  0.12748  0.31692  0.71491  1.0000
  C   C474      1.0  0.12239  0.33076  0.72629  1.0000
  C   C475      1.0  0.13315  0.34977  0.71688  1.0000
  C   C476      1.0  0.16349  0.39308  0.62482  1.0000
  C   C477      1.0  0.17054  0.39696  0.59507  1.0000
  C   C478      1.0  0.18549  0.39159  0.58560  1.0000
  C   C479      1.0  0.19368  0.38265  0.60599  1.0000
  C   C480      1.0  0.18672  0.37878  0.63577  1.0000
  C   C481      1.0  0.14938  0.39360  0.69211  1.0000
  C   C482      1.0  0.15685  0.40943  0.70730  1.0000
  C   C483      1.0  0.14599  0.42046  0.71179  1.0000
  C   C484      1.0  0.12767  0.41582  0.70104  1.0000
  C   C485      1.0  0.12007  0.39998  0.68612  1.0000
  C   C486      1.0  0.13080  0.38883  0.68187  1.0000
  H   H366      1.0  0.23177  0.41814  0.69761  1.0000
  H   H367      1.0  0.23440  0.39636  0.73921  1.0000
  H   H368      1.0  0.20578  0.36819  0.75900  1.0000
  H   H369      1.0  0.17470  0.36116  0.73668  1.0000
  H   H370      1.0  0.20075  0.41151  0.67473  1.0000
  H   H371      1.0  0.16688  0.34471  0.66961  1.0000
  H   H372      1.0  0.14758  0.31141  0.68553  1.0000
  H   H373      1.0  0.11921  0.30221  0.72242  1.0000
  H   H374      1.0  0.11015  0.32671  0.74255  1.0000
  H   H375      1.0  0.12922  0.36024  0.72658  1.0000
  H   H376      1.0  0.15190  0.39745  0.63115  1.0000
  H   H377      1.0  0.16404  0.40370  0.57910  1.0000
  H   H378      1.0  0.19051  0.39413  0.56234  1.0000
  H   H379      1.0  0.19344  0.37202  0.65125  1.0000
  H   H380      1.0  0.17112  0.41344  0.71537  1.0000
  H   H381      1.0  0.15192  0.43284  0.72316  1.0000
  H   H382      1.0  0.11952  0.42468  0.70386  1.0000
  H   H383      1.0  0.10608  0.39661  0.67709  1.0000
  H   H384      1.0  0.12489  0.37683  0.66967  1.0000
  S   S75       1.0  0.99789  0.25908  0.61463  1.0000
  Fe  Fe35      1.0  0.00696  0.47403  0.73520  1.0000
  H   H385      1.0  0.99280  0.26745  0.72430  1.0000
  C   C487      1.0  0.06605  0.41801  0.73317  1.0000
  C   C488      1.0  0.07105  0.40273  0.74252  1.0000
  C   C489      1.0  0.05893  0.38844  0.76376  1.0000
  C   C490      1.0  0.04180  0.38941  0.77562  1.0000
  C   C491      1.0  0.03676  0.40479  0.76654  1.0000
  C   C492      1.0  0.04900  0.41903  0.74512  1.0000
  P   P16       1.0  0.01418  0.40589  0.78028  1.0000
  C   C493      1.0  0.01827  0.42493  0.80282  1.0000
  H   H386      1.0  0.03853  0.43314  0.68888  1.0000
  H   H387      1.0  0.25714  0.26975  0.55366  1.0000
  H   H388      1.0  0.08891  0.34415  0.55578  1.0000
  C   C494      1.0  0.02442  0.45350  0.83965  1.0000
  C   C495      1.0  0.27192  0.27085  0.55602  1.0000
  C   C496      1.0  0.13649  0.27295  0.97328  1.0000
  C   C497      1.0  0.30256  0.26194  0.91378  1.0000
  C   C498      1.0  0.25477  0.33182  0.55605  1.0000
  C   C499      1.0  0.03588  0.44057  0.79992  1.0000
  C   C500      1.0  0.28441  0.37742  0.97387  1.0000
  C   C501      1.0  0.00595  0.38076  0.83163  1.0000
  H   H389      1.0  0.08420  0.40189  0.73309  1.0000
  S   S76       1.0  0.02885  0.25562  0.76829  1.0000
  H   H390      1.0  0.08728  0.26382  0.52328  1.0000
  H   H391      1.0  0.24293  0.33623  0.51491  1.0000
  H   H392      1.0  0.07529  0.42907  0.71649  1.0000
  C   C502      1.0  0.14436  0.26877  0.91442  1.0000
  H   H393      1.0  0.06268  0.37650  0.77082  1.0000
  H   H394      1.0  0.03249  0.37804  0.79151  1.0000
  C   C503      1.0  0.27086  0.40110  0.97905  1.0000
  C   C504      1.0  0.27821  0.29202  0.62431  1.0000
  C   C505      1.0  0.28986  0.35837  0.67293  1.0000
  H   H395      1.0  0.22156  0.28247  0.49818  1.0000
  H   H396      1.0  0.31866  0.43657  0.89912  1.0000
  H   H397      1.0  0.16698  0.33477  0.92572  1.0000
  H   H398      1.0  0.28488  0.26786  0.63898  1.0000
  H   H399      1.0  0.05954  0.31540  0.57068  1.0000
  H   H400      1.0  0.04728  0.44215  0.78345  1.0000
  H   H401      1.0  0.02006  0.38958  0.83774  1.0000
  H   H402      1.0  0.03514  0.25914  0.70509  1.0000
  C   C506      1.0  0.00375  0.42389  0.82430  1.0000
  C   C507      1.0  0.02325  0.30899  0.79087  1.0000
  Fe  Fe36      1.0  0.00562  0.27153  0.86115  1.0000
  H   H403      1.0  0.20698  0.27210  0.60036  1.0000
  H   H404      1.0  0.26299  0.28365  0.62381  1.0000
  H   H405      1.0  0.31754  0.30389  0.55275  1.0000
  S   S77       1.0  0.30435  0.34198  0.78687  1.0000
  C   C508      1.0  0.19477  0.35371  0.93629  1.0000
  S   S78       1.0  0.99781  0.36112  0.60507  1.0000
  H   H406      1.0  0.24099  0.32820  0.56865  1.0000
  H   H407      1.0  0.26853  0.45031  0.94932  1.0000
  H   H408      1.0  0.99555  0.30031  0.57703  1.0000
  C   C509      1.0  0.29060  0.28295  0.63293  1.0000
  H   H409      1.0  0.28154  0.26800  0.94038  1.0000
  C   C510      1.0  0.21291  0.36696  0.92512  1.0000
  C   C511      1.0  0.06377  0.27331  0.57169  1.0000
  C   C512      1.0  0.14513  0.28878  0.95239  1.0000
  C   C513      1.0  0.21677  0.29887  0.65718  1.0000
  C   C514      1.0  0.27728  0.36155  0.61627  1.0000
  C   C515      1.0  0.00070  0.27935  0.70799  1.0000
  H   H410      1.0  0.11524  0.34233  0.49251  1.0000
  C   C516      1.0  0.31511  0.33740  0.95535  1.0000
  H   H411      1.0  0.30168  0.30675  0.70233  1.0000
  C   C517      1.0  0.25585  0.33656  0.52546  1.0000
  H   H412      1.0  0.15020  0.27206  0.55860  1.0000
  C   C518      1.0  0.01900  0.29201  0.71334  1.0000
  C   C519      1.0  0.02944  0.30727  0.69207  1.0000
  C   C520      1.0  0.02096  0.30997  0.66588  1.0000
  P   P17       1.0  0.05339  0.32368  0.69750  1.0000
  C   C521      1.0  0.05152  0.34640  0.69376  1.0000
  C   C522      1.0  0.06176  0.31914  0.73307  1.0000
  C   C523      1.0  0.06898  0.33349  0.75131  1.0000
  C   C524      1.0  0.07618  0.32995  0.77823  1.0000
  C   C525      1.0  0.07623  0.31212  0.78710  1.0000
  C   C526      1.0  0.06956  0.29796  0.76871  1.0000
  C   C527      1.0  0.06257  0.30151  0.74168  1.0000
  C   C528      1.0  0.06295  0.36085  0.67193  1.0000
  C   C529      1.0  0.06044  0.37799  0.66855  1.0000
  C   C530      1.0  0.04624  0.38067  0.68634  1.0000
  C   C531      1.0  0.03479  0.36631  0.70804  1.0000
  C   C532      1.0  0.03747  0.34928  0.71187  1.0000
  C   C533      1.0  0.07108  0.32233  0.67059  1.0000
  C   C534      1.0  0.06556  0.31013  0.64876  1.0000
  C   C535      1.0  0.07951  0.30908  0.62852  1.0000
  C   C536      1.0  0.09908  0.31986  0.63008  1.0000
  C   C537      1.0  0.10475  0.33174  0.65209  1.0000
  C   C538      1.0  0.09081  0.33307  0.67220  1.0000
  H   H413      1.0  0.04458  0.28944  0.49381  1.0000
  C   C539      1.0  0.26574  0.36345  0.97519  1.0000
  C   C540      1.0  0.27705  0.34417  0.62906  1.0000
  H   H414      1.0  0.02485  0.28962  0.73395  1.0000
  H   H415      1.0  0.02855  0.32184  0.64928  1.0000
  H   H416      1.0  0.06911  0.34740  0.74488  1.0000
  H   H417      1.0  0.08149  0.34096  0.79245  1.0000
  H   H418      1.0  0.08135  0.30921  0.80828  1.0000
  H   H419      1.0  0.06945  0.28406  0.77558  1.0000
  H   H420      1.0  0.05736  0.29032  0.72781  1.0000
  H   H421      1.0  0.07345  0.35892  0.65688  1.0000
  H   H422      1.0  0.06916  0.38901  0.65140  1.0000
  H   H423      1.0  0.04400  0.39380  0.68297  1.0000
  H   H424      1.0  0.02362  0.36827  0.72162  1.0000
  H   H425      1.0  0.02832  0.33818  0.72854  1.0000
  H   H426      1.0  0.05060  0.30122  0.64718  1.0000
  H   H427      1.0  0.07507  0.29980  0.61166  1.0000
  H   H428      1.0  0.10984  0.31895  0.61425  1.0000
  H   H429      1.0  0.11995  0.34012  0.65311  1.0000
  H   H430      1.0  0.09538  0.34252  0.68892  1.0000
  C   C541      1.0  0.22473  0.41422  0.80838  1.0000
  C   C542      1.0  0.24087  0.41943  0.78803  1.0000
  C   C543      1.0  0.25694  0.41532  0.79561  1.0000
  C   C544      1.0  0.25689  0.40602  0.82353  1.0000
  C   C545      1.0  0.24049  0.40021  0.84377  1.0000
  C   C546      1.0  0.22460  0.40481  0.83629  1.0000
  C   C547      1.0  0.25681  0.37643  0.87848  1.0000
  C   C548      1.0  0.28178  0.35698  0.87437  1.0000
  C   C549      1.0  0.26809  0.35541  0.85371  1.0000
  C   C550      1.0  0.25553  0.36498  0.85585  1.0000
  H   H431      1.0  0.21243  0.41772  0.80264  1.0000
  H   H432      1.0  0.24108  0.42686  0.76649  1.0000
  H   H433      1.0  0.26959  0.41955  0.77998  1.0000
  H   H434      1.0  0.26981  0.40364  0.82936  1.0000
  C   C551      1.0  0.09889  0.28939  0.57149  1.0000
  H   H435      1.0  0.11223  0.30031  0.56167  1.0000
  H   H436      1.0  0.31123  0.33719  0.61432  1.0000
  C   C552      1.0  0.04676  0.31704  0.52948  1.0000
  C   C553      1.0  0.00126  0.33117  0.79589  1.0000
  C   C554      1.0  0.20503  0.30479  0.97401  1.0000
  C   C555      1.0  0.09960  0.29672  0.95820  1.0000
  H   H437      1.0  0.28265  0.32926  0.66834  1.0000
  H   H438      1.0  0.23348  0.43043  0.95291  1.0000
  C   C556      1.0  0.27028  0.37756  0.89955  1.0000
  H   H439      1.0  0.07139  0.27963  0.68800  1.0000
  H   H440      1.0  0.19123  0.35051  0.96006  1.0000
  S   S79       1.0  0.02348  0.45772  0.71487  1.0000
  H   H441      1.0  0.22319  0.37369  0.94048  1.0000
  C   C557      1.0  0.09900  0.27720  0.68212  1.0000
  H   H442      1.0  0.28383  0.30094  0.54727  1.0000
  P   P18       1.0  0.24093  0.38918  0.88037  1.0000
  C   C558      1.0  0.28259  0.36775  0.89759  1.0000
  C   C559      1.0  0.07776  0.33935  0.54055  1.0000
  C   C560      1.0  0.28315  0.34264  0.65768  1.0000
  H   H443      1.0  0.20539  0.37866  0.59866  1.0000
  C   C561      1.0  0.03891  0.45475  0.81829  1.0000
  C   C562      1.0  0.14763  0.26712  0.53707  1.0000
  H   H444      1.0  0.03384  0.30471  0.53663  1.0000
  C   C563      1.0  0.30532  0.32200  0.61884  1.0000
  C   C564      1.0  0.01229  0.49601  0.50395  1.0000
  Fe  Fe37      1.0  0.29575  0.39924  0.74175  1.0000
  C   C565      1.0  0.23662  0.41255  0.92120  1.0000
  C   C566      1.0  0.07123  0.26873  0.93000  1.0000
  H   H445      1.0  0.99989  0.29101  0.76903  1.0000
  H   H446      1.0  0.20755  0.36497  0.85144  1.0000
  C   C567      1.0  0.28546  0.31166  0.61728  1.0000
  C   C568      1.0  0.27606  0.43510  0.91691  1.0000
  C   C569      1.0  0.06123  0.32319  0.54898  1.0000
  H   H447      1.0  0.20980  0.30098  0.67708  1.0000
  H   H448      1.0  0.29306  0.36880  0.91380  1.0000
  S   S80       1.0  0.03506  0.27417  0.84376  1.0000
  C   C570      1.0  0.31077  0.31504  0.71784  1.0000
  C   C571      1.0  0.23577  0.31089  0.64774  1.0000
  H   H449      1.0  0.27209  0.36297  0.59466  1.0000
  C   C572      1.0  0.30613  0.29004  0.55549  1.0000
  H   H450      1.0  0.27945  0.41758  0.88510  1.0000
  H   H451      1.0  0.02657  0.46475  0.85328  1.0000
  C   C573      1.0  0.20407  0.36212  0.87514  1.0000
  C   C574      1.0  0.27598  0.25465  0.56172  1.0000
  H   H452      1.0  0.12509  0.27154  0.68098  1.0000
  C   C575      1.0  0.99727  0.32732  0.58896  1.0000
  H   H453      1.0  0.03144  0.30004  0.78975  1.0000
  H   H454      1.0  0.17540  0.34173  0.87138  1.0000
  H   H455      1.0  0.27143  0.38605  0.91742  1.0000
  H   H456      1.0  0.05233  0.46699  0.81545  1.0000
  H   H457      1.0  0.22121  0.40442  0.92256  1.0000
  C   C576      1.0  0.21752  0.37171  0.89449  1.0000
  C   C577      1.0  0.26928  0.42005  0.90012  1.0000
  S   S81       1.0  0.28853  0.38378  0.78770  1.0000
  C   C578      1.0  0.07769  0.26417  0.95724  1.0000
  H   H458      1.0  0.30345  0.34537  0.50888  1.0000
  C   C579      1.0  0.99384  0.36588  0.85201  1.0000
  S   S82       1.0  0.11807  0.31479  0.97396  1.0000
  H   H459      1.0  0.99749  0.40120  0.67637  1.0000
  C   C580      1.0  0.99469  0.31467  0.50714  1.0000
  H   H460      1.0  0.29133  0.44393  0.91503  1.0000
  H   H461      1.0  0.10802  0.39349  0.53548  1.0000
  C   C581      1.0  0.28990  0.34167  0.52215  1.0000
  C   C582      1.0  0.24347  0.42752  0.93816  1.0000
  C   C583      1.0  0.30280  0.32282  0.73889  1.0000
  H   H462      1.0  0.23507  0.35812  0.98105  1.0000
  H   H463      1.0  0.99493  0.27817  0.92034  1.0000
  H   H464      1.0  0.30474  0.28338  0.97627  1.0000
  C   C584      1.0  0.22334  0.31353  0.98406  1.0000
  S   S83       1.0  0.31220  0.42074  0.84415  1.0000
  C   C585      1.0  0.31032  0.27381  0.56145  1.0000
  C   C586      1.0  0.98979  0.33810  0.68495  1.0000
  C   C587      1.0  0.99954  0.38478  0.80414  1.0000
  H   H465      1.0  0.29427  0.35700  0.69514  1.0000
  C   C588      1.0  0.00098  0.40877  0.74894  1.0000
  Fe  Fe38      1.0  0.31359  0.40769  0.80186  1.0000
  H   H466      1.0  0.29713  0.37403  0.97216  1.0000
  H   H467      1.0  0.30181  0.33708  0.56282  1.0000
  C   C589      1.0  0.13153  0.25486  0.96478  1.0000
  Fe  Fe39      1.0  0.31141  0.37287  0.77553  1.0000
  C   C590      1.0  0.06394  0.26138  0.59675  1.0000
  H   H468      1.0  0.00240  0.47597  0.54320  1.0000
  C   C591      1.0  0.99392  0.31471  0.78213  1.0000
  C   C592      1.0  0.99416  0.40500  0.69761  1.0000
  C   C593      1.0  0.28689  0.39609  0.97619  1.0000
  C   C594      1.0  0.99823  0.48368  0.52529  1.0000
  C   C595      1.0  0.98642  0.34067  0.51990  1.0000
  C   C596      1.0  0.00378  0.35332  0.50512  1.0000
  H   H469      1.0  0.31264  0.28045  0.85856  1.0000
  C   C597      1.0  0.09480  0.25915  0.84578  1.0000
  C   C598      1.0  0.15860  0.25775  0.52562  1.0000
  C   C599      1.0  0.07421  0.25883  0.72075  1.0000
  H   H470      1.0  0.31585  0.29868  0.80978  1.0000
  H   H471      1.0  0.00781  0.36830  0.50554  1.0000
  H   H472      1.0  0.03059  0.25519  0.49336  1.0000
  H   H473      1.0  0.27286  0.41544  0.98197  1.0000
  C   C600      1.0  0.07680  0.25679  0.83536  1.0000
  H   H474      1.0  0.99155  0.29972  0.51015  1.0000
  H   H475      1.0  0.08164  0.25405  0.62825  1.0000
  H   H476      1.0  0.99086  0.31320  0.70886  1.0000
  H   H477      1.0  0.06005  0.25549  0.73172  1.0000
  C   C601      1.0  0.31198  0.32783  0.93037  1.0000
  C   C602      1.0  0.01640  0.34668  0.49083  1.0000
  H   H478      1.0  0.01232  0.50078  0.62281  1.0000
  H   H479      1.0  0.17000  0.25583  0.53794  1.0000
  C   C603      1.0  0.29512  0.25611  0.56376  1.0000
  S   S84       1.0  0.98781  0.25592  0.54534  1.0000
  H   H480      1.0  0.02734  0.49779  0.50532  1.0000
  C   C604      1.0  0.98702  0.33722  0.60115  1.0000
  Fe  Fe40      1.0  0.01133  0.25365  0.57327  1.0000
  C   C605      1.0  0.13052  0.26460  0.49233  1.0000
  H   H481      1.0  0.30258  0.34757  0.98947  1.0000
  C   C606      1.0  0.10769  0.25354  0.82992  1.0000
  C   C607      1.0  0.13582  0.25289  0.93526  1.0000
  C   C608      1.0  0.98674  0.41644  0.75164  1.0000
  H   H482      1.0  0.98684  0.36357  0.66655  1.0000
  H   H483      1.0  0.19334  0.29492  0.98910  1.0000
  C   C609      1.0  0.06399  0.54846  0.08008  1.0000
  H   H484      1.0  0.01062  0.53222  0.39714  1.0000
  H   H485      1.0  0.15761  0.73765  0.02025  1.0000
  H   H486      1.0  0.02972  0.62117  0.13593  1.0000
  Fe  Fe41      1.0  0.08085  0.67394  0.05382  1.0000
  H   H487      1.0  0.05716  0.73727  0.24730  1.0000
  S   S85       1.0  0.09303  0.70540  0.05665  1.0000
  Fe  Fe42      1.0  0.06910  0.63278  0.08007  1.0000
  S   S86       1.0  0.05177  0.62201  0.04212  1.0000
  S   S87       1.0  0.07140  0.61374  0.11999  1.0000
  C   C610      1.0  0.14486  0.73062  0.09148  1.0000
  Fe  Fe43      1.0  0.04093  0.64505  0.04613  1.0000
  S   S88       1.0  0.00904  0.63757  0.04459  1.0000
  S   S89       1.0  0.09498  0.65290  0.05041  1.0000
  S   S90       1.0  0.05645  0.65454  0.08622  1.0000
  C   C611      1.0  0.01896  0.51164  0.11256  1.0000
  C   C612      1.0  0.03345  0.69047  0.26784  1.0000
  Fe  Fe44      1.0  0.00223  0.51574  0.20639  1.0000
  S   S91       1.0  0.01703  0.72851  0.39644  1.0000
  C   C613      1.0  0.00256  0.51762  0.39469  1.0000
  C   C614      1.0  0.07361  0.58580  0.05512  1.0000
  C   C615      1.0  0.00098  0.64707  0.07317  1.0000
  C   C616      1.0  0.11213  0.74904  0.99209  1.0000
  C   C617      1.0  0.98683  0.63339  0.42709  1.0000
  H   H488      1.0  0.98911  0.55561  0.34394  1.0000
  H   H489      1.0  0.06329  0.69803  0.34319  1.0000
  C   C618      1.0  0.01000  0.66616  0.07625  1.0000
  C   C619      1.0  0.06514  0.72115  0.15476  1.0000
  C   C620      1.0  0.04335  0.74958  0.19162  1.0000
  C   C621      1.0  0.12427  0.69000  0.99691  1.0000
  H   H490      1.0  0.02221  0.67508  0.06116  1.0000
  H   H491      1.0  0.00857  0.71560  0.25474  1.0000
  C   C622      1.0  0.12825  0.71667  0.08247  1.0000
  C   C623      1.0  0.11322  0.72154  0.07175  1.0000
  C   C624      1.0  0.11452  0.74017  0.07167  1.0000
  H   H492      1.0  0.12734  0.70234  0.08285  1.0000
  C   C625      1.0  0.08901  0.51238  0.03057  1.0000
  C   C626      1.0  0.02179  0.55770  0.15445  1.0000
  C   C627      1.0  0.01983  0.56893  0.12957  1.0000
  C   C628      1.0  0.03474  0.58627  0.11919  1.0000
  C   C629      1.0  0.05193  0.59244  0.13333  1.0000
  C   C630      1.0  0.05376  0.58136  0.15857  1.0000
  C   C631      1.0  0.03871  0.56411  0.16921  1.0000
  H   H493      1.0  0.00674  0.56415  0.11815  1.0000
  H   H494      1.0  0.03303  0.59476  0.10001  1.0000
  H   H495      1.0  0.06692  0.58611  0.16982  1.0000
  H   H496      1.0  0.04027  0.55569  0.18860  1.0000
  H   H497      1.0  0.03884  0.71821  0.09462  1.0000
  H   H498      1.0  0.01568  0.62037  0.33680  1.0000
  H   H499      1.0  0.02504  0.60992  0.29118  1.0000
  C   C632      1.0  0.05419  0.57384  0.06123  1.0000
  H   H500      1.0  0.10326  0.58859  0.05705  1.0000
  C   C633      1.0  0.06907  0.69865  0.12392  1.0000
  C   C634      1.0  0.02453  0.58999  0.24536  1.0000
  C   C635      1.0  0.09555  0.73962  0.19216  1.0000
  C   C636      1.0  0.04935  0.55526  0.07385  1.0000
  H   H501      1.0  0.15669  0.72688  0.09884  1.0000
  H   H502      1.0  0.99414  0.57950  0.40082  1.0000
  H   H503      1.0  0.07334  0.60644  0.22827  1.0000
  H   H504      1.0  0.02444  0.68085  0.28631  1.0000
  H   H505      1.0  0.07317  0.55399  0.13630  1.0000
  C   C637      1.0  0.01096  0.61085  0.29366  1.0000
  C   C638      1.0  0.98708  0.66232  0.11788  1.0000
  C   C639      1.0  0.99547  0.72982  0.28164  1.0000
  C   C640      1.0  0.12255  0.74325  0.22241  1.0000
  C   C641      1.0  0.05910  0.59716  0.23798  1.0000
  H   H506      1.0  0.02262  0.59842  0.18064  1.0000
  C   C642      1.0  0.04858  0.69616  0.21798  1.0000
  Fe  Fe45      1.0  0.07615  0.64392  0.01265  1.0000
  P   P19       1.0  0.00367  0.59605  0.23953  1.0000
  H   H507      1.0  0.02172  0.59795  0.00247  1.0000
  H   H508      1.0  0.09267  0.71994  0.99360  1.0000
  H   H509      1.0  0.02299  0.52164  0.12857  1.0000
  C   C643      1.0  0.05205  0.71999  0.34269  1.0000
  C   C644      1.0  0.00574  0.61680  0.31958  1.0000
  C   C645      1.0  0.00284  0.67384  0.09836  1.0000
  P   P20       1.0  0.06988  0.73217  0.18829  1.0000
  H   H510      1.0  0.03241  0.73552  0.19635  1.0000
  C   C646      1.0  0.04317  0.60226  0.23382  1.0000
  H   H511      1.0  0.06919  0.52649  0.03367  1.0000
  H   H512      1.0  0.09094  0.51492  0.00662  1.0000
  S   S92       1.0  0.02100  0.52199  0.24421  1.0000
  S   S93       1.0  0.99079  0.71535  0.08234  1.0000
  C   C647      1.0  0.07354  0.70819  0.14881  1.0000
  H   H513      1.0  0.24160  0.72826  0.11210  1.0000
  C   C648      1.0  0.07051  0.53923  0.17952  1.0000
  H   H514      1.0  0.00808  0.56335  0.27157  1.0000
  H   H515      1.0  0.03621  0.55483  0.27966  1.0000
  S   S94       1.0  0.00480  0.72321  0.31426  1.0000
  H   H516      1.0  0.00254  0.68057  0.40546  1.0000
  C   C649      1.0  0.05266  0.72478  0.13499  1.0000
  C   C650      1.0  0.01341  0.56906  0.46341  1.0000
  H   H517      1.0  0.06894  0.57604  0.25749  1.0000
  H   H518      1.0  0.08350  0.70539  0.16343  1.0000
  C   C651      1.0  0.15015  0.70801  0.02500  1.0000
  H   H519      1.0  0.10362  0.74944  0.14545  1.0000
  C   C652      1.0  0.98912  0.55152  0.42102  1.0000
  H   H520      1.0  0.06019  0.52683  0.34357  1.0000
  C   C653      1.0  0.02210  0.62306  0.15535  1.0000
  C   C654      1.0  0.08823  0.57918  0.06149  1.0000
  C   C655      1.0  0.00275  0.62814  0.20562  1.0000
  H   H521      1.0  0.04647  0.73512  0.13837  1.0000
  H   H522      1.0  0.01975  0.64844  0.13509  1.0000
  H   H523      1.0  0.13953  0.67787  0.02624  1.0000
  C   C656      1.0  0.98745  0.50347  0.47870  1.0000
  S   S95       1.0  0.00443  0.72610  0.14796  1.0000
  H   H524      1.0  0.09563  0.71926  0.31984  1.0000
  S   S96       1.0  0.06378  0.66617  0.01393  1.0000
  H   H525      1.0  0.03155  0.66867  0.24054  1.0000
  C   C657      1.0  0.05663  0.58004  0.25437  1.0000
  H   H526      1.0  0.04546  0.61568  0.22135  1.0000
  C   C658      1.0  0.99598  0.65064  0.40937  1.0000
  H   H527      1.0  0.07737  0.60030  0.04580  1.0000
  H   H528      1.0  0.03791  0.71079  0.35297  1.0000
  C   C659      1.0  0.03323  0.51001  0.09338  1.0000
  C   C660      1.0  0.07414  0.51572  0.07701  1.0000
  H   H529      1.0  0.03710  0.71513  0.28906  1.0000
  C   C661      1.0  0.00829  0.61257  0.20629  1.0000
  C   C662      1.0  0.08450  0.72479  0.32380  1.0000
  H   H530      1.0  0.04289  0.57912  0.05673  1.0000
  C   C663      1.0  0.05637  0.70211  0.10461  1.0000
  S   S97       1.0  0.00289  0.53564  0.16570  1.0000
  C   C664      1.0  0.08347  0.56058  0.07388  1.0000
  C   C665      1.0  0.98734  0.50618  0.41541  1.0000
  C   C666      1.0  0.00729  0.51034  0.36994  1.0000
  H   H531      1.0  0.00268  0.65107  0.38770  1.0000
  C   C667      1.0  0.04079  0.70979  0.26957  1.0000
  C   C668      1.0  0.06632  0.71283  0.33706  1.0000
  P   P21       1.0  0.05830  0.52455  0.09627  1.0000
  H   H532      1.0  0.07581  0.68890  0.11911  1.0000
  C   C669      1.0  0.02223  0.57295  0.26210  1.0000
  C   C670      1.0  0.01797  0.61016  0.18083  1.0000
  C   C671      1.0  0.23176  0.74013  0.14726  1.0000
  C   C672      1.0  0.00685  0.64099  0.17998  1.0000
  H   H533      1.0  0.03423  0.54643  0.07895  1.0000
  H   H534      1.0  0.00963  0.68864  0.10052  1.0000
  C   C673      1.0  0.06461  0.52174  0.19666  1.0000
  C   C674      1.0  0.05598  0.51184  0.34963  1.0000
  C   C675      1.0  0.01655  0.63847  0.15492  1.0000
  C   C676      1.0  0.99996  0.72412  0.25495  1.0000
  Fe  Fe46      1.0  0.99694  0.72851  0.36044  1.0000
  H   H535      1.0  0.00853  0.70824  0.00531  1.0000
  C   C677      1.0  0.03823  0.56806  0.26671  1.0000
  H   H536      1.0  0.11501  0.67654  0.99067  1.0000
  C   C678      1.0  0.04831  0.71525  0.11002  1.0000
  H   H537      1.0  0.05322  0.69497  0.08498  1.0000
  C   C679      1.0  0.05600  0.71566  0.21956  1.0000
  C   C680      1.0  0.03739  0.68365  0.24207  1.0000
  H   H538      1.0  0.06471  0.72457  0.01635  1.0000
  H   H539      1.0  0.99539  0.63052  0.22474  1.0000
  H   H540      1.0  0.05108  0.69050  0.19815  1.0000
  H   H541      1.0  0.16073  0.70857  0.04088  1.0000
  H   H542      1.0  0.99241  0.60549  0.00719  1.0000
  C   C681      1.0  0.05203  0.72234  0.24564  1.0000
  C   C682      1.0  0.10871  0.74764  0.16712  1.0000
  C   C683      1.0  0.99743  0.57111  0.41874  1.0000
  C   C684      1.0  0.05584  0.73905  0.33476  1.0000
  Fe  Fe47      1.0  0.01026  0.74095  0.10166  1.0000
  H   H543      1.0  0.02319  0.71144  0.47752  1.0000
  H   H544      1.0  0.01855  0.51939  0.35339  1.0000
  H   H545      1.0  0.09500  0.55573  0.07894  1.0000
  C   C685      1.0  0.24339  0.74096  0.12198  1.0000
  C   C686      1.0  0.04935  0.50385  0.37879  1.0000
  C   C687      1.0  0.13555  0.75124  0.19738  1.0000
  C   C688      1.0  0.06154  0.52373  0.13535  1.0000
  H   H546      1.0  0.01795  0.51500  0.46390  1.0000
  C   C689      1.0  0.06896  0.54027  0.14895  1.0000
  C   C690      1.0  0.08433  0.50615  0.09240  1.0000
  H   H547      1.0  0.10286  0.74400  0.06380  1.0000
  H   H548      1.0  0.22093  0.72677  0.15696  1.0000
  C   C691      1.0  0.14823  0.72459  0.01322  1.0000
  H   H549      1.0  0.00252  0.65297  0.17935  1.0000
  C   C692      1.0  0.99292  0.54051  0.44443  1.0000
  C   C693      1.0  0.05534  0.50623  0.15283  1.0000
  C   C694      1.0  0.09422  0.73393  0.99788  1.0000
  H   H550      1.0  0.99198  0.57382  0.18939  1.0000
  C   C695      1.0  0.00493  0.54940  0.46593  1.0000
  H   H551      1.0  0.07598  0.55202  0.18997  1.0000
  Fe  Fe48      1.0  0.98984  0.71052  0.42440  1.0000
  H   H552      1.0  0.09276  0.73119  0.23944  1.0000
  H   H553      1.0  0.01569  0.59514  0.43824  1.0000
  C   C696      1.0  0.00957  0.57990  0.43991  1.0000
  C   C697      1.0  0.99787  0.60567  0.27170  1.0000
  S   S98       1.0  0.99372  0.52825  0.30972  1.0000
  C   C698      1.0  0.98684  0.66659  0.44714  1.0000
  C   C699      1.0  0.99306  0.72902  0.22842  1.0000
  Fe  Fe49      1.0  0.99319  0.51008  0.27332  1.0000
  C   C700      1.0  0.14637  0.74939  0.09044  1.0000
  H   H554      1.0  0.04854  0.51269  0.39544  1.0000
  C   C701      1.0  0.05706  0.50526  0.18327  1.0000
  C   C702      1.0  0.07819  0.73652  0.01059  1.0000
  C   C703      1.0  0.07670  0.51890  0.04597  1.0000
  H   H555      1.0  0.05154  0.70279  0.48589  1.0000
  H   H556      1.0  0.04455  0.74429  0.33934  1.0000
  H   H557      1.0  0.06565  0.52090  0.22039  1.0000
  C   C704      1.0  0.99495  0.69628  0.01008  1.0000
  H   H558      1.0  0.02269  0.57593  0.47994  1.0000
  C   C705      1.0  0.10259  0.73742  0.21986  1.0000
  H   H559      1.0  0.00756  0.54134  0.48483  1.0000
  H   H560      1.0  0.06260  0.50664  0.30567  1.0000
  H   H561      1.0  0.99634  0.72411  0.20837  1.0000
  C   C706      1.0  0.08843  0.74394  0.31620  1.0000
  H   H562      1.0  0.00782  0.67574  0.00593  1.0000
  C   C707      1.0  0.13428  0.72404  0.99306  1.0000
  C   C708      1.0  0.99577  0.66725  0.41927  1.0000
  C   C709      1.0  0.99455  0.67803  0.01036  1.0000
  C   C710      1.0  0.13818  0.69073  0.01687  1.0000
  H   H563      1.0  0.12797  0.74149  0.24376  1.0000
  C   C711      1.0  0.98748  0.61767  0.32380  1.0000
  H   H564      1.0  0.05208  0.75218  0.44557  1.0000
  C   C712      1.0  0.06292  0.75229  0.18625  1.0000
  C   C713      1.0  0.07403  0.75116  0.32136  1.0000
  C   C714      1.0  0.00693  0.50577  0.48062  1.0000
  H   H565      1.0  0.08310  0.50383  0.11629  1.0000
  S   S99       1.0  0.98682  0.75253  0.10617  1.0000
  C   C715      1.0  0.09894  0.50270  0.04602  1.0000
  Fe  Fe50      1.0  0.06999  0.64237  0.75964  1.0000
  S   S100      1.0  0.05772  0.64624  0.80335  1.0000
  S   S101      1.0  0.06626  0.61567  0.73853  1.0000
  Fe  Fe51      1.0  0.08430  0.68474  0.73581  1.0000
  S   S102      1.0  0.07290  0.69190  0.77754  1.0000
  S   S103      1.0  0.09900  0.70236  0.69156  1.0000
  Fe  Fe52      1.0  0.08471  0.67224  0.80229  1.0000
  S   S104      1.0  0.09847  0.68342  0.84385  1.0000
  Fe  Fe53      1.0  0.04672  0.66556  0.77664  1.0000
  S   S105      1.0  0.01672  0.66336  0.79129  1.0000
  S   S106      1.0  0.09832  0.66698  0.76051  1.0000
  S   S107      1.0  0.05670  0.65984  0.73302  1.0000
  H   H566      1.0  0.11808  0.73250  0.85605  1.0000
  H   H567      1.0  0.02318  0.54265  0.64406  1.0000
  C   C716      1.0  0.10737  0.72671  0.67786  1.0000
  C   C717      1.0  0.11711  0.73276  0.64940  1.0000
  H   H568      1.0  0.02104  0.59475  0.75915  1.0000
  C   C718      1.0  0.12221  0.74292  0.55052  1.0000
  C   C719      1.0  0.03265  0.61556  0.96108  1.0000
  C   C720      1.0  0.10412  0.73997  0.69388  1.0000
  H   H569      1.0  0.11974  0.72265  0.63682  1.0000
  C   C721      1.0  0.11637  0.74937  0.92216  1.0000
  C   C722      1.0  0.03339  0.70980  0.61476  1.0000
  H   H570      1.0  0.09660  0.73556  0.71571  1.0000
  C   C723      1.0  0.09250  0.66942  0.87872  1.0000
  C   C724      1.0  0.08543  0.64976  0.88122  1.0000
  C   C725      1.0  0.08253  0.63922  0.90928  1.0000
  C   C726      1.0  0.08587  0.64817  0.93512  1.0000
  C   C727      1.0  0.09192  0.66774  0.93266  1.0000
  C   C728      1.0  0.09578  0.67832  0.90458  1.0000
  H   H571      1.0  0.08306  0.64275  0.86146  1.0000
  H   H572      1.0  0.07797  0.62409  0.91092  1.0000
  H   H573      1.0  0.09430  0.67476  0.95231  1.0000
  H   H574      1.0  0.10132  0.69348  0.90291  1.0000
  C   C729      1.0  0.99271  0.60556  0.60261  1.0000
  C   C730      1.0  0.00078  0.70247  0.86139  1.0000
  C   C731      1.0  0.00054  0.57508  0.79272  1.0000
  C   C732      1.0  0.00144  0.65886  0.76249  1.0000
  C   C733      1.0  0.00913  0.66355  0.73308  1.0000
  H   H575      1.0  0.04581  0.61276  0.95961  1.0000
  C   C734      1.0  0.02008  0.55515  0.64599  1.0000
  C   C735      1.0  0.05437  0.71027  0.66448  1.0000
  H   H576      1.0  0.02455  0.67051  0.72805  1.0000
  P   P22       1.0  0.13279  0.74553  0.97546  1.0000
  C   C736      1.0  0.03989  0.55399  0.78118  1.0000
  C   C737      1.0  0.04240  0.55845  0.75041  1.0000
  C   C738      1.0  0.05113  0.57738  0.73775  1.0000
  C   C739      1.0  0.05692  0.59207  0.75568  1.0000
  C   C740      1.0  0.05466  0.58761  0.78644  1.0000
  C   C741      1.0  0.04655  0.56865  0.79904  1.0000
  H   H577      1.0  0.03759  0.54733  0.73638  1.0000
  H   H578      1.0  0.05292  0.58068  0.71394  1.0000
  H   H579      1.0  0.05932  0.59875  0.80047  1.0000
  H   H580      1.0  0.04540  0.56534  0.82276  1.0000
  C   C742      1.0  0.10467  0.74517  0.55576  1.0000
  H   H581      1.0  0.07013  0.71191  0.52923  1.0000
  C   C743      1.0  0.99411  0.67332  0.93042  1.0000
  C   C744      1.0  0.01097  0.61669  0.84390  1.0000
  C   C745      1.0  0.01518  0.62658  0.86846  1.0000
  C   C746      1.0  0.00230  0.63414  0.87991  1.0000
  C   C747      1.0  0.12136  0.73564  0.87841  1.0000
  P   P23       1.0  0.00833  0.64703  0.91168  1.0000
  C   C748      1.0  0.99078  0.58527  0.51221  1.0000
  C   C749      1.0  0.03049  0.66718  0.90162  1.0000
  C   C750      1.0  0.04230  0.67560  0.92364  1.0000
  H   H582      1.0  0.14800  0.72727  0.93281  1.0000
  C   C751      1.0  0.06487  0.69862  0.88622  1.0000
  C   C752      1.0  0.05321  0.69028  0.86422  1.0000
  C   C753      1.0  0.03600  0.67470  0.87184  1.0000
  C   C754      1.0  0.11260  0.74594  0.89296  1.0000
  H   H583      1.0  0.11058  0.69928  0.58766  1.0000
  H   H584      1.0  0.02992  0.58753  0.91363  1.0000
  C   C755      1.0  0.00371  0.51353  0.58447  1.0000
  C   C756      1.0  0.02965  0.62807  0.93938  1.0000
  C   C757      1.0  0.00924  0.56038  0.86011  1.0000
  H   H585      1.0  0.07948  0.72705  0.63586  1.0000
  H   H586      1.0  0.99749  0.58937  0.91750  1.0000
  C   C758      1.0  0.99074  0.52138  0.57376  1.0000
  H   H587      1.0  0.99791  0.59804  0.49710  1.0000
  S   S108      1.0  0.02873  0.53039  0.79823  1.0000
  C   C759      1.0  0.99826  0.69130  0.83837  1.0000
  H   H588      1.0  0.02882  0.62871  0.87778  1.0000
  C   C760      1.0  0.99913  0.62349  0.96571  1.0000
  H   H589      1.0  0.07930  0.70265  0.59584  1.0000
  H   H590      1.0  0.00275  0.66265  0.68736  1.0000
  H   H591      1.0  0.07852  0.71026  0.88007  1.0000
  H   H592      1.0  0.05783  0.69554  0.84114  1.0000
  H   H593      1.0  0.02729  0.66841  0.85435  1.0000
  C   C761      1.0  0.03578  0.73024  0.54180  1.0000
  C   C762      1.0  0.00694  0.61704  0.71643  1.0000
  H   H594      1.0  0.04090  0.63508  0.92171  1.0000
  H   H595      1.0  0.99174  0.52605  0.55034  1.0000
  C   C763      1.0  0.13421  0.72911  0.89282  1.0000
  C   C764      1.0  0.99758  0.61627  0.74394  1.0000
  C   C765      1.0  0.10888  0.71203  0.57853  1.0000
  C   C766      1.0  0.01261  0.63180  0.94106  1.0000
  S   S109      1.0  0.08390  0.63470  0.96976  1.0000
  C   C767      1.0  0.98945  0.65475  0.92408  1.0000
  C   C768      1.0  0.05212  0.72572  0.54650  1.0000
  C   C769      1.0  0.05762  0.71560  0.52631  1.0000
  C   C770      1.0  0.03292  0.57266  0.63246  1.0000
  H   H596      1.0  0.02208  0.62599  0.71250  1.0000
  H   H597      1.0  0.98993  0.52268  0.86007  1.0000
  C   C771      1.0  0.05355  0.71973  0.61221  1.0000
  C   C772      1.0  0.99680  0.65928  0.71015  1.0000
  H   H598      1.0  0.02123  0.61126  0.83503  1.0000
  C   C773      1.0  0.06394  0.71963  0.63724  1.0000
  P   P24       1.0  0.06611  0.73330  0.57779  1.0000
  C   C774      1.0  0.12440  0.72646  0.56214  1.0000
  C   C775      1.0  0.00961  0.58097  0.76421  1.0000
  C   C776      1.0  0.08907  0.73081  0.57240  1.0000
  H   H599      1.0  0.04596  0.57371  0.61987  1.0000
  C   C777      1.0  0.02382  0.70042  0.64212  1.0000
  C   C778      1.0  0.02324  0.56976  0.87868  1.0000
  H   H600      1.0  0.02498  0.70941  0.59588  1.0000
  C   C779      1.0  0.05936  0.69136  0.91594  1.0000
  C   C780      1.0  0.02919  0.58887  0.63576  1.0000
  C   C781      1.0  0.01273  0.58772  0.65312  1.0000
  P   P25       1.0  0.00807  0.60872  0.65790  1.0000
  H   H601      1.0  0.01061  0.68945  0.82788  1.0000
  C   C782      1.0  0.03043  0.62920  0.65394  1.0000
  C   C783      1.0  0.04692  0.62826  0.66680  1.0000
  C   C784      1.0  0.06377  0.64440  0.66585  1.0000
  C   C785      1.0  0.06431  0.66162  0.65221  1.0000
  C   C786      1.0  0.04799  0.66269  0.63936  1.0000
  C   C787      1.0  0.03107  0.64658  0.64029  1.0000
  C   C788      1.0  0.04716  0.71042  0.50160  1.0000
  H   H602      1.0  0.99340  0.54023  0.67302  1.0000
  H   H603      1.0  0.03752  0.56916  0.87667  1.0000
  H   H604      1.0  0.99786  0.56175  0.57489  1.0000
  H   H605      1.0  0.00564  0.62453  0.76043  1.0000
  H   H606      1.0  0.13812  0.72491  0.55842  1.0000
  C   C789      1.0  0.99667  0.60665  0.69458  1.0000
  H   H607      1.0  0.06256  0.71039  0.68370  1.0000
  H   H608      1.0  0.02695  0.69415  0.68834  1.0000
  H   H609      1.0  0.00515  0.58446  0.80939  1.0000
  C   C790      1.0  0.99067  0.56458  0.55585  1.0000
  H   H610      1.0  0.03934  0.60229  0.62515  1.0000
  H   H611      1.0  0.04657  0.61525  0.67870  1.0000
  H   H612      1.0  0.07620  0.64367  0.67676  1.0000
  H   H613      1.0  0.07723  0.67421  0.65234  1.0000
  H   H614      1.0  0.04834  0.67612  0.62931  1.0000
  H   H615      1.0  0.01843  0.64785  0.63099  1.0000
  H   H616      1.0  0.01511  0.70926  0.86877  1.0000
  H   H617      1.0  0.03844  0.66990  0.94673  1.0000
  C   C791      1.0  0.01897  0.58011  0.89946  1.0000
  H   H618      1.0  0.01294  0.55274  0.84366  1.0000
  H   H619      1.0  0.06869  0.69752  0.93290  1.0000
  H   H620      1.0  0.14080  0.72092  0.88158  1.0000
  H   H621      1.0  0.01463  0.59030  0.53967  1.0000
  H   H622      1.0  0.00826  0.69287  0.64416  1.0000
  C   C792      1.0  0.09121  0.71409  0.58341  1.0000
  C   C793      1.0  0.00455  0.56888  0.74246  1.0000
  C   C794      1.0  0.13813  0.73262  0.92191  1.0000
  C   C795      1.0  0.03430  0.70091  0.66701  1.0000
  C   C796      1.0  0.00016  0.58087  0.53612  1.0000
  H   H623      1.0  0.01226  0.57329  0.72080  1.0000
  C   C797      1.0  0.12225  0.70654  0.98513  1.0000
  H   H624      1.0  0.10268  0.75105  0.88169  1.0000
  C   C798      1.0  0.98808  0.50833  0.63376  1.0000
  S   S110      1.0  0.01001  0.50427  0.72506  1.0000
  C   C799      1.0  0.99037  0.55084  0.74920  1.0000
  H   H625      1.0  0.03131  0.73812  0.55696  1.0000
  H   H626      1.0  0.01311  0.72898  0.51299  1.0000
  H   H627      1.0  0.00891  0.68333  0.92800  1.0000
  C   C800      1.0  0.00066  0.58110  0.90166  1.0000
  C   C801      1.0  0.03115  0.71526  0.49687  1.0000
  C   C802      1.0  0.00235  0.50697  0.61446  1.0000
  C   C803      1.0  0.01904  0.60714  0.98517  1.0000
  C   C804      1.0  0.02544  0.72512  0.51697  1.0000
  H   H628      1.0  0.00289  0.59925  0.59682  1.0000
  C   C805      1.0  0.99206  0.61153  0.63064  1.0000
  C   C806      1.0  0.00332  0.55380  0.66235  1.0000
  Fe  Fe54      1.0  0.01074  0.50588  0.77403  1.0000
  C   C807      1.0  0.99387  0.61426  0.83045  1.0000
  H   H629      1.0  0.01477  0.51240  0.56953  1.0000
  C   C808      1.0  0.99952  0.56995  0.66559  1.0000
  C   C809      1.0  0.00238  0.61124  0.98761  1.0000
  C   C810      1.0  0.12888  0.74240  0.93705  1.0000
  H   H630      1.0  0.11145  0.70563  0.96955  1.0000
  H   H631      1.0  0.99071  0.60680  0.81125  1.0000
  C   C811      1.0  0.99077  0.56122  0.86214  1.0000
  H   H632      1.0  0.98675  0.71330  0.89295  1.0000
  C   C812      1.0  0.98664  0.57181  0.88296  1.0000
  H   H633      1.0  0.98693  0.54124  0.73258  1.0000
  C   C813      1.0  0.12346  0.75176  0.63702  1.0000
  H   H634      1.0  0.15389  0.75211  0.70119  1.0000
  H   H635      1.0  0.98638  0.62674  0.96874  1.0000
  H   H636      1.0  0.98654  0.56846  0.67860  1.0000
  H   H637      1.0  0.98699  0.50314  0.65704  1.0000
  Fe  Fe55      1.0  0.14638  0.82088  0.10826  1.0000
  S   S111      1.0  0.15710  0.81184  0.06795  1.0000
  S   S112      1.0  0.11554  0.81952  0.11675  1.0000
  Fe  Fe56      1.0  0.18542  0.83069  0.13679  1.0000
  S   S113      1.0  0.19844  0.82154  0.09882  1.0000
  S   S114      1.0  0.19901  0.84156  0.17923  1.0000
  Fe  Fe57      1.0  0.18465  0.83743  0.06901  1.0000
  C   C814      1.0  0.25623  0.94826  0.47832  1.0000
  Fe  Fe58      1.0  0.16986  0.79697  0.10073  1.0000
  S   S115      1.0  0.16794  0.76688  0.09995  1.0000
  S   S116      1.0  0.17295  0.84772  0.10706  1.0000
  S   S117      1.0  0.15781  0.80479  0.14101  1.0000
  H   H638      1.0  0.15100  0.75562  0.19924  1.0000
  C   C815      1.0  0.26780  0.78186  0.20873  1.0000
  H   H639      1.0  0.29659  0.97577  0.06627  1.0000
  C   C816      1.0  0.07114  0.78606  0.17944  1.0000
  H   H640      1.0  0.04825  0.81932  0.04794  1.0000
  H   H641      1.0  0.05954  0.77315  0.25812  1.0000
  S   S118      1.0  0.29286  0.89115  0.28497  1.0000
  S   S119      1.0  0.28757  0.86578  0.21039  1.0000
  H   H642      1.0  0.28904  0.86683  0.42234  1.0000
  C   C817      1.0  0.05394  0.78052  0.44759  1.0000
  H   H643      1.0  0.13178  0.76833  0.08044  1.0000
  C   C818      1.0  0.31689  0.99648  0.08923  1.0000
  H   H644      1.0  0.08222  0.81220  0.33240  1.0000
  H   H645      1.0  0.23676  0.81045  0.21273  1.0000
  C   C819      1.0  0.11346  0.76700  0.99812  1.0000
  C   C820      1.0  0.05161  0.78322  0.18447  1.0000
  C   C821      1.0  0.26751  0.93641  0.02549  1.0000
  C   C822      1.0  0.20621  0.80236  0.21061  1.0000
  C   C823      1.0  0.09915  0.78587  0.39549  1.0000
  H   H646      1.0  0.18383  0.88130  0.03247  1.0000
  C   C824      1.0  0.08709  0.80477  0.34974  1.0000
  C   C825      1.0  0.22393  0.84937  0.18672  1.0000
  C   C826      1.0  0.23816  0.84848  0.16676  1.0000
  C   C827      1.0  0.25756  0.85397  0.17412  1.0000
  C   C828      1.0  0.26310  0.86052  0.20148  1.0000
  C   C829      1.0  0.24894  0.86186  0.22116  1.0000
  C   C830      1.0  0.22949  0.85623  0.21387  1.0000
  H   H647      1.0  0.23416  0.84350  0.14570  1.0000
  H   H648      1.0  0.26837  0.85318  0.15844  1.0000
  H   H649      1.0  0.25297  0.86721  0.24195  1.0000
  H   H650      1.0  0.21869  0.85729  0.22929  1.0000
  C   C831      1.0  0.09478  0.80103  0.10719  1.0000
  C   C832      1.0  0.09603  0.78520  0.09614  1.0000
  C   C833      1.0  0.07920  0.77085  0.08876  1.0000
  C   C834      1.0  0.06091  0.77200  0.09274  1.0000
  C   C835      1.0  0.05963  0.78767  0.10430  1.0000
  C   C836      1.0  0.07651  0.80220  0.11112  1.0000
  H   H651      1.0  0.10997  0.78408  0.09308  1.0000
  H   H652      1.0  0.13663  0.80980  0.21652  1.0000
  H   H653      1.0  0.04571  0.78892  0.10695  1.0000
  H   H654      1.0  0.07539  0.81443  0.11948  1.0000
  H   H655      1.0  0.28921  0.97435  0.30347  1.0000
  H   H656      1.0  0.27322  0.82763  0.19228  1.0000
  H   H657      1.0  0.26853  0.92341  0.03498  1.0000
  C   C837      1.0  0.08944  0.85551  0.01842  1.0000
  S   S120      1.0  0.29791  0.86759  0.36036  1.0000
  H   H658      1.0  0.12685  0.77907  0.99334  1.0000
  H   H659      1.0  0.09347  0.76365  0.36832  1.0000
  H   H660      1.0  0.08099  0.75597  0.47361  1.0000
  H   H661      1.0  0.28259  0.85800  0.07428  1.0000
  C   C838      1.0  0.29687  0.95453  0.38147  1.0000
  C   C839      1.0  0.24869  0.95284  0.00264  1.0000
  C   C840      1.0  0.29741  0.91552  0.44436  1.0000
  C   C841      1.0  0.28802  0.90662  0.42085  1.0000
  C   C842      1.0  0.26834  0.90288  0.41888  1.0000
  C   C843      1.0  0.25806  0.90809  0.44033  1.0000
  C   C844      1.0  0.26738  0.91689  0.46420  1.0000
  H   H662      1.0  0.13670  0.82704  0.25969  1.0000
  C   C845      1.0  0.28658  0.81735  0.22690  1.0000
  H   H663      1.0  0.02248  0.76271  0.19362  1.0000
  C   C846      1.0  0.06291  0.82660  0.03792  1.0000
  H   H664      1.0  0.18664  0.91046  0.00054  1.0000
  H   H665      1.0  0.29895  0.94858  0.40300  1.0000
  H   H666      1.0  0.30591  0.98485  0.41247  1.0000
  C   C847      1.0  0.26454  0.97479  0.43989  1.0000
  C   C848      1.0  0.26340  0.95656  0.44929  1.0000
  H   H667      1.0  0.06742  0.75618  0.02758  1.0000
  H   H668      1.0  0.21157  0.77859  0.14144  1.0000
  C   C849      1.0  0.09785  0.78654  0.28315  1.0000
  C   C850      1.0  0.31448  0.00017  0.03608  1.0000
  H   H669      1.0  0.00828  0.78238  0.28331  1.0000
  C   C851      1.0  0.11195  0.78527  0.23469  1.0000
  P   P26       1.0  0.07922  0.77601  0.31344  1.0000
  C   C852      1.0  0.13090  0.75399  0.08118  1.0000
  H   H670      1.0  0.30414  0.84816  0.10629  1.0000
  C   C853      1.0  0.12593  0.80328  0.23518  1.0000
  C   C854      1.0  0.30436  0.86987  0.41897  1.0000
  C   C855      1.0  0.07640  0.76767  0.46953  1.0000
  H   H671      1.0  0.29599  0.90251  0.40428  1.0000
  H   H672      1.0  0.26102  0.89581  0.40083  1.0000
  H   H673      1.0  0.24284  0.90519  0.43830  1.0000
  C   C856      1.0  0.30814  0.98950  0.06392  1.0000
  H   H674      1.0  0.29799  0.80330  0.25990  1.0000
  C   C857      1.0  0.09887  0.80360  0.39840  1.0000
  Fe  Fe59      1.0  0.30477  0.88100  0.24743  1.0000
  H   H675      1.0  0.26999  0.98110  0.41744  1.0000
  H   H676      1.0  0.26810  0.94902  0.43394  1.0000
  H   H677      1.0  0.26139  0.95041  0.33475  1.0000
  C   C858      1.0  0.17606  0.78706  0.00977  1.0000
  H   H678      1.0  0.08192  0.80021  0.17411  1.0000
  C   C859      1.0  0.05993  0.76545  0.45363  1.0000
  H   H679      1.0  0.31256  0.91812  0.44626  1.0000
  H   H680      1.0  0.09220  0.82661  0.37822  1.0000
  C   C860      1.0  0.09791  0.77695  0.25845  1.0000
  C   C861      1.0  0.27653  0.84585  0.09085  1.0000
  C   C862      1.0  0.15452  0.89807  0.05264  1.0000
  C   C863      1.0  0.28722  0.92082  0.46582  1.0000
  C   C864      1.0  0.22441  0.80273  0.20120  1.0000
  C   C865      1.0  0.09338  0.77751  0.36973  1.0000
  H   H681      1.0  0.01880  0.78676  0.33396  1.0000
  H   H682      1.0  0.13977  0.85985  0.10465  1.0000
  C   C866      1.0  0.15208  0.88749  0.08021  1.0000
  H   H683      1.0  0.10344  0.77845  0.41361  1.0000
  C   C867      1.0  0.19013  0.83230  0.28840  1.0000
  C   C868      1.0  0.17436  0.81964  0.30679  1.0000
  C   C869      1.0  0.17579  0.81719  0.33731  1.0000
  C   C870      1.0  0.19289  0.82759  0.34952  1.0000
  C   C871      1.0  0.20850  0.84098  0.33136  1.0000
  C   C872      1.0  0.20719  0.84275  0.30057  1.0000
  P   P27       1.0  0.23120  0.85366  0.34631  1.0000
  C   C873      1.0  0.22946  0.85354  0.38602  1.0000
  C   C874      1.0  0.24701  0.84243  0.33418  1.0000
  C   C875      1.0  0.24831  0.82690  0.35140  1.0000
  C   C876      1.0  0.26033  0.81813  0.34123  1.0000
  C   C877      1.0  0.27060  0.82441  0.31344  1.0000
  C   C878      1.0  0.26869  0.83933  0.29568  1.0000
  C   C879      1.0  0.25695  0.84828  0.30603  1.0000
  C   C880      1.0  0.24480  0.85306  0.40264  1.0000
  C   C881      1.0  0.24345  0.85314  0.43332  1.0000
  C   C882      1.0  0.22700  0.85409  0.44753  1.0000
  C   C883      1.0  0.21209  0.85547  0.43105  1.0000
  C   C884      1.0  0.21342  0.85547  0.40034  1.0000
  C   C885      1.0  0.24135  0.87830  0.33197  1.0000
  C   C886      1.0  0.23100  0.88666  0.31439  1.0000
  C   C887      1.0  0.23988  0.90540  0.30172  1.0000
  C   C888      1.0  0.25890  0.91605  0.30727  1.0000
  C   C889      1.0  0.26878  0.90822  0.32640  1.0000
  C   C890      1.0  0.26012  0.88936  0.33848  1.0000
  H   H684      1.0  0.18924  0.83392  0.26462  1.0000
  H   H685      1.0  0.16117  0.81150  0.29734  1.0000
  H   H686      1.0  0.16374  0.80705  0.35153  1.0000
  H   H687      1.0  0.19393  0.82486  0.37301  1.0000
  H   H688      1.0  0.21944  0.85213  0.28588  1.0000
  H   H689      1.0  0.24022  0.82165  0.37274  1.0000
  H   H690      1.0  0.26182  0.80658  0.35502  1.0000
  H   H691      1.0  0.28010  0.81780  0.30571  1.0000
  H   H692      1.0  0.27648  0.84417  0.27400  1.0000
  H   H693      1.0  0.25566  0.85983  0.29206  1.0000
  H   H694      1.0  0.25789  0.85273  0.39202  1.0000
  H   H695      1.0  0.25513  0.85240  0.44617  1.0000
  H   H696      1.0  0.04867  0.78299  0.34777  1.0000
  H   H697      1.0  0.19944  0.85638  0.44222  1.0000
  H   H698      1.0  0.20189  0.85688  0.38784  1.0000
  H   H699      1.0  0.21623  0.87879  0.30996  1.0000
  H   H700      1.0  0.23218  0.91156  0.28707  1.0000
  H   H701      1.0  0.26618  0.93027  0.29636  1.0000
  H   H702      1.0  0.28362  0.91648  0.33044  1.0000
  H   H703      1.0  0.26839  0.88323  0.35200  1.0000
  H   H704      1.0  0.12736  0.84392  0.06112  1.0000
  C   C891      1.0  0.20514  0.87603  0.00563  1.0000
  C   C892      1.0  0.03770  0.76497  0.19033  1.0000
  C   C893      1.0  0.09281  0.81304  0.37558  1.0000
  H   H705      1.0  0.10264  0.81769  0.01860  1.0000
  C   C894      1.0  0.08725  0.78689  0.34660  1.0000
  H   H706      1.0  0.16222  0.91318  0.05032  1.0000
  C   C895      1.0  0.26485  0.96974  0.00003  1.0000
  H   H707      1.0  0.11229  0.81261  0.30176  1.0000
  H   H708      1.0  0.14848  0.76579  0.02549  1.0000
  H   H709      1.0  0.23750  0.92307  0.01690  1.0000
  C   C896      1.0  0.27492  0.81532  0.20318  1.0000
  C   C897      1.0  0.12862  0.75341  0.16978  1.0000
  C   C898      1.0  0.08704  0.78487  0.48003  1.0000
  H   H710      1.0  0.26628  0.75884  0.08976  1.0000
  S   S121      1.0  0.20342  0.85471  0.02710  1.0000
  C   C899      1.0  0.19547  0.90275  0.99476  1.0000
  H   H711      1.0  0.08869  0.81309  0.48260  1.0000
  H   H712      1.0  0.17621  0.79390  0.20182  1.0000
  C   C900      1.0  0.07675  0.77067  0.17966  1.0000
  H   H713      1.0  0.11196  0.77791  0.21566  1.0000
  C   C901      1.0  0.31251  0.96860  0.36435  1.0000
  H   H714      1.0  0.16013  0.84896  0.01772  1.0000
  C   C902      1.0  0.24772  0.77395  0.14717  1.0000
  C   C903      1.0  0.07977  0.75431  0.01710  1.0000
  H   H715      1.0  0.29745  0.95304  0.02950  1.0000
  H   H716      1.0  0.06142  0.85403  0.03514  1.0000
  H   H717      1.0  0.13865  0.75948  0.15029  1.0000
  H   H718      1.0  0.26061  0.76798  0.20224  1.0000
  Fe  Fe60      1.0  0.31931  0.91743  0.27613  1.0000
  H   H719      1.0  0.27029  0.78784  0.11175  1.0000
  H   H720      1.0  0.22481  0.75565  0.17949  1.0000
  H   H721      1.0  0.17974  0.77805  0.15829  1.0000
  C   C904      1.0  0.23394  0.75653  0.15989  1.0000
  H   H722      1.0  0.09181  0.77331  0.17414  1.0000
  H   H723      1.0  0.29486  0.92783  0.48375  1.0000
  C   C905      1.0  0.27561  0.95550  0.34305  1.0000
  H   H724      1.0  0.20480  0.80986  0.22891  1.0000
  C   C906      1.0  0.26562  0.79762  0.19360  1.0000
  H   H725      1.0  0.04723  0.79515  0.18319  1.0000
  C   C907      1.0  0.08074  0.79978  0.47475  1.0000
  C   C908      1.0  0.11198  0.80469  0.28337  1.0000
  H   H726      1.0  0.15786  0.89435  0.09933  1.0000
  C   C909      1.0  0.02782  0.78390  0.31743  1.0000
  H   H727      1.0  0.29039  0.82073  0.14433  1.0000
  C   C910      1.0  0.12595  0.81297  0.25951  1.0000
  C   C911      1.0  0.28075  0.82481  0.13063  1.0000
  C   C912      1.0  0.19009  0.79340  0.19528  1.0000
  C   C913      1.0  0.04505  0.78208  0.32501  1.0000
  H   H728      1.0  0.23521  0.95252  0.99406  1.0000
  C   C914      1.0  0.19383  0.88619  0.01290  1.0000
  C   C915      1.0  0.25000  0.93619  0.01537  1.0000
  H   H729      1.0  0.23308  0.81290  0.11844  1.0000
  C   C916      1.0  0.03346  0.77763  0.26770  1.0000
  P   P28       1.0  0.25021  0.79515  0.16325  1.0000
  C   C917      1.0  0.26060  0.81492  0.13477  1.0000
  C   C918      1.0  0.22658  0.79396  0.17645  1.0000
  C   C919      1.0  0.28379  0.95324  0.02258  1.0000
  H   H730      1.0  0.02854  0.77531  0.24585  1.0000
  C   C920      1.0  0.02195  0.78155  0.28887  1.0000
  C   C921      1.0  0.24860  0.82035  0.11606  1.0000
  C   C922      1.0  0.25653  0.83581  0.09432  1.0000
  H   H731      1.0  0.08706  0.76308  0.25747  1.0000
  C   C923      1.0  0.07458  0.81645  0.03304  1.0000
  H   H732      1.0  0.06900  0.80137  0.03957  1.0000
  C   C924      1.0  0.21027  0.78495  0.16119  1.0000
  C   C925      1.0  0.14208  0.86804  0.08315  1.0000
  C   C926      1.0  0.19212  0.78463  0.17066  1.0000
  H   H733      1.0  0.30916  0.87213  0.46513  1.0000
  H   H734      1.0  0.24709  0.84015  0.08044  1.0000
  C   C927      1.0  0.28260  0.97008  0.00993  1.0000
  C   C928      1.0  0.06443  0.79764  0.45844  1.0000
  C   C929      1.0  0.05706  0.77872  0.30359  1.0000
  C   C930      1.0  0.05101  0.77634  0.27489  1.0000
  S   S122      1.0  0.03410  0.77900  0.42569  1.0000
  Fe  Fe61      1.0  0.31138  0.88089  0.31417  1.0000
  H   H735      1.0  0.10302  0.80986  0.41864  1.0000
  C   C931      1.0  0.28864  0.84030  0.10890  1.0000
  C   C932      1.0  0.25855  0.98483  0.45942  1.0000
  C   C933      1.0  0.14696  0.88918  0.02801  1.0000
  C   C934      1.0  0.13503  0.85904  0.05842  1.0000
  C   C935      1.0  0.25133  0.97660  0.48825  1.0000
  C   C936      1.0  0.13743  0.86952  0.03063  1.0000
  C   C937      1.0  0.27848  0.94804  0.37084  1.0000
  C   C938      1.0  0.30961  0.97569  0.33614  1.0000
  P   P29       1.0  0.12632  0.85768  0.99987  1.0000
  C   C939      1.0  0.31576  0.87289  0.44327  1.0000
  C   C940      1.0  0.31272  0.87106  0.39035  1.0000
  H   H736      1.0  0.05999  0.80940  0.45397  1.0000
  C   C941      1.0  0.16131  0.82799  0.99092  1.0000
  H   H737      1.0  0.10277  0.75311  0.30684  1.0000
  H   H738      1.0  0.17427  0.82732  0.00000  1.0000
  C   C942      1.0  0.25948  0.77464  0.12193  1.0000
  C   C943      1.0  0.29121  0.96913  0.32557  1.0000
  H   H739      1.0  0.26649  0.93704  0.38393  1.0000
  H   H740      1.0  0.22580  0.85374  0.47136  1.0000
  H   H741      1.0  0.17891  0.79209  0.03121  1.0000
  H   H742      1.0  0.31215  0.98808  0.11062  1.0000
  H   H743      1.0  0.28119  0.77174  0.24402  1.0000
  S   S123      1.0  0.99235  0.75417  0.37273  1.0000
  C   C944      1.0  0.15880  0.77215  0.00647  1.0000
  P   P30       1.0  0.30437  0.99117  0.00260  1.0000
  C   C945      1.0  0.25728  0.75820  0.10939  1.0000
  C   C946      1.0  0.09364  0.82578  0.02076  1.0000
  S   S124      1.0  0.31608  0.94494  0.27975  1.0000
  C   C947      1.0  0.28889  0.80166  0.24157  1.0000
  C   C948      1.0  0.27946  0.78391  0.23254  1.0000
  H   H744      1.0  0.08035  0.75877  0.07990  1.0000
  Fe  Fe62      1.0  0.01081  0.75285  0.41082  1.0000
  C   C949      1.0  0.15320  0.84023  0.00099  1.0000
  H   H745      1.0  0.14862  0.89783  0.00719  1.0000
  S   S125      1.0  0.04068  0.75531  0.07849  1.0000
  H   H746      1.0  0.09867  0.78327  0.01638  1.0000
  H   H747      1.0  0.09525  0.87072  0.01399  1.0000
  H   H748      1.0  0.29385  0.83117  0.23380  1.0000
  C   C950      1.0  0.07034  0.84613  0.03067  1.0000
  H   H749      1.0  0.25946  0.99899  0.45239  1.0000
  C   C951      1.0  0.09739  0.76956  0.01083  1.0000
  C   C952      1.0  0.10111  0.84536  0.01274  1.0000
  Fe  Fe63      1.0  0.23833  0.95958  0.83912  1.0000
  S   S126      1.0  0.22056  0.96645  0.87399  1.0000
  H   H750      1.0  0.17692  0.88183  0.63335  1.0000
  Fe  Fe64      1.0  0.23020  0.94857  0.90735  1.0000
  S   S127      1.0  0.20907  0.92993  0.94644  1.0000
  S   S128      1.0  0.24573  0.93979  0.87187  1.0000
  Fe  Fe65      1.0  0.12941  0.80674  0.52791  1.0000
  S   S129      1.0  0.12158  0.81749  0.56885  1.0000
  H   H751      1.0  0.25129  0.93278  0.65595  1.0000
  Fe  Fe66      1.0  0.17258  0.82051  0.54190  1.0000
  S   S130      1.0  0.16699  0.83078  0.58428  1.0000
  S   S131      1.0  0.20276  0.82512  0.52217  1.0000
  Fe  Fe67      1.0  0.14010  0.80422  0.59249  1.0000
  Fe  Fe68      1.0  0.14917  0.84309  0.55750  1.0000
  S   S132      1.0  0.15216  0.87326  0.56177  1.0000
  S   S133      1.0  0.14729  0.79273  0.55220  1.0000
  S   S134      1.0  0.15546  0.83357  0.51442  1.0000
  H   H752      1.0  0.06940  0.79681  0.53967  1.0000
  C   C953      1.0  0.28248  0.94168  0.69135  1.0000
  C   C954      1.0  0.29383  0.90329  0.68599  1.0000
  H   H753      1.0  0.26090  0.89646  0.59034  1.0000
  H   H754      1.0  0.14226  0.79305  0.74765  1.0000
  Fe  Fe69      1.0  0.30941  0.88827  0.55712  1.0000
  S   S135      1.0  0.27957  0.87150  0.58090  1.0000
  C   C955      1.0  0.20463  0.85619  0.64883  1.0000
  H   H755      1.0  0.24186  0.99097  0.78113  1.0000
  H   H756      1.0  0.28605  0.92549  0.60287  1.0000
  Fe  Fe70      1.0  0.24739  0.96521  0.58888  1.0000
  S   S136      1.0  0.26589  0.97417  0.62680  1.0000
  S   S137      1.0  0.23466  0.93397  0.58371  1.0000
  C   C956      1.0  0.20537  0.98369  0.53118  1.0000
  H   H757      1.0  0.23357  0.82613  0.63588  1.0000
  Fe  Fe71      1.0  0.24833  0.99052  0.88040  1.0000
  C   C957      1.0  0.06866  0.76942  0.55599  1.0000
  S   S138      1.0  0.23327  0.98613  0.59215  1.0000
  S   S139      1.0  0.27088  0.98434  0.55512  1.0000
  C   C958      1.0  0.16585  0.85221  0.64881  1.0000
  C   C959      1.0  0.24268  0.91478  0.69786  1.0000
  C   C960      1.0  0.29979  0.89151  0.67009  1.0000
  C   C961      1.0  0.07605  0.76552  0.60690  1.0000
  C   C962      1.0  0.24437  0.99696  0.73335  1.0000
  H   H758      1.0  0.21145  0.84935  0.70694  1.0000
  H   H759      1.0  0.08294  0.79004  0.62979  1.0000
  S   S140      1.0  0.26512  0.98465  0.84337  1.0000
  C   C963      1.0  0.14990  0.88459  0.95551  1.0000
  C   C964      1.0  0.17049  0.83660  0.65753  1.0000
  C   C965      1.0  0.17496  0.89006  0.56871  1.0000
  C   C966      1.0  0.17676  0.90840  0.57327  1.0000
  C   C967      1.0  0.19488  0.92210  0.57807  1.0000
  C   C968      1.0  0.21135  0.91755  0.57821  1.0000
  C   C969      1.0  0.20941  0.89915  0.57416  1.0000
  C   C970      1.0  0.19139  0.88550  0.56947  1.0000
  H   H760      1.0  0.16407  0.91198  0.57315  1.0000
  H   H761      1.0  0.19608  0.93609  0.58185  1.0000
  H   H762      1.0  0.22188  0.89528  0.57486  1.0000
  H   H763      1.0  0.19030  0.87148  0.56616  1.0000
  C   C971      1.0  0.22399  0.83982  0.53713  1.0000
  C   C972      1.0  0.22311  0.84775  0.56322  1.0000
  C   C973      1.0  0.24026  0.85777  0.57602  1.0000
  C   C974      1.0  0.25851  0.86063  0.56231  1.0000
  C   C975      1.0  0.25943  0.85356  0.53541  1.0000
  C   C976      1.0  0.24224  0.84296  0.52315  1.0000
  H   H764      1.0  0.20924  0.84546  0.57431  1.0000
  H   H765      1.0  0.23932  0.86307  0.59686  1.0000
  H   H766      1.0  0.27336  0.85552  0.52476  1.0000
  H   H767      1.0  0.23964  0.85881  0.73672  1.0000
  C   C977      1.0  0.23567  0.96574  0.76029  1.0000
  H   H768      1.0  0.25671  0.86512  0.64592  1.0000
  P   P31       1.0  0.19628  0.81868  0.66955  1.0000
  H   H769      1.0  0.16883  0.90610  0.92236  1.0000
  C   C978      1.0  0.23827  0.97026  0.70608  1.0000
  C   C979      1.0  0.23427  0.95839  0.73302  1.0000
  S   S141      1.0  0.25665  0.97323  0.91603  1.0000
  H   H770      1.0  0.24157  0.81549  0.58981  1.0000
  H   H771      1.0  0.23699  0.96435  0.68532  1.0000
  H   H772      1.0  0.22980  0.94340  0.73263  1.0000
  H   H773      1.0  0.24581  0.88568  0.67390  1.0000
  C   C980      1.0  0.20841  0.90944  0.96916  1.0000
  C   C981      1.0  0.21995  0.89946  0.96218  1.0000
  C   C982      1.0  0.15747  0.76664  0.70497  1.0000
  H   H774      1.0  0.23001  0.90439  0.94266  1.0000
  H   H775      1.0  0.29565  0.95998  0.81228  1.0000
  H   H776      1.0  0.15939  0.80757  0.96103  1.0000
  H   H777      1.0  0.10926  0.75717  0.93317  1.0000
  H   H778      1.0  0.20301  0.80701  0.98820  1.0000
  H   H779      1.0  0.31477  0.96626  0.63283  1.0000
  H   H780      1.0  0.26035  0.84005  0.74080  1.0000
  H   H781      1.0  0.31879  0.94126  0.80843  1.0000
  H   H782      1.0  0.15888  0.82295  0.66278  1.0000
  C   C983      1.0  0.16601  0.80413  0.71389  1.0000
  C   C984      1.0  0.23936  0.92380  0.67153  1.0000
  C   C985      1.0  0.18783  0.80013  0.61937  1.0000
  H   H783      1.0  0.15083  0.85051  0.64749  1.0000
  C   C986      1.0  0.07078  0.78795  0.55870  1.0000
  H   H784      1.0  0.18107  0.77724  0.67156  1.0000
  C   C987      1.0  0.29931  0.97386  0.80039  1.0000
  C   C988      1.0  0.07527  0.79519  0.58558  1.0000
  C   C989      1.0  0.24310  0.98960  0.70610  1.0000
  C   C990      1.0  0.19075  0.99101  0.53094  1.0000
  H   H785      1.0  0.24487  0.95233  0.52036  1.0000
  H   H786      1.0  0.07732  0.80968  0.58746  1.0000
  C   C991      1.0  0.22660  0.81067  0.59865  1.0000
  C   C992      1.0  0.29423  0.94523  0.66486  1.0000
  H   H787      1.0  0.21221  0.95893  0.53049  1.0000
  C   C993      1.0  0.19252  0.79425  0.59309  1.0000
  C   C994      1.0  0.27432  0.90142  0.68767  1.0000
  P   P32       1.0  0.26709  0.91786  0.70605  1.0000
  C   C995      1.0  0.28209  0.95697  0.70542  1.0000
  C   C996      1.0  0.26869  0.91491  0.74574  1.0000
  C   C997      1.0  0.27999  0.90549  0.75825  1.0000
  C   C998      1.0  0.28192  0.90423  0.78875  1.0000
  C   C999      1.0  0.27252  0.91227  0.80707  1.0000
  C   C1000     1.0  0.26102  0.92137  0.79493  1.0000
  C   C1001     1.0  0.25905  0.92264  0.76450  1.0000
  H   H788      1.0  0.28453  0.95382  0.51800  1.0000
  H   H789      1.0  0.22893  0.89525  0.73706  1.0000
  H   H790      1.0  0.27252  0.95486  0.72493  1.0000
  C   C1002     1.0  0.13071  0.87435  0.96714  1.0000
  H   H791      1.0  0.28742  0.89912  0.74472  1.0000
  H   H792      1.0  0.29073  0.89705  0.79824  1.0000
  H   H793      1.0  0.27401  0.91137  0.83071  1.0000
  H   H794      1.0  0.25353  0.92744  0.80915  1.0000
  H   H795      1.0  0.24994  0.92968  0.75579  1.0000
  C   C1003     1.0  0.22679  0.90267  0.71693  1.0000
  C   C1004     1.0  0.29366  0.97539  0.69368  1.0000
  H   H796      1.0  0.19569  0.89098  0.72513  1.0000
  H   H797      1.0  0.24803  0.89533  0.54155  1.0000
  C   C1005     1.0  0.26691  0.87558  0.65765  1.0000
  C   C1006     1.0  0.17270  0.78101  0.68787  1.0000
  H   H798      1.0  0.14189  0.91102  0.89720  1.0000
  H   H799      1.0  0.25244  0.81143  0.71532  1.0000
  H   H800      1.0  0.10057  0.86864  0.96012  1.0000
  C   C1007     1.0  0.22047  0.92121  0.66488  1.0000
  S   S142      1.0  0.12909  0.78943  0.63955  1.0000
  C   C1008     1.0  0.26086  0.88735  0.67349  1.0000
  H   H801      1.0  0.27356  0.96586  0.77682  1.0000
  C   C1009     1.0  0.20791  0.90011  0.71017  1.0000
  C   C1010     1.0  0.28685  0.97720  0.78054  1.0000
  H   H802      1.0  0.16916  0.81857  0.71764  1.0000
  H   H803      1.0  0.13094  0.75615  0.61515  1.0000
  H   H804      1.0  0.17270  0.79636  0.62663  1.0000
  C   C1011     1.0  0.30572  0.97866  0.66788  1.0000
  H   H805      1.0  0.21968  0.85782  0.64773  1.0000
  C   C1012     1.0  0.25873  0.90837  0.54651  1.0000
  C   C1013     1.0  0.11550  0.87686  0.95245  1.0000
  C   C1014     1.0  0.23635  0.84647  0.72524  1.0000
  H   H806      1.0  0.22434  0.80182  0.68516  1.0000
  H   H807      1.0  0.19670  0.79499  0.93943  1.0000
  H   H808      1.0  0.10780  0.89211  0.91611  1.0000
  H   H809      1.0  0.12993  0.80927  0.93975  1.0000
  C   C1015     1.0  0.28635  0.87770  0.65587  1.0000
  H   H810      1.0  0.15212  0.95019  0.52686  1.0000
  C   C1016     1.0  0.16881  0.77357  0.95481  1.0000
  C   C1017     1.0  0.15085  0.78971  0.73107  1.0000
  C   C1018     1.0  0.17146  0.97879  0.52946  1.0000
  Fe  Fe72      1.0  0.25332  0.99626  0.62833  1.0000
  C   C1019     1.0  0.11953  0.89006  0.92728  1.0000
  C   C1020     1.0  0.13872  0.90067  0.91651  1.0000
  C   C1021     1.0  0.25033  0.95848  0.49778  1.0000
  H   H811      1.0  0.31082  0.99811  0.53304  1.0000
  C   C1022     1.0  0.07832  0.78411  0.60947  1.0000
  H   H812      1.0  0.30456  0.91427  0.69616  1.0000
  H   H813      1.0  0.18332  0.90828  0.49783  1.0000
  C   C1023     1.0  0.16701  0.95962  0.52784  1.0000
  H   H814      1.0  0.23579  0.88344  0.49744  1.0000
  H   H815      1.0  0.10328  0.75806  0.54667  1.0000
  C   C1024     1.0  0.18995  0.83859  0.65823  1.0000
  H   H816      1.0  0.21133  0.88539  0.63344  1.0000
  H   H817      1.0  0.06574  0.76435  0.53468  1.0000
  C   C1025     1.0  0.22046  0.84113  0.70808  1.0000
  C   C1026     1.0  0.21634  0.82535  0.69266  1.0000
  C   C1027     1.0  0.24355  0.81977  0.71322  1.0000
  C   C1028     1.0  0.31515  0.97131  0.96202  1.0000
  H   H818      1.0  0.30565  0.94556  0.76017  1.0000
  C   C1029     1.0  0.27923  0.94113  0.53343  1.0000
  H   H819      1.0  0.21546  0.79545  0.56188  1.0000
  H   H820      1.0  0.29288  0.98716  0.70409  1.0000
  C   C1030     1.0  0.20254  0.81091  0.63593  1.0000
  C   C1031     1.0  0.30594  0.96361  0.65345  1.0000
  C   C1032     1.0  0.18607  0.78858  0.95813  1.0000
  C   C1033     1.0  0.22197  0.81667  0.62485  1.0000
  C   C1034     1.0  0.17679  0.79992  0.69172  1.0000
  H   H821      1.0  0.17823  0.93766  0.52681  1.0000
  H   H822      1.0  0.30116  0.99872  0.93892  1.0000
  P   P33       1.0  0.25439  0.92465  0.49085  1.0000
  H   H823      1.0  0.29754  0.95416  0.56696  1.0000
  H   H824      1.0  0.22717  0.87522  0.97441  1.0000
  C   C1035     1.0  0.24799  0.83588  0.72761  1.0000
  C   C1036     1.0  0.22768  0.81441  0.69604  1.0000
  H   H825      1.0  0.22026  0.99284  0.53261  1.0000
  H   H826      1.0  0.16637  0.76849  0.93343  1.0000
  C   C1037     1.0  0.20476  0.90944  0.68421  1.0000
  S   S143      1.0  0.23061  0.95016  0.79361  1.0000
  H   H827      1.0  0.29415  0.93398  0.65245  1.0000
  C   C1038     1.0  0.26487  0.92465  0.52605  1.0000
  Fe  Fe73      1.0  0.27132  0.96556  0.87837  1.0000
  C   C1039     1.0  0.24088  0.98513  0.76032  1.0000
  C   C1040     1.0  0.21189  0.79942  0.58284  1.0000
  S   S144      1.0  0.30101  0.96464  0.88047  1.0000
  H   H828      1.0  0.21804  0.92833  0.64461  1.0000
  H   H829      1.0  0.19015  0.90752  0.67898  1.0000
  H   H830      1.0  0.29107  0.86892  0.64280  1.0000
  C   C1041     1.0  0.18056  0.86983  0.64065  1.0000
  C   C1042     1.0  0.19995  0.87181  0.64059  1.0000
  C   C1043     1.0  0.14653  0.77098  0.72651  1.0000
  C   C1044     1.0  0.28677  0.94142  0.56110  1.0000
  C   C1045     1.0  0.28022  0.92529  0.58150  1.0000
  C   C1046     1.0  0.26613  0.90885  0.57428  1.0000
  H   H831      1.0  0.10824  0.76918  0.69434  1.0000
  H   H832      1.0  0.13412  0.75401  0.53741  1.0000
  H   H833      1.0  0.18115  0.78611  0.58021  1.0000
  C   C1047     1.0  0.11066  0.75901  0.68162  1.0000
  C   C1048     1.0  0.15293  0.81684  0.96893  1.0000
  C   C1049     1.0  0.20087  0.96454  0.52972  1.0000
  Fe  Fe74      1.0  0.28789  0.99518  0.59316  1.0000
  C   C1050     1.0  0.15390  0.89787  0.93059  1.0000
  C   C1051     1.0  0.18968  0.79534  0.98559  1.0000
  H   H834      1.0  0.07884  0.75743  0.62559  1.0000
  C   C1052     1.0  0.13635  0.81782  0.95694  1.0000
  H   H835      1.0  0.31758  0.97921  0.49661  1.0000
  C   C1053     1.0  0.07061  0.75781  0.58038  1.0000
  H   H836      1.0  0.29998  0.96534  0.95785  1.0000
  C   C1054     1.0  0.15499  0.76527  0.97899  1.0000
  S   S145      1.0  0.31471  0.89968  0.50902  1.0000
  H   H837      1.0  0.15978  0.98385  0.52981  1.0000
  C   C1055     1.0  0.12042  0.76507  0.65319  1.0000
  H   H838      1.0  0.31440  0.99286  0.65834  1.0000
  C   C1056     1.0  0.21827  0.88287  0.98025  1.0000
  C   C1057     1.0  0.18171  0.95252  0.52785  1.0000
  H   H839      1.0  0.29697  0.00040  0.87382  1.0000
  H   H840      1.0  0.31494  0.89335  0.66807  1.0000
  H   H841      1.0  0.24312  0.83677  0.50312  1.0000
  H   H842      1.0  0.20154  0.86168  0.50238  1.0000
  C   C1058     1.0  0.19037  0.88370  0.49923  1.0000
  H   H843      1.0  0.17535  0.87414  0.50193  1.0000
  H   H844      1.0  0.11558  0.83098  0.95701  1.0000
  C   C1059     1.0  0.19489  0.90303  0.49696  1.0000
  C   C1060     1.0  0.21421  0.91548  0.49484  1.0000
  H   H845      1.0  0.21717  0.93032  0.49352  1.0000
  C   C1061     1.0  0.31635  0.98852  0.80541  1.0000
  C   C1062     1.0  0.29100  0.99538  0.76668  1.0000
  C   C1063     1.0  0.22452  0.88913  0.49714  1.0000
  C   C1064     1.0  0.22925  0.90865  0.49484  1.0000
  C   C1065     1.0  0.20515  0.87673  0.49956  1.0000
  H   H846      1.0  0.24663  0.98434  0.50336  1.0000
  H   H847      1.0  0.18943  0.99893  0.59436  1.0000
  H   H848      1.0  0.28103  0.99786  0.75179  1.0000
  H   H849      1.0  0.13453  0.75980  0.73935  1.0000
  C   C1066     1.0  0.12825  0.83008  0.96682  1.0000
  H   H850      1.0  0.16187  0.88252  0.96603  1.0000
  C   C1067     1.0  0.31792  0.98765  0.88023  1.0000
  S   S146      1.0  0.10841  0.78702  0.49842  1.0000
  C   C1068     1.0  0.13655  0.84128  0.98903  1.0000
  H   H851      1.0  0.26346  0.98229  0.98941  1.0000
  Fe  Fe75      1.0  0.34121  0.16580  0.40406  1.0000
  C   C1069     1.0  0.37070  0.01982  0.31696  1.0000
  S   S147      1.0  0.36588  0.18924  0.42134  1.0000
  H   H852      1.0  0.41935  0.03998  0.32490  1.0000
  C   C1070     1.0  0.63714  0.03193  0.09746  1.0000
  S   S148      1.0  0.34007  0.13604  0.40667  1.0000
  S   S149      1.0  0.32899  0.12070  0.32235  1.0000
  S   S150      1.0  0.51555  0.03846  0.20832  1.0000
  Fe  Fe76      1.0  0.43010  0.07401  0.21024  1.0000
  S   S151      1.0  0.41631  0.05532  0.17652  1.0000
  S   S152      1.0  0.46252  0.08646  0.21126  1.0000
  Fe  Fe77      1.0  0.39099  0.07050  0.24067  1.0000
  S   S153      1.0  0.37386  0.05089  0.20894  1.0000
  S   S154      1.0  0.38209  0.07652  0.28619  1.0000
  Fe  Fe78      1.0  0.39571  0.03742  0.21424  1.0000
  C   C1071     1.0  0.56389  0.01631  0.34306  1.0000
  Fe  Fe79      1.0  0.39598  0.07039  0.17306  1.0000
  S   S155      1.0  0.39022  0.07995  0.12662  1.0000
  S   S156      1.0  0.41105  0.05510  0.24829  1.0000
  S   S157      1.0  0.41158  0.09115  0.20436  1.0000
  H   H853      1.0  0.62355  0.03929  0.14985  1.0000
  S   S158      1.0  0.62869  0.04408  0.45365  1.0000
  S   S159      1.0  0.60970  0.06546  0.38248  1.0000
  C   C1072     1.0  0.39071  0.06701  0.09660  1.0000
  C   C1073     1.0  0.39435  0.07616  0.06751  1.0000
  C   C1074     1.0  0.39491  0.06632  0.04320  1.0000
  C   C1075     1.0  0.39122  0.04710  0.04764  1.0000
  C   C1076     1.0  0.38732  0.03787  0.07670  1.0000
  C   C1077     1.0  0.38727  0.04781  0.10109  1.0000
  H   H854      1.0  0.39706  0.09101  0.06377  1.0000
  H   H855      1.0  0.39814  0.07354  0.02095  1.0000
  H   H856      1.0  0.38436  0.02297  0.08033  1.0000
  H   H857      1.0  0.38433  0.04057  0.12334  1.0000
  H   H858      1.0  0.40343  0.05101  0.37758  1.0000
  C   C1078     1.0  0.32526  0.06632  0.40871  1.0000
  C   C1079     1.0  0.59092  0.02765  0.37454  1.0000
  C   C1080     1.0  0.59220  0.04617  0.36776  1.0000
  C   C1081     1.0  0.57934  0.04965  0.34834  1.0000
  C   C1082     1.0  0.56541  0.03487  0.33584  1.0000
  C   C1083     1.0  0.33569  0.24605  0.31311  1.0000
  H   H859      1.0  0.60070  0.02473  0.38935  1.0000
  H   H860      1.0  0.58020  0.06391  0.34288  1.0000
  H   H861      1.0  0.55559  0.03780  0.32111  1.0000
  C   C1084     1.0  0.49981  0.05069  0.21119  1.0000
  C   C1085     1.0  0.47981  0.04171  0.21898  1.0000
  C   C1086     1.0  0.46789  0.05234  0.21863  1.0000
  C   C1087     1.0  0.47614  0.07198  0.21146  1.0000
  C   C1088     1.0  0.49608  0.08076  0.20417  1.0000
  C   C1089     1.0  0.50774  0.07018  0.20353  1.0000
  H   H862      1.0  0.47353  0.02662  0.22459  1.0000
  H   H863      1.0  0.45244  0.04542  0.22396  1.0000
  H   H864      1.0  0.50257  0.09586  0.19854  1.0000
  H   H865      1.0  0.52309  0.07721  0.19723  1.0000
  C   C1090     1.0  0.32550  0.11005  0.00669  1.0000
  H   H866      1.0  0.60044  0.02478  0.26996  1.0000
  C   C1091     1.0  0.32526  0.05679  0.09305  1.0000
  C   C1092     1.0  0.36736  0.08894  0.29575  1.0000
  C   C1093     1.0  0.35290  0.09025  0.27816  1.0000
  C   C1094     1.0  0.34132  0.10001  0.28676  1.0000
  C   C1095     1.0  0.34380  0.10825  0.31328  1.0000
  C   C1096     1.0  0.35804  0.10667  0.33121  1.0000
  C   C1097     1.0  0.36982  0.09713  0.32237  1.0000
  H   H867      1.0  0.35062  0.08372  0.25795  1.0000
  C   C1098     1.0  0.57675  0.01282  0.36247  1.0000
  H   H868      1.0  0.36012  0.11297  0.35164  1.0000
  H   H869      1.0  0.38100  0.09621  0.33611  1.0000
  C   C1099     1.0  0.37106  0.21352  0.41125  1.0000
  C   C1100     1.0  0.37865  0.22629  0.43188  1.0000
  H   H870      1.0  0.42035  0.01979  0.04837  1.0000
  H   H871      1.0  0.36139  0.09660  0.06081  1.0000
  C   C1101     1.0  0.37428  0.23994  0.37480  1.0000
  C   C1102     1.0  0.36873  0.22044  0.38272  1.0000
  H   H872      1.0  0.38074  0.22109  0.45387  1.0000
  C   C1103     1.0  0.60513  0.03711  0.18834  1.0000
  C   C1104     1.0  0.33528  0.08135  0.04017  1.0000
  H   H873      1.0  0.36312  0.21080  0.36655  1.0000
  C   C1105     1.0  0.39208  0.05430  0.38832  1.0000
  H   H874      1.0  0.34971  0.01633  0.35278  1.0000
  C   C1106     1.0  0.46387  0.02058  0.11291  1.0000
  C   C1107     1.0  0.34391  0.21377  0.30740  1.0000
  H   H875      1.0  0.42173  0.14439  0.17041  1.0000
  C   C1108     1.0  0.34780  0.08460  0.06304  1.0000
  H   H876      1.0  0.33421  0.19663  0.45108  1.0000
  C   C1109     1.0  0.36261  0.06293  0.41597  1.0000
  P   P34       1.0  0.34128  0.09703  0.00611  1.0000
  H   H877      1.0  0.34942  0.12517  0.48347  1.0000
  C   C1110     1.0  0.41114  0.01709  0.12703  1.0000
  H   H878      1.0  0.35261  0.07473  0.10677  1.0000
  H   H879      1.0  0.40127  0.05122  0.43207  1.0000
  H   H880      1.0  0.62385  0.03379  0.09248  1.0000
  C   C1111     1.0  0.40643  0.13405  0.99282  1.0000
  H   H881      1.0  0.34719  0.20132  0.30570  1.0000
  C   C1112     1.0  0.43774  0.02996  0.00738  1.0000
  C   C1113     1.0  0.33505  0.05641  0.46908  1.0000
  C   C1114     1.0  0.35020  0.25026  0.48273  1.0000
  H   H882      1.0  0.61035  0.05218  0.18890  1.0000
  C   C1115     1.0  0.63739  0.12349  0.47090  1.0000
  H   H883      1.0  0.36861  0.15692  0.32889  1.0000
  H   H884      1.0  0.33115  0.21015  0.40079  1.0000
  H   H885      1.0  0.33029  0.10112  0.27281  1.0000
  H   H886      1.0  0.50014  0.00516  0.09735  1.0000
  H   H887      1.0  0.39024  0.01880  0.28164  1.0000
  C   C1116     1.0  0.40026  0.11460  0.99980  1.0000
  Fe  Fe80      1.0  0.32607  0.13419  0.36368  1.0000
  H   H888      1.0  0.34739  0.00311  0.00061  1.0000
  C   C1117     1.0  0.42352  0.01290  0.10755  1.0000
  H   H889      1.0  0.62861  0.01776  0.22549  1.0000
  H   H890      1.0  0.40799  0.00564  0.47747  1.0000
  C   C1118     1.0  0.62437  0.02757  0.29700  1.0000
  C   C1119     1.0  0.61048  0.03341  0.28407  1.0000
  C   C1120     1.0  0.60923  0.05042  0.28971  1.0000
  C   C1121     1.0  0.62190  0.06172  0.30816  1.0000
  C   C1122     1.0  0.63582  0.05604  0.32098  1.0000
  C   C1123     1.0  0.63724  0.03913  0.31520  1.0000
  C   C1124     1.0  0.37752  0.15563  0.31052  1.0000
  C   C1125     1.0  0.48939  0.00656  0.14114  1.0000
  C   C1126     1.0  0.38060  0.01116  0.30092  1.0000
  H   H891      1.0  0.39443  0.13448  0.41516  1.0000
  C   C1127     1.0  0.35536  0.01150  0.44252  1.0000
  H   H892      1.0  0.47765  0.01709  0.07232  1.0000
  H   H893      1.0  0.38016  0.05928  0.34747  1.0000
  H   H894      1.0  0.37990  0.14635  0.45460  1.0000
  H   H895      1.0  0.59803  0.05456  0.28058  1.0000
  H   H896      1.0  0.62042  0.07453  0.31355  1.0000
  S   S160      1.0  0.39285  0.00747  0.21806  1.0000
  C   C1128     1.0  0.32757  0.21243  0.32485  1.0000
  H   H897      1.0  0.36861  0.23210  0.27870  1.0000
  C   C1129     1.0  0.43463  0.19757  0.18012  1.0000
  C   C1130     1.0  0.45248  0.20699  0.19110  1.0000
  C   C1131     1.0  0.45854  0.19830  0.21491  1.0000
  C   C1132     1.0  0.44688  0.18010  0.22754  1.0000
  C   C1133     1.0  0.42922  0.17034  0.21602  1.0000
  C   C1134     1.0  0.42292  0.17937  0.19274  1.0000
  P   P35       1.0  0.41389  0.14718  0.23303  1.0000
  C   C1135     1.0  0.42813  0.13383  0.24533  1.0000
  C   C1136     1.0  0.39966  0.15054  0.26334  1.0000
  C   C1137     1.0  0.38195  0.15241  0.25866  1.0000
  C   C1138     1.0  0.37083  0.15470  0.28227  1.0000
  C   C1139     1.0  0.42094  0.11958  0.26924  1.0000
  C   C1140     1.0  0.43124  0.10827  0.27753  1.0000
  C   C1141     1.0  0.44868  0.11098  0.26181  1.0000
  C   C1142     1.0  0.45580  0.12496  0.23770  1.0000
  C   C1143     1.0  0.44551  0.13626  0.22929  1.0000
  C   C1144     1.0  0.39922  0.13359  0.20646  1.0000
  C   C1145     1.0  0.38060  0.12026  0.21536  1.0000
  C   C1146     1.0  0.36960  0.10897  0.19523  1.0000
  C   C1147     1.0  0.37727  0.11069  0.16618  1.0000
  H   H898      1.0  0.42982  0.20437  0.16186  1.0000
  H   H899      1.0  0.46155  0.22108  0.18129  1.0000
  H   H900      1.0  0.47228  0.20569  0.22367  1.0000
  H   H901      1.0  0.45164  0.17364  0.24625  1.0000
  H   H902      1.0  0.40898  0.17237  0.18430  1.0000
  H   H903      1.0  0.37651  0.15177  0.23694  1.0000
  H   H904      1.0  0.35672  0.15522  0.27895  1.0000
  H   H905      1.0  0.40706  0.11674  0.28089  1.0000
  H   H906      1.0  0.42528  0.09692  0.29543  1.0000
  H   H907      1.0  0.45636  0.10181  0.26755  1.0000
  H   H908      1.0  0.46893  0.12644  0.22484  1.0000
  H   H909      1.0  0.45084  0.14646  0.20979  1.0000
  H   H910      1.0  0.37475  0.11830  0.23800  1.0000
  H   H911      1.0  0.35531  0.09857  0.20236  1.0000
  C   C1148     1.0  0.59058  0.02512  0.20934  1.0000
  C   C1149     1.0  0.32972  0.12535  0.02323  1.0000
  H   H912      1.0  0.32875  0.22842  0.11879  1.0000
  H   H913      1.0  0.32152  0.14797  0.03501  1.0000
  C   C1150     1.0  0.44042  0.01476  0.28966  1.0000
  C   C1151     1.0  0.46927  0.04405  0.04132  1.0000
  C   C1152     1.0  0.45087  0.03328  0.05550  1.0000
  H   H914      1.0  0.34237  0.12944  0.03577  1.0000
  P   P36       1.0  0.44748  0.02995  0.09546  1.0000
  C   C1153     1.0  0.47712  0.01571  0.09617  1.0000
  C   C1154     1.0  0.33254  0.24312  0.11066  1.0000
  S   S161      1.0  0.50121  0.00369  0.28425  1.0000
  C   C1155     1.0  0.43416  0.02924  0.29446  1.0000
  C   C1156     1.0  0.64298  0.01881  0.23086  1.0000
  H   H915      1.0  0.62728  0.11968  0.45395  1.0000
  H   H916      1.0  0.33899  0.01944  0.10641  1.0000
  H   H917      1.0  0.40216  0.12426  0.13507  1.0000
  C   C1157     1.0  0.32129  0.20976  0.41908  1.0000
  C   C1158     1.0  0.39547  0.15451  0.31513  1.0000
  C   C1159     1.0  0.33249  0.24834  0.08044  1.0000
  C   C1160     1.0  0.43558  0.00330  0.41790  1.0000
  C   C1161     1.0  0.45054  0.05274  0.10626  1.0000
  C   C1162     1.0  0.43905  0.06214  0.09452  1.0000
  Fe  Fe81      1.0  0.64755  0.06864  0.47547  1.0000
  C   C1163     1.0  0.45439  0.08799  0.12282  1.0000
  C   C1164     1.0  0.46628  0.07900  0.13390  1.0000
  C   C1165     1.0  0.46445  0.06148  0.12565  1.0000
  H   H918      1.0  0.33445  0.02658  0.01294  1.0000
  H   H919      1.0  0.48149  0.05016  0.05421  1.0000
  C   C1166     1.0  0.40659  0.15212  0.29159  1.0000
  C   C1167     1.0  0.35619  0.11984  0.46696  1.0000
  H   H920      1.0  0.41561  0.03066  0.13498  1.0000
  C   C1168     1.0  0.37618  0.05873  0.43277  1.0000
  C   C1169     1.0  0.63671  0.01677  0.11766  1.0000
  H   H921      1.0  0.32542  0.09453  0.40737  1.0000
  C   C1170     1.0  0.38048  0.10355  0.00418  1.0000
  H   H922      1.0  0.64819  0.03499  0.32524  1.0000
  C   C1171     1.0  0.44092  0.07965  0.10291  1.0000
  C   C1172     1.0  0.32926  0.01812  0.03418  1.0000
  H   H923      1.0  0.46635  0.01201  0.36158  1.0000
  C   C1173     1.0  0.35594  0.23111  0.29222  1.0000
  C   C1174     1.0  0.33193  0.01415  0.08694  1.0000
  C   C1175     1.0  0.43074  0.00900  0.44427  1.0000
  H   H924      1.0  0.47676  0.08553  0.14927  1.0000
  H   H925      1.0  0.47396  0.05499  0.13460  1.0000
  H   H926      1.0  0.43693  0.04078  0.27714  1.0000
  H   H927      1.0  0.36894  0.10162  0.15075  1.0000
  H   H928      1.0  0.42850  0.05586  0.07910  1.0000
  S   S162      1.0  0.39077  0.03404  0.01751  1.0000
  C   C1176     1.0  0.40700  0.13496  0.17738  1.0000
  H   H929      1.0  0.37560  0.05885  0.45646  1.0000
  C   C1177     1.0  0.36670  0.11186  0.00154  1.0000
  H   H930      1.0  0.43172  0.08666  0.09429  1.0000
  C   C1178     1.0  0.34281  0.07228  0.08931  1.0000
  C   C1179     1.0  0.37332  0.13176  0.45063  1.0000
  C   C1180     1.0  0.37892  0.05884  0.37137  1.0000
  H   H931      1.0  0.49911  0.01136  0.35705  1.0000
  Fe  Fe82      1.0  0.63308  0.06457  0.41303  1.0000
  H   H932      1.0  0.35480  0.06741  0.37117  1.0000
  H   H933      1.0  0.58436  0.03086  0.22595  1.0000
  H   H934      1.0  0.34973  0.03870  0.05759  1.0000
  C   C1181     1.0  0.36439  0.06333  0.38503  1.0000
  C   C1182     1.0  0.32291  0.20208  0.44742  1.0000
  S   S163      1.0  0.33026  0.16479  0.35893  1.0000
  H   H935      1.0  0.48619  0.05542  0.99954  1.0000
  C   C1183     1.0  0.46314  0.01775  0.14393  1.0000
  C   C1184     1.0  0.61255  0.02972  0.16615  1.0000
  C   C1185     1.0  0.33801  0.02501  0.05943  1.0000
  H   H936      1.0  0.40062  0.15528  0.33705  1.0000
  C   C1186     1.0  0.39082  0.05440  0.41898  1.0000
  P   P37       1.0  0.34446  0.06989  0.43324  1.0000
  C   C1187     1.0  0.38390  0.24579  0.42408  1.0000
  H   H937      1.0  0.45293  0.02123  0.15737  1.0000
  C   C1188     1.0  0.34724  0.10122  0.46114  1.0000
  H   H938      1.0  0.42049  0.15134  0.29556  1.0000
  C   C1189     1.0  0.39600  0.12359  0.15729  1.0000
  H   H939      1.0  0.37588  0.08845  0.00902  1.0000
  C   C1190     1.0  0.43499  0.02682  0.03826  1.0000
  H   H940      1.0  0.38340  0.00699  0.15205  1.0000
  H   H941      1.0  0.45552  0.10134  0.12987  1.0000
  H   H942      1.0  0.45032  0.00976  0.40825  1.0000
  H   H943      1.0  0.37276  0.03434  0.31007  1.0000
  C   C1191     1.0  0.64638  0.01383  0.25999  1.0000
  H   H944      1.0  0.47594  0.00959  0.18180  1.0000
  C   C1192     1.0  0.42448  0.02885  0.32154  1.0000
  C   C1193     1.0  0.35552  0.09429  0.43918  1.0000
  H   H945      1.0  0.44178  0.01948  0.45486  1.0000
  H   H946      1.0  0.36899  0.01830  0.45186  1.0000
  H   H947      1.0  0.44791  0.01506  0.26867  1.0000
  C   C1194     1.0  0.37255  0.10641  0.42249  1.0000
  C   C1195     1.0  0.37302  0.13134  0.99335  1.0000
  H   H948      1.0  0.37895  0.10157  0.40491  1.0000
  C   C1196     1.0  0.35766  0.00955  0.34107  1.0000
  C   C1197     1.0  0.38142  0.12508  0.42828  1.0000
  C   C1198     1.0  0.47197  0.04716  0.01039  1.0000
  C   C1199     1.0  0.32339  0.22843  0.32752  1.0000
  H   H949      1.0  0.32855  0.23769  0.06534  1.0000
  C   C1200     1.0  0.42143  0.01415  0.34413  1.0000
  Fe  Fe83      1.0  0.51232  0.01162  0.23650  1.0000
  H   H950      1.0  0.41400  0.01416  0.36495  1.0000
  C   C1201     1.0  0.47602  0.01102  0.15791  1.0000
  H   H951      1.0  0.32172  0.03759  0.40410  1.0000
  C   C1202     1.0  0.33836  0.01196  0.45561  1.0000
  H   H952      1.0  0.41083  0.10806  0.00096  1.0000
  C   C1203     1.0  0.45623  0.03995  0.99342  1.0000
  C   C1204     1.0  0.58370  0.00571  0.20852  1.0000
  H   H953      1.0  0.42538  0.02505  0.99425  1.0000
  H   H954      1.0  0.34330  0.06035  0.99853  1.0000
  S   S164      1.0  0.53924  0.00564  0.24380  1.0000
  C   C1205     1.0  0.48984  0.00877  0.11029  1.0000
  H   H955      1.0  0.35672  0.00966  0.23967  1.0000
  C   C1206     1.0  0.60538  0.01022  0.16486  1.0000
  P   P38       1.0  0.62676  0.00615  0.28866  1.0000
  H   H956      1.0  0.61605  0.00438  0.35191  1.0000
  H   H957      1.0  0.35359  0.24437  0.46361  1.0000
  H   H958      1.0  0.33374  0.09234  0.47363  1.0000
  H   H959      1.0  0.64520  0.06462  0.33597  1.0000
  H   H960      1.0  0.33885  0.01906  0.47514  1.0000
  C   C1207     1.0  0.35174  0.24715  0.29481  1.0000
  C   C1208     1.0  0.39275  0.00367  0.13664  1.0000
  S   S165      1.0  0.64992  0.08979  0.43592  1.0000
  H   H961      1.0  0.43026  0.00284  0.22147  1.0000
  H   H962      1.0  0.32150  0.04726  0.11342  1.0000
  H   H963      1.0  0.37291  0.24514  0.35245  1.0000
  H   H964      1.0  0.33583  0.25219  0.15381  1.0000
  C   C1209     1.0  0.32063  0.00265  0.44423  1.0000
  C   C1210     1.0  0.39282  0.14242  0.98972  1.0000
  Fe  Fe84      1.0  0.33248  0.17285  0.85334  1.0000
  S   S166      1.0  0.33759  0.18093  0.89921  1.0000
  S   S167      1.0  0.33681  0.19269  0.81054  1.0000
  Fe  Fe85      1.0  0.35017  0.15845  0.90480  1.0000
  S   S168      1.0  0.37944  0.16518  0.92287  1.0000
  S   S169      1.0  0.34687  0.15201  0.85824  1.0000
  Fe  Fe86      1.0  0.41804  0.08345  0.92637  1.0000
  S   S170      1.0  0.38788  0.06773  0.94669  1.0000
  S   S171      1.0  0.43051  0.11519  0.92113  1.0000
  Fe  Fe87      1.0  0.42441  0.04752  0.91391  1.0000
  S   S172      1.0  0.39429  0.02929  0.93322  1.0000
  S   S173      1.0  0.44397  0.03282  0.89829  1.0000
  Fe  Fe88      1.0  0.38554  0.05101  0.90846  1.0000
  S   S174      1.0  0.36083  0.04765  0.88046  1.0000
  Fe  Fe89      1.0  0.39984  0.04790  0.96987  1.0000
  S   S175      1.0  0.41508  0.06792  0.88648  1.0000
  S   S176      1.0  0.43067  0.06488  0.95229  1.0000
  H   H965      1.0  0.59163  0.01458  0.82106  1.0000
  C   C1211     1.0  0.49574  0.06078  0.85425  1.0000
  H   H966      1.0  0.64450  0.10980  0.65781  1.0000
  C   C1212     1.0  0.63968  0.00505  0.61511  1.0000
  C   C1213     1.0  0.51184  0.06150  0.83679  1.0000
  C   C1214     1.0  0.44784  0.03580  0.80805  1.0000
  Fe  Fe90      1.0  0.64330  0.06352  0.73055  1.0000
  S   S177      1.0  0.61176  0.05713  0.74629  1.0000
  C   C1215     1.0  0.63425  0.11148  0.49717  1.0000
  S   S178      1.0  0.63691  0.06868  0.52285  1.0000
  H   H967      1.0  0.36567  0.01193  0.88811  1.0000
  S   S179      1.0  0.53655  0.01373  0.68129  1.0000
  C   C1216     1.0  0.55840  0.06723  0.82039  1.0000
  H   H968      1.0  0.62761  0.06880  0.58441  1.0000
  C   C1217     1.0  0.35265  0.23344  0.90059  1.0000
  C   C1218     1.0  0.39983  0.18557  0.84599  1.0000
  C   C1219     1.0  0.42556  0.00498  0.68749  1.0000
  H   H969      1.0  0.32806  0.08596  0.90294  1.0000
  C   C1220     1.0  0.55754  0.02451  0.70010  1.0000
  C   C1221     1.0  0.57570  0.03282  0.68389  1.0000
  C   C1222     1.0  0.59259  0.04217  0.69791  1.0000
  C   C1223     1.0  0.59143  0.04346  0.72829  1.0000
  C   C1224     1.0  0.57334  0.03470  0.74459  1.0000
  C   C1225     1.0  0.55649  0.02529  0.73063  1.0000
  H   H970      1.0  0.57665  0.03232  0.66027  1.0000
  H   H971      1.0  0.60638  0.04891  0.68506  1.0000
  H   H972      1.0  0.57229  0.03522  0.76812  1.0000
  H   H973      1.0  0.37065  0.21838  0.91449  1.0000
  C   C1226     1.0  0.44739  0.02837  0.86131  1.0000
  C   C1227     1.0  0.34637  0.06045  0.49338  1.0000
  P   P39       1.0  0.54557  0.07935  0.79924  1.0000
  H   H974      1.0  0.54263  0.01893  0.74335  1.0000
  H   H975      1.0  0.64694  0.07223  0.62821  1.0000
  C   C1228     1.0  0.44344  0.03863  0.83714  1.0000
  H   H976      1.0  0.38878  0.04136  0.84202  1.0000
  C   C1229     1.0  0.56613  0.05521  0.86762  1.0000
  H   H977      1.0  0.43731  0.04899  0.84083  1.0000
  C   C1230     1.0  0.34466  0.02450  0.88031  1.0000
  H   H978      1.0  0.44485  0.04393  0.78956  1.0000
  C   C1231     1.0  0.39270  0.15062  0.91880  1.0000
  C   C1232     1.0  0.41291  0.15889  0.91795  1.0000
  C   C1233     1.0  0.42412  0.14782  0.91789  1.0000
  C   C1234     1.0  0.41532  0.12823  0.91947  1.0000
  C   C1235     1.0  0.39503  0.11982  0.92025  1.0000
  C   C1236     1.0  0.38375  0.13105  0.91931  1.0000
  H   H979      1.0  0.41994  0.17394  0.91785  1.0000
  H   H980      1.0  0.43972  0.15445  0.91741  1.0000
  H   H981      1.0  0.38800  0.10472  0.92195  1.0000
  H   H982      1.0  0.36814  0.12451  0.92033  1.0000
  S   S180      1.0  0.32228  0.13517  0.92291  1.0000
  C   C1237     1.0  0.36805  0.22517  0.81984  1.0000
  C   C1238     1.0  0.35400  0.21606  0.80106  1.0000
  H   H983      1.0  0.35140  0.16375  0.78773  1.0000
  C   C1239     1.0  0.32858  0.03053  0.70350  1.0000
  H   H984      1.0  0.36854  0.21795  0.84120  1.0000
  H   H985      1.0  0.40358  0.18661  0.86869  1.0000
  C   C1240     1.0  0.33271  0.05104  0.76951  1.0000
  C   C1241     1.0  0.36432  0.07648  0.76030  1.0000
  H   H986      1.0  0.37630  0.08573  0.74505  1.0000
  C   C1242     1.0  0.32192  0.11093  0.78342  1.0000
  C   C1243     1.0  0.55569  0.06407  0.85146  1.0000
  H   H987      1.0  0.52176  0.02276  0.84798  1.0000
  C   C1244     1.0  0.64752  0.11603  0.51876  1.0000
  H   H988      1.0  0.37363  0.01387  0.76397  1.0000
  H   H989      1.0  0.54510  0.01279  0.61025  1.0000
  S   S181      1.0  0.48169  0.00829  0.69553  1.0000
  C   C1245     1.0  0.33775  0.08348  0.97525  1.0000
  C   C1246     1.0  0.58691  0.14088  0.77194  1.0000
  H   H990      1.0  0.33403  0.10486  0.94458  1.0000
  H   H991      1.0  0.38496  0.18170  0.76553  1.0000
  C   C1247     1.0  0.46000  0.01229  0.82683  1.0000
  C   C1248     1.0  0.38923  0.18264  0.78795  1.0000
  C   C1249     1.0  0.35355  0.22570  0.77346  1.0000
  C   C1250     1.0  0.57086  0.13269  0.75600  1.0000
  C   C1251     1.0  0.65070  0.06953  0.55382  1.0000
  C   C1252     1.0  0.34811  0.06326  0.74968  1.0000
  H   H992      1.0  0.33830  0.04204  0.95575  1.0000
  H   H993      1.0  0.56817  0.14077  0.73708  1.0000
  H   H994      1.0  0.32859  0.22307  0.56437  1.0000
  C   C1253     1.0  0.33337  0.05289  0.79983  1.0000
  H   H995      1.0  0.39603  0.21250  0.78472  1.0000
  H   H996      1.0  0.59670  0.15529  0.76536  1.0000
  C   C1254     1.0  0.45562  0.01513  0.85596  1.0000
  H   H997      1.0  0.48637  0.04768  0.86687  1.0000
  C   C1255     1.0  0.36507  0.07782  0.79062  1.0000
  C   C1256     1.0  0.38833  0.03015  0.82912  1.0000
  H   H998      1.0  0.53478  0.01913  0.79906  1.0000
  H   H999      1.0  0.37449  0.03933  0.79376  1.0000
  C   C1257     1.0  0.60537  0.01077  0.62880  1.0000
  C   C1258     1.0  0.64223  0.12208  0.61417  1.0000
  H   H1000     1.0  0.41824  0.16678  0.76890  1.0000
  C   C1259     1.0  0.32959  0.02948  0.67304  1.0000
  C   C1260     1.0  0.38772  0.16639  0.80640  1.0000
  C   C1261     1.0  0.49155  0.07688  0.85534  1.0000
  H   H1001     1.0  0.62367  0.03564  0.64643  1.0000
  C   C1262     1.0  0.59037  0.13045  0.79635  1.0000
  C   C1263     1.0  0.36693  0.24415  0.76457  1.0000
  C   C1264     1.0  0.41566  0.00980  0.73631  1.0000
  C   C1265     1.0  0.32537  0.02119  0.87543  1.0000
  C   C1266     1.0  0.56175  0.10345  0.78877  1.0000
  H   H1002     1.0  0.47880  0.07610  0.86856  1.0000
  C   C1267     1.0  0.55830  0.11405  0.76438  1.0000
  C   C1268     1.0  0.40404  0.11169  0.83816  1.0000
  C   C1269     1.0  0.38920  0.10012  0.85904  1.0000
  C   C1270     1.0  0.37135  0.10204  0.86028  1.0000
  C   C1271     1.0  0.36819  0.11539  0.84048  1.0000
  C   C1272     1.0  0.38267  0.12646  0.81842  1.0000
  C   C1273     1.0  0.40082  0.12483  0.81784  1.0000
  P   P40       1.0  0.37857  0.14371  0.79271  1.0000
  C   C1274     1.0  0.39173  0.14546  0.75771  1.0000
  C   C1275     1.0  0.41110  0.15804  0.75229  1.0000
  C   C1276     1.0  0.42147  0.15935  0.72540  1.0000
  C   C1277     1.0  0.41263  0.14809  0.70376  1.0000
  C   C1278     1.0  0.39341  0.13546  0.70902  1.0000
  C   C1279     1.0  0.38299  0.13410  0.73590  1.0000
  H   H1003     1.0  0.41811  0.11061  0.83816  1.0000
  H   H1004     1.0  0.39161  0.09000  0.87493  1.0000
  H   H1005     1.0  0.34763  0.06282  0.72609  1.0000
  H   H1006     1.0  0.35444  0.11704  0.84259  1.0000
  H   H1007     1.0  0.41255  0.13379  0.80205  1.0000
  H   H1008     1.0  0.43639  0.16911  0.72138  1.0000
  H   H1009     1.0  0.42067  0.14915  0.68290  1.0000
  H   H1010     1.0  0.62181  0.09829  0.50052  1.0000
  H   H1011     1.0  0.52432  0.04488  0.69386  1.0000
  H   H1012     1.0  0.39226  0.15580  0.85035  1.0000
  C   C1280     1.0  0.53859  0.06838  0.76587  1.0000
  C   C1281     1.0  0.55242  0.07230  0.74177  1.0000
  C   C1282     1.0  0.54726  0.06388  0.71592  1.0000
  C   C1283     1.0  0.52826  0.05161  0.71376  1.0000
  C   C1284     1.0  0.51439  0.04779  0.73741  1.0000
  C   C1285     1.0  0.51946  0.05607  0.76338  1.0000
  C   C1286     1.0  0.33117  0.08034  0.92393  1.0000
  C   C1287     1.0  0.50371  0.09386  0.83929  1.0000
  C   C1288     1.0  0.52009  0.09473  0.82220  1.0000
  C   C1289     1.0  0.57255  0.06236  0.80607  1.0000
  H   H1013     1.0  0.56726  0.08175  0.74290  1.0000
  H   H1014     1.0  0.55810  0.06650  0.69775  1.0000
  H   H1015     1.0  0.32990  0.05455  0.90845  1.0000
  H   H1016     1.0  0.49964  0.03831  0.73566  1.0000
  H   H1017     1.0  0.50826  0.05278  0.78113  1.0000
  C   C1290     1.0  0.39549  0.01666  0.84005  1.0000
  H   H1018     1.0  0.50040  0.10634  0.84016  1.0000
  H   H1019     1.0  0.52931  0.10805  0.81013  1.0000
  H   H1020     1.0  0.59393  0.04997  0.81083  1.0000
  H   H1021     1.0  0.58783  0.04304  0.86550  1.0000
  C   C1291     1.0  0.57782  0.11182  0.80483  1.0000
  C   C1292     1.0  0.38034  0.02902  0.80182  1.0000
  H   H1022     1.0  0.52891  0.00747  0.89386  1.0000
  C   C1293     1.0  0.58303  0.05361  0.82227  1.0000
  H   H1023     1.0  0.45821  0.04248  0.96943  1.0000
  C   C1294     1.0  0.35073  0.00941  0.88458  1.0000
  H   H1024     1.0  0.41862  0.01826  0.75450  1.0000
  C   C1295     1.0  0.33232  0.06265  0.92701  1.0000
  C   C1296     1.0  0.33909  0.05068  0.52146  1.0000
  H   H1025     1.0  0.42174  0.14253  0.98851  1.0000
  C   C1297     1.0  0.57969  0.04984  0.85301  1.0000
  C   C1298     1.0  0.42821  0.01615  0.71057  1.0000
  C   C1299     1.0  0.37038  0.23166  0.90466  1.0000
  C   C1300     1.0  0.64244  0.06978  0.58193  1.0000
  H   H1026     1.0  0.40157  0.01752  0.86138  1.0000
  H   H1027     1.0  0.36816  0.12422  0.73943  1.0000
  C   C1301     1.0  0.65133  0.12895  0.58569  1.0000
  C   C1302     1.0  0.62311  0.02353  0.63572  1.0000
  H   H1028     1.0  0.34183  0.02757  0.66230  1.0000
  H   H1029     1.0  0.34853  0.10677  0.78759  1.0000
  C   C1303     1.0  0.33431  0.09091  0.94771  1.0000
  H   H1030     1.0  0.32065  0.03283  0.87188  1.0000
  H   H1031     1.0  0.34573  0.24044  0.67468  1.0000
  S   S182      1.0  0.65157  0.04626  0.69992  1.0000
  H   H1032     1.0  0.60285  0.13678  0.80867  1.0000
  C   C1304     1.0  0.34188  0.11708  0.78580  1.0000
  C   C1305     1.0  0.64020  0.02084  0.62866  1.0000
  H   H1033     1.0  0.56383  0.05263  0.89153  1.0000
  C   C1306     1.0  0.37984  0.01458  0.78513  1.0000
  H   H1034     1.0  0.59218  0.01293  0.63435  1.0000
  C   C1307     1.0  0.33681  0.05553  0.95387  1.0000
  C   C1308     1.0  0.45624  0.02272  0.80269  1.0000
  H   H1035     1.0  0.33941  0.22144  0.90759  1.0000
  H   H1036     1.0  0.37762  0.08794  0.79896  1.0000
  H   H1037     1.0  0.40531  0.21506  0.83624  1.0000
  H   H1038     1.0  0.57582  0.06549  0.78240  1.0000
  C   C1309     1.0  0.34362  0.14903  0.78586  1.0000
  S   S183      1.0  0.46190  0.02026  0.76545  1.0000
  C   C1310     1.0  0.40082  0.20158  0.82773  1.0000
  H   H1039     1.0  0.34274  0.21883  0.75879  1.0000
  H   H1040     1.0  0.64397  0.13434  0.56932  1.0000
  H   H1041     1.0  0.62791  0.12194  0.61951  1.0000
  H   H1042     1.0  0.58077  0.10400  0.82381  1.0000
  H   H1043     1.0  0.36008  0.09333  0.87699  1.0000
  H   H1044     1.0  0.38654  0.12675  0.69222  1.0000
  C   C1311     1.0  0.65155  0.11527  0.63577  1.0000
  C   C1312     1.0  0.34948  0.06623  0.81029  1.0000
  H   H1045     1.0  0.34985  0.06753  0.83376  1.0000
  C   C1313     1.0  0.35293  0.13618  0.78737  1.0000
  H   H1046     1.0  0.54571  0.06858  0.86336  1.0000
  C   C1314     1.0  0.39561  0.20013  0.79868  1.0000
  C   C1315     1.0  0.38162  0.24359  0.81079  1.0000
  H   H1047     1.0  0.54589  0.10788  0.75184  1.0000
  H   H1048     1.0  0.61920  0.02795  0.78320  1.0000
  H   H1049     1.0  0.51451  0.04876  0.83561  1.0000
  C   C1316     1.0  0.39338  0.16804  0.83541  1.0000
  C   C1317     1.0  0.52431  0.07851  0.82085  1.0000
  C   C1318     1.0  0.53795  0.01242  0.81914  1.0000
  H   H1050     1.0  0.34779  0.05389  0.54018  1.0000
  C   C1319     1.0  0.35214  0.25045  0.88731  1.0000
  H   H1051     1.0  0.36068  0.07147  0.49082  1.0000
  H   H1052     1.0  0.39757  0.15738  0.98278  1.0000
  H   H1053     1.0  0.44053  0.02937  0.70911  1.0000
  H   H1054     1.0  0.34007  0.02927  0.71629  1.0000
  H   H1055     1.0  0.33346  0.01789  0.79693  1.0000
  H   H1056     1.0  0.62799  0.00724  0.75236  1.0000
  H   H1057     1.0  0.32216  0.22702  0.83467  1.0000
  H   H1058     1.0  0.64510  0.10622  0.53857  1.0000
  C   C1320     1.0  0.32042  0.00678  0.79196  1.0000
  C   C1321     1.0  0.53068  0.01456  0.84667  1.0000
  C   C1322     1.0  0.38772  0.24685  0.89571  1.0000
  H   H1059     1.0  0.45885  0.00721  0.87449  1.0000
  C   C1323     1.0  0.33952  0.06590  0.97800  1.0000
  H   H1060     1.0  0.64412  0.01402  0.55437  1.0000
  C   C1324     1.0  0.32489  0.24483  0.64642  1.0000
  C   C1325     1.0  0.61080  0.01294  0.78623  1.0000
  C   C1326     1.0  0.32363  0.14283  0.78364  1.0000
  H   H1061     1.0  0.32143  0.04395  0.81547  1.0000
  C   C1327     1.0  0.34350  0.24665  0.65343  1.0000
  C   C1328     1.0  0.35919  0.24922  0.50880  1.0000
  H   H1062     1.0  0.39249  0.25044  0.82536  1.0000
  H   H1063     1.0  0.40141  0.24532  0.89860  1.0000
  H   H1064     1.0  0.43565  0.00959  0.66794  1.0000
  H   H1065     1.0  0.36629  0.25129  0.74328  1.0000
  H   H1066     1.0  0.36978  0.24269  0.50974  1.0000
  C   C1329     1.0  0.59507  0.00530  0.80751  1.0000
  C   C1330     1.0  0.53467  0.00586  0.87256  1.0000
  H   H1067     1.0  0.36289  0.13804  0.98850  1.0000
  C   C1331     1.0  0.32041  0.03693  0.52562  1.0000
  P   P41       1.0  0.32928  0.25256  0.88068  1.0000
  H   H1068     1.0  0.32765  0.25781  0.25491  1.0000
  C   C1332     1.0  0.47139  0.41035  0.40648  1.0000
  Fe  Fe91      1.0  0.47528  0.46346  0.26229  1.0000
  S   S184      1.0  0.47781  0.46131  0.21352  1.0000
  S   S185      1.0  0.47557  0.44050  0.29791  1.0000
  Fe  Fe92      1.0  0.49970  0.49115  0.20929  1.0000
  H   H1069     1.0  0.32569  0.32486  0.35081  1.0000
  Fe  Fe93      1.0  0.45482  0.47372  0.21009  1.0000
  S   S186      1.0  0.42596  0.45613  0.19165  1.0000
  C   C1333     1.0  0.34036  0.28067  0.08957  1.0000
  S   S187      1.0  0.45196  0.47513  0.25945  1.0000
  C   C1334     1.0  0.47142  0.37887  0.41424  1.0000
  Fe  Fe94      1.0  0.35262  0.42716  0.06175  1.0000
  S   S188      1.0  0.35385  0.40039  0.04795  1.0000
  S   S189      1.0  0.38071  0.45005  0.07330  1.0000
  Fe  Fe95      1.0  0.40689  0.32950  0.45467  1.0000
  S   S190      1.0  0.41924  0.32843  0.40883  1.0000
  Fe  Fe96      1.0  0.36627  0.31864  0.43689  1.0000
  S   S191      1.0  0.37488  0.31655  0.39032  1.0000
  S   S192      1.0  0.33599  0.31338  0.45500  1.0000
  Fe  Fe97      1.0  0.39286  0.30139  0.40985  1.0000
  Fe  Fe98      1.0  0.40037  0.34356  0.39193  1.0000
  S   S193      1.0  0.40445  0.36576  0.35211  1.0000
  S   S194      1.0  0.38219  0.30146  0.45682  1.0000
  S   S195      1.0  0.39006  0.34658  0.43745  1.0000
  C   C1335     1.0  0.34430  0.39654  0.22320  1.0000
  C   C1336     1.0  0.44687  0.44549  0.47342  1.0000
  H   H1070     1.0  0.39450  0.40866  0.11288  1.0000
  H   H1071     1.0  0.52775  0.48423  0.12824  1.0000
  H   H1072     1.0  0.33820  0.37311  0.19785  1.0000
  H   H1073     1.0  0.34544  0.32976  0.39389  1.0000
  C   C1337     1.0  0.34003  0.38772  0.19757  1.0000
  C   C1338     1.0  0.41403  0.45470  0.15808  1.0000
  C   C1339     1.0  0.42168  0.46780  0.13289  1.0000
  C   C1340     1.0  0.41141  0.46609  0.10712  1.0000
  C   C1341     1.0  0.39336  0.45132  0.10610  1.0000
  C   C1342     1.0  0.38577  0.43826  0.13126  1.0000
  C   C1343     1.0  0.39602  0.43989  0.15696  1.0000
  H   H1074     1.0  0.43545  0.47930  0.13326  1.0000
  H   H1075     1.0  0.41746  0.47636  0.08786  1.0000
  H   H1076     1.0  0.37205  0.42678  0.13072  1.0000
  H   H1077     1.0  0.38992  0.42950  0.17605  1.0000
  C   C1344     1.0  0.45560  0.41988  0.31292  1.0000
  C   C1345     1.0  0.43685  0.41608  0.30436  1.0000
  C   C1346     1.0  0.42149  0.39948  0.31667  1.0000
  C   C1347     1.0  0.42452  0.38656  0.33791  1.0000
  C   C1348     1.0  0.44322  0.39047  0.34679  1.0000
  C   C1349     1.0  0.45866  0.40699  0.33421  1.0000
  H   H1078     1.0  0.43422  0.42587  0.28810  1.0000
  H   H1079     1.0  0.40713  0.39664  0.30978  1.0000
  H   H1080     1.0  0.44583  0.38066  0.36299  1.0000
  H   H1081     1.0  0.47313  0.40977  0.34083  1.0000
  C   C1350     1.0  0.40418  0.41610  0.44664  1.0000
  C   C1351     1.0  0.36392  0.48095  0.10251  1.0000
  C   C1352     1.0  0.37217  0.47473  0.15230  1.0000
  C   C1353     1.0  0.52021  0.48501  0.03266  1.0000
  H   H1082     1.0  0.39177  0.26738  0.19060  1.0000
  H   H1083     1.0  0.47337  0.48092  0.33662  1.0000
  H   H1084     1.0  0.33849  0.32218  0.17412  1.0000
  H   H1085     1.0  0.34968  0.42196  0.24301  1.0000
  H   H1086     1.0  0.43445  0.39045  0.15897  1.0000
  H   H1087     1.0  0.36250  0.37233  0.30011  1.0000
  C   C1354     1.0  0.35954  0.47387  0.23993  1.0000
  H   H1088     1.0  0.48930  0.48280  0.38371  1.0000
  H   H1089     1.0  0.36280  0.38302  0.10966  1.0000
  C   C1355     1.0  0.34658  0.41540  0.22285  1.0000
  C   C1356     1.0  0.39462  0.46869  0.24189  1.0000
  H   H1090     1.0  0.36994  0.40648  0.29986  1.0000
  C   C1357     1.0  0.37623  0.39460  0.42591  1.0000
  C   C1358     1.0  0.38074  0.45880  0.22357  1.0000
  C   C1359     1.0  0.38194  0.25272  0.39537  1.0000
  C   C1360     1.0  0.33802  0.39772  0.17155  1.0000
  H   H1091     1.0  0.38618  0.27517  0.24081  1.0000
  H   H1092     1.0  0.37743  0.36098  0.26081  1.0000
  C   C1361     1.0  0.32826  0.27253  0.37581  1.0000
  H   H1093     1.0  0.33473  0.30599  0.30323  1.0000
  H   H1094     1.0  0.39238  0.49358  0.11753  1.0000
  H   H1095     1.0  0.41547  0.36488  0.26455  1.0000
  C   C1362     1.0  0.55286  0.46780  0.08178  1.0000
  C   C1363     1.0  0.45349  0.40432  0.42324  1.0000
  C   C1364     1.0  0.44480  0.38545  0.43577  1.0000
  P   P42       1.0  0.44255  0.42096  0.43058  1.0000
  C   C1365     1.0  0.41652  0.41028  0.42958  1.0000
  H   H1096     1.0  0.44229  0.45393  0.45727  1.0000
  H   H1097     1.0  0.47821  0.36897  0.41060  1.0000
  H   H1098     1.0  0.59853  0.49460  0.20193  1.0000
  C   C1366     1.0  0.34089  0.27564  0.11993  1.0000
  H   H1099     1.0  0.41341  0.31138  0.24298  1.0000
  S   S196      1.0  0.32577  0.41277  0.09267  1.0000
  C   C1367     1.0  0.40843  0.39659  0.41064  1.0000
  C   C1368     1.0  0.38840  0.38884  0.40876  1.0000
  H   H1100     1.0  0.34568  0.38870  0.24339  1.0000
  H   H1101     1.0  0.48677  0.42377  0.19523  1.0000
  C   C1369     1.0  0.53722  0.46850  0.09880  1.0000
  C   C1370     1.0  0.45164  0.44057  0.40158  1.0000
  C   C1371     1.0  0.44282  0.43967  0.37477  1.0000
  C   C1372     1.0  0.45049  0.45437  0.35173  1.0000
  C   C1373     1.0  0.46715  0.46992  0.35500  1.0000
  C   C1374     1.0  0.47612  0.47090  0.38150  1.0000
  C   C1375     1.0  0.46846  0.45626  0.40470  1.0000
  H   H1102     1.0  0.33509  0.27092  0.04678  1.0000
  C   C1376     1.0  0.45378  0.37283  0.43127  1.0000
  H   H1103     1.0  0.38318  0.47708  0.16786  1.0000
  H   H1104     1.0  0.43116  0.38044  0.44919  1.0000
  C   C1377     1.0  0.38412  0.40825  0.44482  1.0000
  H   H1105     1.0  0.34978  0.35660  0.14968  1.0000
  H   H1106     1.0  0.38297  0.37308  0.48234  1.0000
  H   H1107     1.0  0.41759  0.39198  0.39705  1.0000
  H   H1108     1.0  0.38233  0.37829  0.39398  1.0000
  H   H1109     1.0  0.49385  0.40229  0.38846  1.0000
  H   H1110     1.0  0.36070  0.38845  0.42447  1.0000
  C   C1378     1.0  0.33619  0.26706  0.06998  1.0000
  H   H1111     1.0  0.43041  0.42743  0.37107  1.0000
  H   H1112     1.0  0.44399  0.45334  0.33075  1.0000
  C   C1379     1.0  0.32156  0.31324  0.42545  1.0000
  C   C1380     1.0  0.57383  0.49753  0.09700  1.0000
  H   H1113     1.0  0.47600  0.45697  0.42464  1.0000
  C   C1381     1.0  0.44855  0.42880  0.46643  1.0000
  H   H1114     1.0  0.58311  0.48132  0.06790  1.0000
  C   C1382     1.0  0.36524  0.28698  0.22789  1.0000
  C   C1383     1.0  0.35516  0.29111  0.20471  1.0000
  C   C1384     1.0  0.35816  0.28667  0.17619  1.0000
  C   C1385     1.0  0.37163  0.27830  0.17127  1.0000
  P   P43       1.0  0.34635  0.29318  0.14545  1.0000
  H   H1115     1.0  0.59297  0.47506  0.00640  1.0000
  S   S197      1.0  0.39059  0.27718  0.38325  1.0000
  H   H1116     1.0  0.34263  0.29492  0.08085  1.0000
  C   C1386     1.0  0.53979  0.48370  0.11474  1.0000
  H   H1117     1.0  0.34372  0.28045  0.37271  1.0000
  C   C1387     1.0  0.34449  0.42555  0.19677  1.0000
  C   C1388     1.0  0.36212  0.31580  0.12656  1.0000
  C   C1389     1.0  0.38217  0.32277  0.12935  1.0000
  C   C1390     1.0  0.39413  0.34031  0.11454  1.0000
  C   C1391     1.0  0.38618  0.35091  0.09666  1.0000
  C   C1392     1.0  0.36629  0.34398  0.09356  1.0000
  C   C1393     1.0  0.35433  0.32656  0.10853  1.0000
  C   C1394     1.0  0.33653  0.25665  0.13039  1.0000
  H   H1118     1.0  0.38400  0.44953  0.20984  1.0000
  H   H1119     1.0  0.55088  0.45597  0.06952  1.0000
  H   H1120     1.0  0.34510  0.29776  0.20928  1.0000
  C   C1395     1.0  0.37342  0.48365  0.25841  1.0000
  H   H1121     1.0  0.40842  0.46701  0.24206  1.0000
  H   H1122     1.0  0.34621  0.47632  0.23928  1.0000
  H   H1123     1.0  0.52311  0.45723  0.09982  1.0000
  H   H1124     1.0  0.33042  0.26029  0.46071  1.0000
  H   H1125     1.0  0.43333  0.40222  0.24954  1.0000
  H   H1126     1.0  0.38868  0.31471  0.14266  1.0000
  H   H1127     1.0  0.40959  0.34564  0.11668  1.0000
  H   H1128     1.0  0.39539  0.36448  0.08512  1.0000
  H   H1129     1.0  0.36006  0.35213  0.07963  1.0000
  Fe  Fe99      1.0  0.33480  0.40312  0.01176  1.0000
  H   H1130     1.0  0.46966  0.40900  0.15297  1.0000
  C   C1396     1.0  0.36910  0.28834  0.32076  1.0000
  C   C1397     1.0  0.36312  0.46138  0.22227  1.0000
  H   H1131     1.0  0.64535  0.49597  0.04755  1.0000
  C   C1398     1.0  0.39100  0.48113  0.25929  1.0000
  C   C1399     1.0  0.38152  0.27399  0.19457  1.0000
  P   P44       1.0  0.32997  0.26664  0.31646  1.0000
  S   S198      1.0  0.33537  0.43102  0.02325  1.0000
  H   H1132     1.0  0.36113  0.26041  0.28288  1.0000
  C   C1400     1.0  0.37834  0.27833  0.22287  1.0000
  H   H1133     1.0  0.39893  0.34761  0.17899  1.0000
  H   H1134     1.0  0.42006  0.33521  0.27804  1.0000
  C   C1401     1.0  0.39945  0.39668  0.15511  1.0000
  H   H1135     1.0  0.36840  0.35556  0.19335  1.0000
  H   H1136     1.0  0.40778  0.41822  0.22098  1.0000
  H   H1137     1.0  0.58229  0.49645  0.15649  1.0000
  H   H1138     1.0  0.32907  0.35716  0.04995  1.0000
  H   H1139     1.0  0.39857  0.30521  0.32770  1.0000
  C   C1402     1.0  0.35099  0.28831  0.31350  1.0000
  C   C1403     1.0  0.34877  0.30556  0.30716  1.0000
  C   C1404     1.0  0.36449  0.32251  0.30767  1.0000
  C   C1405     1.0  0.38252  0.32239  0.31446  1.0000
  C   C1406     1.0  0.38485  0.30532  0.32083  1.0000
  H   H1140     1.0  0.37457  0.27516  0.14933  1.0000
  H   H1141     1.0  0.36251  0.33573  0.30418  1.0000
  H   H1142     1.0  0.39446  0.33551  0.31611  1.0000
  H   H1143     1.0  0.62373  0.49648  0.08940  1.0000
  H   H1144     1.0  0.39261  0.42933  0.26006  1.0000
  C   C1407     1.0  0.48023  0.39762  0.40188  1.0000
  C   C1408     1.0  0.57114  0.48223  0.08092  1.0000
  H   H1145     1.0  0.37092  0.27537  0.32804  1.0000
  H   H1146     1.0  0.44708  0.35832  0.44110  1.0000
  H   H1147     1.0  0.56700  0.48743  0.00574  1.0000
  H   H1148     1.0  0.40282  0.31768  0.19344  1.0000
  H   H1149     1.0  0.46848  0.42003  0.24352  1.0000
  H   H1150     1.0  0.40195  0.48899  0.27310  1.0000
  P   P45       1.0  0.34589  0.44945  0.19690  1.0000
  H   H1151     1.0  0.47849  0.42477  0.39650  1.0000
  H   H1152     1.0  0.41273  0.40859  0.15680  1.0000
  H   H1153     1.0  0.40989  0.42669  0.46129  1.0000
  H   H1154     1.0  0.51274  0.49500  0.07213  1.0000
  C   C1409     1.0  0.40516  0.32786  0.20909  1.0000
  C   C1410     1.0  0.41118  0.32431  0.23694  1.0000
  C   C1411     1.0  0.41482  0.33769  0.25679  1.0000
  C   C1412     1.0  0.41212  0.35447  0.24908  1.0000
  C   C1413     1.0  0.40581  0.35804  0.22130  1.0000
  C   C1414     1.0  0.40271  0.34476  0.20112  1.0000
  P   P46       1.0  0.40567  0.38102  0.20994  1.0000
  C   C1415     1.0  0.39398  0.38882  0.23831  1.0000
  C   C1416     1.0  0.43107  0.39572  0.20429  1.0000
  C   C1417     1.0  0.44097  0.40381  0.22818  1.0000
  C   C1418     1.0  0.46098  0.41374  0.22494  1.0000
  C   C1419     1.0  0.47129  0.41576  0.19776  1.0000
  C   C1420     1.0  0.46162  0.40750  0.17396  1.0000
  C   C1421     1.0  0.44161  0.39726  0.17732  1.0000
  C   C1422     1.0  0.39783  0.40806  0.23805  1.0000
  C   C1423     1.0  0.38915  0.41439  0.26013  1.0000
  C   C1424     1.0  0.37638  0.40152  0.28245  1.0000
  C   C1425     1.0  0.37219  0.38227  0.28255  1.0000
  C   C1426     1.0  0.38084  0.37591  0.26042  1.0000
  C   C1427     1.0  0.39248  0.38147  0.17762  1.0000
  C   C1428     1.0  0.37439  0.36707  0.17573  1.0000
  C   C1429     1.0  0.36379  0.36761  0.15121  1.0000
  C   C1430     1.0  0.37111  0.38253  0.12853  1.0000
  C   C1431     1.0  0.38899  0.39695  0.13036  1.0000
  H   H1155     1.0  0.51027  0.47064  0.03904  1.0000
  H   H1156     1.0  0.36298  0.29065  0.24972  1.0000
  S   S199      1.0  0.49923  0.49222  0.25822  1.0000
  C   C1432     1.0  0.32409  0.29504  0.15889  1.0000
  H   H1157     1.0  0.32817  0.47738  0.18728  1.0000
  H   H1158     1.0  0.33901  0.32134  0.10570  1.0000
  H   H1159     1.0  0.32680  0.27878  0.42047  1.0000
  H   H1160     1.0  0.37467  0.41276  0.45806  1.0000
  H   H1161     1.0  0.36834  0.48767  0.07998  1.0000
  C   C1433     1.0  0.33013  0.32147  0.39712  1.0000
  Fe  Fe100     1.0  0.32620  0.38640  0.07675  1.0000
  C   C1434     1.0  0.37749  0.48424  0.12368  1.0000
  H   H1162     1.0  0.54232  0.49285  0.23480  1.0000
  C   C1435     1.0  0.32476  0.31094  0.17216  1.0000
  H   H1163     1.0  0.37071  0.49345  0.27172  1.0000
  H   H1164     1.0  0.33477  0.39090  0.15158  1.0000
  H   H1165     1.0  0.39014  0.25549  0.43993  1.0000
  C   C1436     1.0  0.35304  0.46211  0.16013  1.0000
  H   H1166     1.0  0.33848  0.42392  0.15077  1.0000
  C   C1437     1.0  0.34013  0.41651  0.17118  1.0000
  C   C1438     1.0  0.32095  0.34336  0.06160  1.0000
  H   H1167     1.0  0.32296  0.32888  0.02424  1.0000
  C   C1439     1.0  0.52156  0.49873  0.05127  1.0000
  C   C1440     1.0  0.53159  0.48985  0.00578  1.0000
  C   C1441     1.0  0.33706  0.25921  0.48111  1.0000
  C   C1442     1.0  0.32227  0.44913  0.20809  1.0000
  C   C1443     1.0  0.34491  0.46832  0.11001  1.0000
  C   C1444     1.0  0.33944  0.45901  0.13873  1.0000
  C   C1445     1.0  0.55797  0.49822  0.11372  1.0000
  H   H1168     1.0  0.33455  0.46542  0.09332  1.0000
  H   H1169     1.0  0.45615  0.40530  0.48311  1.0000
  H   H1170     1.0  0.32468  0.44911  0.14401  1.0000
  C   C1446     1.0  0.45464  0.41820  0.48776  1.0000
  C   C1447     1.0  0.60704  0.50214  0.18161  1.0000
  H   H1171     1.0  0.53033  0.47906  0.99152  1.0000
  C   C1448     1.0  0.45778  0.32526  0.78404  1.0000
  Fe  Fe101     1.0  0.50361  0.45863  0.74843  1.0000
  S   S200      1.0  0.49997  0.42778  0.75035  1.0000
  S   S201      1.0  0.49433  0.46800  0.78959  1.0000
  Fe  Fe102     1.0  0.41307  0.33549  0.69984  1.0000
  S   S202      1.0  0.39406  0.32749  0.66213  1.0000
  S   S203      1.0  0.43056  0.36721  0.69298  1.0000
  Fe  Fe103     1.0  0.39672  0.29461  0.73050  1.0000
  S   S204      1.0  0.37720  0.28396  0.69460  1.0000
  S   S205      1.0  0.39804  0.27668  0.77284  1.0000
  Fe  Fe104     1.0  0.40224  0.30254  0.66264  1.0000
  S   S206      1.0  0.40760  0.29229  0.61940  1.0000
  Fe  Fe105     1.0  0.37060  0.30985  0.69659  1.0000
  S   S207      1.0  0.33988  0.30717  0.69157  1.0000
  S   S208      1.0  0.42277  0.31115  0.69836  1.0000
  S   S209      1.0  0.38852  0.31968  0.73445  1.0000
  C   C1449     1.0  0.33123  0.39217  0.90794  1.0000
  Fe  Fe106     1.0  0.34006  0.41102  0.74729  1.0000
  S   S210      1.0  0.33596  0.39551  0.79300  1.0000
  S   S211      1.0  0.36934  0.42611  0.72062  1.0000
  H   H1172     1.0  0.33464  0.37968  0.91031  1.0000
  C   C1450     1.0  0.34212  0.32859  0.73714  1.0000
  C   C1451     1.0  0.37289  0.37869  0.76517  1.0000
  C   C1452     1.0  0.34580  0.35879  0.66375  1.0000
  C   C1453     1.0  0.33274  0.26699  0.50557  1.0000
  S   S212      1.0  0.33911  0.39428  0.96629  1.0000
  H   H1173     1.0  0.40921  0.46226  0.55673  1.0000
  C   C1454     1.0  0.32181  0.27889  0.84097  1.0000
  H   H1174     1.0  0.35437  0.27431  0.77612  1.0000
  C   C1455     1.0  0.33219  0.40230  0.93227  1.0000
  H   H1175     1.0  0.41648  0.38743  0.49666  1.0000
  H   H1176     1.0  0.35531  0.36989  0.51717  1.0000
  C   C1456     1.0  0.32073  0.41376  0.87740  1.0000
  C   C1457     1.0  0.40541  0.45208  0.57633  1.0000
  H   H1177     1.0  0.44837  0.31911  0.80413  1.0000
  C   C1458     1.0  0.40523  0.38724  0.74214  1.0000
  C   C1459     1.0  0.41000  0.30609  0.58500  1.0000
  C   C1460     1.0  0.40675  0.29732  0.55902  1.0000
  C   C1461     1.0  0.40977  0.30802  0.53114  1.0000
  C   C1462     1.0  0.41685  0.32766  0.52897  1.0000
  C   C1463     1.0  0.42016  0.33644  0.55493  1.0000
  C   C1464     1.0  0.41621  0.32568  0.58288  1.0000
  H   H1178     1.0  0.40208  0.28219  0.56041  1.0000
  H   H1179     1.0  0.40731  0.30111  0.51130  1.0000
  H   H1180     1.0  0.42563  0.35161  0.55333  1.0000
  H   H1181     1.0  0.41851  0.33251  0.60272  1.0000
  C   C1465     1.0  0.33040  0.31770  0.71723  1.0000
  H   H1182     1.0  0.46031  0.44529  0.54406  1.0000
  H   H1183     1.0  0.36596  0.46393  0.74417  1.0000
  C   C1466     1.0  0.53126  0.32085  0.71626  1.0000
  H   H1184     1.0  0.35501  0.30383  0.51306  1.0000
  C   C1467     1.0  0.46458  0.41708  0.80667  1.0000
  H   H1185     1.0  0.35114  0.25567  0.82445  1.0000
  C   C1468     1.0  0.34347  0.26510  0.82177  1.0000
  C   C1469     1.0  0.36626  0.38110  0.73743  1.0000
  H   H1186     1.0  0.39427  0.44840  0.65052  1.0000
  C   C1470     1.0  0.47951  0.41093  0.73646  1.0000
  C   C1471     1.0  0.46879  0.41640  0.71560  1.0000
  C   C1472     1.0  0.45376  0.40278  0.70301  1.0000
  C   C1473     1.0  0.44902  0.38347  0.71121  1.0000
  C   C1474     1.0  0.45920  0.37790  0.73291  1.0000
  C   C1475     1.0  0.47449  0.39159  0.74528  1.0000
  H   H1187     1.0  0.47233  0.43114  0.70864  1.0000
  H   H1188     1.0  0.44563  0.40728  0.68696  1.0000
  H   H1189     1.0  0.45546  0.36311  0.73978  1.0000
  H   H1190     1.0  0.48254  0.38727  0.76167  1.0000
  C   C1476     1.0  0.42616  0.45896  0.76075  1.0000
  C   C1477     1.0  0.42647  0.45379  0.73217  1.0000
  C   C1478     1.0  0.40903  0.44316  0.72049  1.0000
  C   C1479     1.0  0.39118  0.43726  0.73743  1.0000
  C   C1480     1.0  0.39103  0.44152  0.76655  1.0000
  H   H1191     1.0  0.34289  0.34351  0.77491  1.0000
  H   H1192     1.0  0.44003  0.45852  0.71872  1.0000
  H   H1193     1.0  0.40935  0.43974  0.69808  1.0000
  C   C1481     1.0  0.45798  0.39860  0.82047  1.0000
  C   C1482     1.0  0.34527  0.27556  0.79425  1.0000
  H   H1194     1.0  0.32928  0.34229  0.96391  1.0000
  H   H1195     1.0  0.40665  0.42972  0.55274  1.0000
  C   C1483     1.0  0.37719  0.33724  0.55705  1.0000
  Fe  Fe107     1.0  0.51365  0.49749  0.71334  1.0000
  C   C1484     1.0  0.45193  0.42362  0.79162  1.0000
  C   C1485     1.0  0.33487  0.27199  0.93064  1.0000
  H   H1196     1.0  0.56030  0.32638  0.69852  1.0000
  H   H1197     1.0  0.54253  0.41291  0.72219  1.0000
  H   H1198     1.0  0.42303  0.41715  0.77902  1.0000
  C   C1486     1.0  0.34103  0.26531  0.53237  1.0000
  S   S213      1.0  0.44719  0.47464  0.77494  1.0000
  C   C1487     1.0  0.39018  0.48284  0.71503  1.0000
  C   C1488     1.0  0.40839  0.45250  0.77799  1.0000
  C   C1489     1.0  0.43269  0.41169  0.79034  1.0000
  H   H1199     1.0  0.46359  0.41592  0.53192  1.0000
  C   C1490     1.0  0.33797  0.26345  0.59865  1.0000
  H   H1200     1.0  0.35127  0.30078  0.60857  1.0000
  H   H1201     1.0  0.32374  0.32524  0.91949  1.0000
  H   H1202     1.0  0.44231  0.30250  0.75946  1.0000
  H   H1203     1.0  0.38453  0.40739  0.80259  1.0000
  S   S214      1.0  0.53131  0.48461  0.74042  1.0000
  S   S215      1.0  0.42237  0.34170  0.49427  1.0000
  C   C1491     1.0  0.42603  0.39301  0.80372  1.0000
  H   H1204     1.0  0.42025  0.38920  0.74358  1.0000
  C   C1492     1.0  0.40956  0.34661  0.79657  1.0000
  C   C1493     1.0  0.38832  0.37853  0.86159  1.0000
  H   H1205     1.0  0.33395  0.35019  0.67976  1.0000
  H   H1206     1.0  0.35114  0.37857  0.73557  1.0000
  H   H1207     1.0  0.37406  0.38973  0.69096  1.0000
  C   C1494     1.0  0.38332  0.40101  0.82518  1.0000
  H   H1208     1.0  0.38514  0.29966  0.81637  1.0000
  C   C1495     1.0  0.32575  0.39797  0.88055  1.0000
  H   H1209     1.0  0.37387  0.25884  0.63912  1.0000
  C   C1496     1.0  0.37947  0.47608  0.74235  1.0000
  C   C1497     1.0  0.39861  0.38993  0.71444  1.0000
  C   C1498     1.0  0.43870  0.38662  0.81930  1.0000
  C   C1499     1.0  0.40568  0.32731  0.79989  1.0000
  H   H1210     1.0  0.47599  0.34975  0.80283  1.0000
  C   C1500     1.0  0.37625  0.40838  0.84773  1.0000
  C   C1501     1.0  0.37545  0.40102  0.87720  1.0000
  C   C1502     1.0  0.36962  0.26574  0.87880  1.0000
  H   H1211     1.0  0.42258  0.35615  0.78355  1.0000
  Fe  Fe108     1.0  0.47841  0.48050  0.75877  1.0000
  H   H1212     1.0  0.37045  0.40709  0.89472  1.0000
  H   H1213     1.0  0.36274  0.37421  0.78458  1.0000
  H   H1214     1.0  0.58859  0.49943  0.69960  1.0000
  C   C1503     1.0  0.33405  0.33600  0.75855  1.0000
  C   C1504     1.0  0.37890  0.34064  0.82378  1.0000
  H   H1215     1.0  0.36206  0.25589  0.55317  1.0000
  H   H1216     1.0  0.47956  0.42630  0.80743  1.0000
  H   H1217     1.0  0.33274  0.32100  0.63000  1.0000
  C   C1505     1.0  0.38656  0.48447  0.76754  1.0000
  C   C1506     1.0  0.54834  0.33113  0.69849  1.0000
  H   H1218     1.0  0.45698  0.43794  0.78089  1.0000
  H   H1219     1.0  0.36956  0.27900  0.86867  1.0000
  H   H1220     1.0  0.40798  0.45638  0.80011  1.0000
  C   C1507     1.0  0.40434  0.49968  0.76543  1.0000
  H   H1221     1.0  0.34969  0.27293  0.92881  1.0000
  C   C1508     1.0  0.36954  0.32716  0.58476  1.0000
  H   H1222     1.0  0.40303  0.47168  0.60550  1.0000
  H   H1223     1.0  0.46787  0.39365  0.83209  1.0000
  H   H1224     1.0  0.32311  0.27455  0.50331  1.0000
  H   H1225     1.0  0.52997  0.30811  0.73004  1.0000
  C   C1509     1.0  0.34387  0.37306  0.64444  1.0000
  C   C1510     1.0  0.37498  0.32132  0.82676  1.0000
  C   C1511     1.0  0.51249  0.49520  0.91266  1.0000
  H   H1226     1.0  0.44540  0.49493  0.71795  1.0000
  C   C1512     1.0  0.38109  0.25324  0.78314  1.0000
  H   H1227     1.0  0.43369  0.37253  0.83079  1.0000
  H   H1228     1.0  0.37399  0.33365  0.60470  1.0000
  C   C1513     1.0  0.47334  0.34247  0.78330  1.0000
  H   H1229     1.0  0.61940  0.48614  0.96611  1.0000
  H   H1230     1.0  0.56317  0.35543  0.66673  1.0000
  H   H1231     1.0  0.33640  0.29529  0.76843  1.0000
  C   C1514     1.0  0.46645  0.32381  0.73283  1.0000
  C   C1515     1.0  0.48179  0.34136  0.73163  1.0000
  C   C1516     1.0  0.48543  0.35041  0.75730  1.0000
  P   P47       1.0  0.49748  0.35139  0.69804  1.0000
  C   C1517     1.0  0.50693  0.37680  0.69575  1.0000
  C   C1518     1.0  0.51738  0.34346  0.69851  1.0000
  C   C1519     1.0  0.53453  0.35363  0.68054  1.0000
  C   C1520     1.0  0.54996  0.34750  0.68060  1.0000
  P   P48       1.0  0.33505  0.27540  0.56384  1.0000
  C   C1521     1.0  0.33170  0.26661  0.84541  1.0000
  C   C1522     1.0  0.51580  0.32695  0.71626  1.0000
  C   C1523     1.0  0.49822  0.38742  0.67923  1.0000
  C   C1524     1.0  0.50566  0.40702  0.67785  1.0000
  C   C1525     1.0  0.52173  0.41618  0.69308  1.0000
  C   C1526     1.0  0.53044  0.40576  0.70969  1.0000
  C   C1527     1.0  0.52313  0.38616  0.71098  1.0000
  C   C1528     1.0  0.48369  0.34390  0.66665  1.0000
  C   C1529     1.0  0.46522  0.34463  0.66551  1.0000
  C   C1530     1.0  0.45409  0.33824  0.64195  1.0000
  C   C1531     1.0  0.46120  0.33091  0.61943  1.0000
  C   C1532     1.0  0.47964  0.33027  0.62022  1.0000
  C   C1533     1.0  0.49088  0.33676  0.64370  1.0000
  H   H1232     1.0  0.46371  0.31620  0.71367  1.0000
  H   H1233     1.0  0.49737  0.36373  0.75726  1.0000
  H   H1234     1.0  0.53594  0.36627  0.66637  1.0000
  H   H1235     1.0  0.35731  0.33104  0.73654  1.0000
  H   H1236     1.0  0.37811  0.33641  0.50989  1.0000
  H   H1237     1.0  0.50268  0.31871  0.73007  1.0000
  H   H1238     1.0  0.48543  0.38076  0.66796  1.0000
  H   H1239     1.0  0.49849  0.41509  0.66597  1.0000
  H   H1240     1.0  0.52694  0.43131  0.69303  1.0000
  H   H1241     1.0  0.52990  0.37832  0.72434  1.0000
  H   H1242     1.0  0.45927  0.34990  0.68310  1.0000
  H   H1243     1.0  0.43970  0.33850  0.64172  1.0000
  H   H1244     1.0  0.45231  0.32544  0.60161  1.0000
  H   H1245     1.0  0.48506  0.32448  0.60279  1.0000
  H   H1246     1.0  0.50499  0.33588  0.64397  1.0000
  H   H1247     1.0  0.38068  0.38039  0.90707  1.0000
  C   C1534     1.0  0.37916  0.38710  0.71217  1.0000
  C   C1535     1.0  0.35136  0.29970  0.56112  1.0000
  C   C1536     1.0  0.38838  0.31466  0.81488  1.0000
  C   C1537     1.0  0.32211  0.25322  0.61925  1.0000
  S   S216      1.0  0.48706  0.47053  0.71803  1.0000
  C   C1538     1.0  0.38130  0.38599  0.88413  1.0000
  H   H1248     1.0  0.41563  0.32201  0.78963  1.0000
  C   C1539     1.0  0.45438  0.31590  0.75885  1.0000
  C   C1540     1.0  0.36325  0.35598  0.66302  1.0000
  C   C1541     1.0  0.33523  0.28752  0.78996  1.0000
  H   H1249     1.0  0.40078  0.27563  0.87575  1.0000
  C   C1542     1.0  0.35934  0.38444  0.62432  1.0000
  C   C1543     1.0  0.37686  0.38153  0.62317  1.0000
  C   C1544     1.0  0.37873  0.36727  0.64286  1.0000
  P   P49       1.0  0.39677  0.39653  0.59719  1.0000
  C   C1545     1.0  0.39882  0.42040  0.59950  1.0000
  C   C1546     1.0  0.41917  0.39425  0.60681  1.0000
  C   C1547     1.0  0.43348  0.40855  0.61935  1.0000
  C   C1548     1.0  0.45105  0.40689  0.62542  1.0000
  C   C1549     1.0  0.45442  0.39094  0.61927  1.0000
  C   C1550     1.0  0.44030  0.37669  0.60679  1.0000
  C   C1551     1.0  0.42269  0.37823  0.60079  1.0000
  H   H1250     1.0  0.37164  0.42001  0.84240  1.0000
  C   C1552     1.0  0.39556  0.42593  0.62706  1.0000
  C   C1553     1.0  0.39227  0.39025  0.56007  1.0000
  C   C1554     1.0  0.40786  0.39260  0.53966  1.0000
  C   C1555     1.0  0.40447  0.38638  0.51180  1.0000
  C   C1556     1.0  0.38556  0.37823  0.50374  1.0000
  C   C1557     1.0  0.36998  0.37639  0.52344  1.0000
  C   C1558     1.0  0.37329  0.38232  0.55152  1.0000
  H   H1251     1.0  0.36501  0.34539  0.67874  1.0000
  H   H1252     1.0  0.56866  0.49910  0.80363  1.0000
  H   H1253     1.0  0.44977  0.46430  0.50656  1.0000
  H   H1254     1.0  0.35772  0.39572  0.60996  1.0000
  H   H1255     1.0  0.39221  0.36508  0.64346  1.0000
  H   H1256     1.0  0.43119  0.42095  0.62471  1.0000
  H   H1257     1.0  0.46192  0.41782  0.63551  1.0000
  H   H1258     1.0  0.46784  0.38949  0.62460  1.0000
  H   H1259     1.0  0.44296  0.36436  0.60201  1.0000
  H   H1260     1.0  0.41180  0.36689  0.59154  1.0000
  H   H1261     1.0  0.39348  0.36736  0.86738  1.0000
  H   H1262     1.0  0.39190  0.41607  0.64708  1.0000
  H   H1263     1.0  0.42263  0.39875  0.54549  1.0000
  H   H1264     1.0  0.54401  0.48363  0.87068  1.0000
  H   H1265     1.0  0.36930  0.27428  0.59184  1.0000
  C   C1559     1.0  0.35666  0.26558  0.60637  1.0000
  H   H1266     1.0  0.36095  0.38028  0.56653  1.0000
  C   C1560     1.0  0.38926  0.38592  0.83192  1.0000
  H   H1267     1.0  0.36134  0.31147  0.83766  1.0000
  H   H1268     1.0  0.36808  0.34552  0.83222  1.0000
  C   C1561     1.0  0.32874  0.27939  0.95417  1.0000
  C   C1562     1.0  0.45104  0.45138  0.50134  1.0000
  H   H1269     1.0  0.40857  0.39411  0.69482  1.0000
  C   C1563     1.0  0.40389  0.43362  0.57414  1.0000
  C   C1564     1.0  0.35669  0.30844  0.58683  1.0000
  C   C1565     1.0  0.45886  0.42417  0.51561  1.0000
  H   H1270     1.0  0.33873  0.28589  0.97019  1.0000
  H   H1271     1.0  0.38781  0.35141  0.55543  1.0000
  C   C1566     1.0  0.32358  0.28929  0.81330  1.0000
  C   C1567     1.0  0.39702  0.44434  0.62914  1.0000
  C   C1568     1.0  0.45700  0.44070  0.52246  1.0000
  C   C1569     1.0  0.40193  0.45742  0.60379  1.0000
  C   C1570     1.0  0.35884  0.31008  0.53333  1.0000
  C   C1571     1.0  0.37178  0.32875  0.53137  1.0000
  H   H1272     1.0  0.37742  0.43713  0.77982  1.0000
  C   C1572     1.0  0.39252  0.38215  0.76776  1.0000
  C   C1573     1.0  0.39640  0.35345  0.80914  1.0000
  H   H1273     1.0  0.33050  0.37552  0.64552  1.0000
  P   P50       1.0  0.40088  0.37821  0.80334  1.0000
  H   H1274     1.0  0.38483  0.47592  0.69577  1.0000
  H   H1275     1.0  0.37845  0.47886  0.78884  1.0000
  C   C1574     1.0  0.32179  0.26312  0.91028  1.0000
  C   C1575     1.0  0.57841  0.49258  0.98806  1.0000
  H   H1276     1.0  0.46855  0.49186  0.68073  1.0000
  Fe  Fe109     1.0  0.52039  0.49503  0.77914  1.0000
  H   H1277     1.0  0.51064  0.48296  0.87171  1.0000
  C   C1576     1.0  0.32788  0.41850  0.92874  1.0000
  C   C1577     1.0  0.53842  0.48862  0.88902  1.0000
  C   C1578     1.0  0.60806  0.49173  0.96591  1.0000
  C   C1579     1.0  0.40786  0.49819  0.71275  1.0000
  H   H1278     1.0  0.32919  0.42683  0.94689  1.0000
  C   C1580     1.0  0.51957  0.48825  0.88958  1.0000
  C   C1581     1.0  0.35472  0.25679  0.53349  1.0000
  C   C1582     1.0  0.55035  0.49617  0.91124  1.0000
  C   C1583     1.0  0.35935  0.25701  0.63339  1.0000
  H   H1279     1.0  0.32491  0.38991  0.86215  1.0000
  H   H1280     1.0  0.56506  0.49681  0.90953  1.0000
  C   C1584     1.0  0.38734  0.26391  0.88291  1.0000
  H   H1281     1.0  0.49793  0.49508  0.91287  1.0000
  C   C1585     1.0  0.32201  0.42407  0.90156  1.0000
  C   C1586     1.0  0.59312  0.48545  0.98851  1.0000
  H   H1282     1.0  0.31973  0.28649  0.64263  1.0000
  C   C1587     1.0  0.54561  0.52220  0.01607  1.0000
  Fe  Fe110     1.0  0.63731  0.55935  0.21158  1.0000
  S   S217      1.0  0.63964  0.57554  0.16706  1.0000
  C   C1588     1.0  0.58353  0.68489  0.46841  1.0000
  H   H1283     1.0  0.60594  0.57880  0.12580  1.0000
  H   H1284     1.0  0.59647  0.57421  0.44430  1.0000
  Fe  Fe111     1.0  0.56613  0.66408  0.31273  1.0000
  S   S218      1.0  0.54864  0.65972  0.27269  1.0000
  S   S219      1.0  0.55404  0.66728  0.35747  1.0000
  Fe  Fe112     1.0  0.60126  0.66304  0.27938  1.0000
  S   S220      1.0  0.58653  0.65820  0.23739  1.0000
  S   S221      1.0  0.63104  0.66296  0.28543  1.0000
  Fe  Fe113     1.0  0.57616  0.68085  0.24778  1.0000
  S   S222      1.0  0.57653  0.70225  0.20904  1.0000
  Fe  Fe114     1.0  0.56051  0.63739  0.26542  1.0000
  S   S223      1.0  0.54741  0.60910  0.24689  1.0000
  S   S224      1.0  0.59251  0.68694  0.28850  1.0000
  S   S225      1.0  0.57637  0.64075  0.30671  1.0000
  C   C1589     1.0  0.57428  0.58573  0.44315  1.0000
  H   H1285     1.0  0.63757  0.53176  0.11057  1.0000
  C   C1590     1.0  0.59611  0.72383  0.19677  1.0000
  C   C1591     1.0  0.61040  0.73275  0.21530  1.0000
  H   H1286     1.0  0.54053  0.75068  0.04809  1.0000
  H   H1287     1.0  0.62338  0.67619  0.41479  1.0000
  C   C1592     1.0  0.58337  0.72128  0.33693  1.0000
  C   C1593     1.0  0.59675  0.73277  0.16809  1.0000
  H   H1288     1.0  0.61006  0.72612  0.23746  1.0000
  C   C1594     1.0  0.63752  0.65665  0.47507  1.0000
  H   H1289     1.0  0.53527  0.50273  0.29464  1.0000
  H   H1290     1.0  0.58565  0.72615  0.15371  1.0000
  C   C1595     1.0  0.55948  0.65688  0.39050  1.0000
  C   C1596     1.0  0.57105  0.64622  0.39005  1.0000
  C   C1597     1.0  0.57396  0.63701  0.41655  1.0000
  C   C1598     1.0  0.56569  0.63869  0.44379  1.0000
  C   C1599     1.0  0.55445  0.64966  0.44433  1.0000
  C   C1600     1.0  0.55148  0.65885  0.41778  1.0000
  H   H1291     1.0  0.57743  0.64476  0.36926  1.0000
  H   H1292     1.0  0.58246  0.62835  0.41587  1.0000
  H   H1293     1.0  0.54765  0.65072  0.46511  1.0000
  H   H1294     1.0  0.54257  0.66713  0.41833  1.0000
  C   C1601     1.0  0.63996  0.57410  0.05818  1.0000
  H   H1295     1.0  0.60463  0.53383  0.03388  1.0000
  H   H1296     1.0  0.62781  0.57849  0.05882  1.0000
  H   H1297     1.0  0.60239  0.71750  0.10062  1.0000
  C   C1602     1.0  0.64869  0.71913  0.36882  1.0000
  C   C1603     1.0  0.50186  0.52572  0.33890  1.0000
  H   H1298     1.0  0.50726  0.72662  0.05425  1.0000
  C   C1604     1.0  0.63814  0.65400  0.25503  1.0000
  C   C1605     1.0  0.63315  0.65835  0.22679  1.0000
  H   H1299     1.0  0.63997  0.64364  0.33752  1.0000
  H   H1300     1.0  0.52919  0.70346  0.36520  1.0000
  H   H1301     1.0  0.63349  0.65333  0.18107  1.0000
  C   C1606     1.0  0.64715  0.63778  0.20689  1.0000
  C   C1607     1.0  0.62400  0.50443  0.06833  1.0000
  C   C1608     1.0  0.49757  0.55084  0.26841  1.0000
  C   C1609     1.0  0.49872  0.56544  0.28551  1.0000
  C   C1610     1.0  0.51398  0.58328  0.27969  1.0000
  C   C1611     1.0  0.52824  0.58675  0.25657  1.0000
  C   C1612     1.0  0.52731  0.57200  0.24003  1.0000
  C   C1613     1.0  0.51215  0.55417  0.24592  1.0000
  H   H1302     1.0  0.48756  0.56302  0.30301  1.0000
  H   H1303     1.0  0.51442  0.59447  0.29251  1.0000
  H   H1304     1.0  0.53828  0.57445  0.22219  1.0000
  H   H1305     1.0  0.51155  0.54314  0.23257  1.0000
  C   C1614     1.0  0.64970  0.59638  0.30949  1.0000
  S   S226      1.0  0.47756  0.52883  0.27532  1.0000
  S   S227      1.0  0.65226  0.62779  0.17628  1.0000
  P   P51       1.0  0.59732  0.51627  0.09616  1.0000
  C   C1615     1.0  0.55073  0.51302  0.19579  1.0000
  C   C1616     1.0  0.57410  0.53885  0.31401  1.0000
  C   C1617     1.0  0.51293  0.54802  0.38523  1.0000
  H   H1306     1.0  0.53514  0.52790  0.05744  1.0000
  C   C1618     1.0  0.65055  0.67298  0.48472  1.0000
  C   C1619     1.0  0.52596  0.55064  0.36063  1.0000
  C   C1620     1.0  0.48606  0.55488  0.44975  1.0000
  C   C1621     1.0  0.63765  0.65025  0.20280  1.0000
  C   C1622     1.0  0.64084  0.56340  0.30406  1.0000
  C   C1623     1.0  0.65057  0.61761  0.09878  1.0000
  H   H1307     1.0  0.56151  0.55934  0.25263  1.0000
  C   C1624     1.0  0.60898  0.70963  0.11430  1.0000
  C   C1625     1.0  0.56615  0.52828  0.18020  1.0000
  C   C1626     1.0  0.62491  0.52432  0.01342  1.0000
  H   H1308     1.0  0.64587  0.70516  0.43194  1.0000
  C   C1627     1.0  0.56923  0.70755  0.47686  1.0000
  H   H1309     1.0  0.55009  0.59395  0.43966  1.0000
  C   C1628     1.0  0.63798  0.52189  0.15598  1.0000
  C   C1629     1.0  0.62889  0.52317  0.13011  1.0000
  C   C1630     1.0  0.62331  0.69226  0.35321  1.0000
  C   C1631     1.0  0.60937  0.69822  0.36519  1.0000
  C   C1632     1.0  0.61499  0.71488  0.37862  1.0000
  P   P52       1.0  0.59676  0.72257  0.39339  1.0000
  H   H1310     1.0  0.62389  0.61141  0.07783  1.0000
  C   C1633     1.0  0.55856  0.71235  0.37756  1.0000
  C   C1634     1.0  0.58680  0.70997  0.42955  1.0000
  S   S228      1.0  0.61060  0.53488  0.23348  1.0000
  C   C1635     1.0  0.58209  0.57235  0.43793  1.0000
  C   C1636     1.0  0.59033  0.69390  0.43981  1.0000
  H   H1311     1.0  0.53024  0.54231  0.31805  1.0000
  H   H1312     1.0  0.63457  0.64309  0.48771  1.0000
  C   C1637     1.0  0.48876  0.52296  0.36329  1.0000
  S   S229      1.0  0.56769  0.62494  0.47592  1.0000
  H   H1313     1.0  0.61884  0.67961  0.34223  1.0000
  H   H1314     1.0  0.59419  0.68994  0.36360  1.0000
  H   H1315     1.0  0.63399  0.51107  0.20218  1.0000
  H   H1316     1.0  0.64002  0.62028  0.02690  1.0000
  H   H1317     1.0  0.59805  0.68807  0.42579  1.0000
  C   C1638     1.0  0.62876  0.71339  0.10955  1.0000
  H   H1318     1.0  0.58253  0.69330  0.14136  1.0000
  Fe  Fe115     1.0  0.47617  0.50385  0.25101  1.0000
  C   C1639     1.0  0.57121  0.55646  0.42493  1.0000
  H   H1319     1.0  0.59617  0.54704  0.17950  1.0000
  C   C1640     1.0  0.55394  0.50474  0.22274  1.0000
  H   H1320     1.0  0.59766  0.67580  0.17319  1.0000
  H   H1321     1.0  0.51722  0.62524  0.42793  1.0000
  S   S230      1.0  0.63354  0.57110  0.99969  1.0000
  H   H1322     1.0  0.54036  0.56140  0.35904  1.0000
  C   C1641     1.0  0.59778  0.69599  0.13712  1.0000
  C   C1642     1.0  0.47410  0.54775  0.47601  1.0000
  C   C1643     1.0  0.57820  0.71857  0.36754  1.0000
  C   C1644     1.0  0.51033  0.54484  0.47126  1.0000
  C   C1645     1.0  0.58447  0.53530  0.19160  1.0000
  H   H1323     1.0  0.56867  0.56101  0.05590  1.0000
  H   H1324     1.0  0.61435  0.74341  0.44240  1.0000
  H   H1325     1.0  0.58421  0.58468  0.08965  1.0000
  C   C1646     1.0  0.63110  0.67536  0.43419  1.0000
  H   H1326     1.0  0.55887  0.58546  0.28977  1.0000
  H   H1327     1.0  0.64061  0.61778  0.37376  1.0000
  C   C1647     1.0  0.50991  0.74068  0.05975  1.0000
  C   C1648     1.0  0.49423  0.53408  0.38641  1.0000
  C   C1649     1.0  0.63615  0.50393  0.04458  1.0000
  C   C1650     1.0  0.61301  0.52514  0.03724  1.0000
  C   C1651     1.0  0.60635  0.68612  0.15519  1.0000
  H   H1328     1.0  0.54403  0.59972  0.32416  1.0000
  C   C1652     1.0  0.55665  0.59689  0.33015  1.0000
  C   C1653     1.0  0.55249  0.55390  0.41730  1.0000
  C   C1654     1.0  0.54700  0.53075  0.27154  1.0000
  C   C1655     1.0  0.52038  0.53966  0.33749  1.0000
  H   H1329     1.0  0.64499  0.55145  0.30247  1.0000
  C   C1656     1.0  0.65275  0.63385  0.23495  1.0000
  H   H1330     1.0  0.62607  0.66819  0.22331  1.0000
  H   H1331     1.0  0.62536  0.53216  0.99218  1.0000
  C   C1657     1.0  0.62467  0.75067  0.20556  1.0000
  H   H1332     1.0  0.51938  0.59491  0.44493  1.0000
  C   C1658     1.0  0.58688  0.57178  0.09070  1.0000
  C   C1659     1.0  0.58766  0.52698  0.21854  1.0000
  H   H1333     1.0  0.58612  0.67235  0.47592  1.0000
  H   H1334     1.0  0.55827  0.60822  0.37179  1.0000
  H   H1335     1.0  0.58800  0.60278  0.38392  1.0000
  H   H1336     1.0  0.49753  0.51741  0.32066  1.0000
  H   H1337     1.0  0.61200  0.54959  0.12857  1.0000
  H   H1338     1.0  0.53654  0.52769  0.25497  1.0000
  H   H1339     1.0  0.56387  0.53481  0.15934  1.0000
  H   H1340     1.0  0.58254  0.59794  0.45373  1.0000
  C   C1660     1.0  0.60249  0.55178  0.11260  1.0000
  C   C1661     1.0  0.64401  0.69176  0.44391  1.0000
  H   H1341     1.0  0.57718  0.54597  0.42117  1.0000
  C   C1662     1.0  0.50435  0.55366  0.44729  1.0000
  P   P53       1.0  0.51994  0.56353  0.41366  1.0000
  C   C1663     1.0  0.51773  0.58560  0.40129  1.0000
  C   C1664     1.0  0.51800  0.59823  0.42167  1.0000
  C   C1665     1.0  0.51668  0.61545  0.41218  1.0000
  C   C1666     1.0  0.51512  0.62027  0.38231  1.0000
  C   C1667     1.0  0.51418  0.60757  0.36204  1.0000
  C   C1668     1.0  0.51519  0.59019  0.37151  1.0000
  C   C1669     1.0  0.60877  0.51380  0.12969  1.0000
  C   C1670     1.0  0.55570  0.58338  0.43509  1.0000
  H   H1342     1.0  0.63232  0.68192  0.16466  1.0000
  C   C1671     1.0  0.64839  0.64211  0.25899  1.0000
  C   C1672     1.0  0.57282  0.69156  0.48685  1.0000
  H   H1343     1.0  0.51476  0.63392  0.37485  1.0000
  H   H1344     1.0  0.51284  0.61131  0.33889  1.0000
  H   H1345     1.0  0.51423  0.58058  0.35533  1.0000
  H   H1346     1.0  0.48374  0.53196  0.40476  1.0000
  H   H1347     1.0  0.54412  0.54117  0.40816  1.0000
  C   C1673     1.0  0.56143  0.54870  0.27004  1.0000
  H   H1348     1.0  0.58428  0.54190  0.33090  1.0000
  C   C1674     1.0  0.54435  0.70882  0.35731  1.0000
  C   C1675     1.0  0.57809  0.55841  0.07174  1.0000
  C   C1676     1.0  0.49456  0.74506  0.07065  1.0000
  C   C1677     1.0  0.62769  0.65783  0.44994  1.0000
  C   C1678     1.0  0.53422  0.51730  0.04297  1.0000
  H   H1349     1.0  0.55914  0.50994  0.33262  1.0000
  C   C1679     1.0  0.56531  0.58912  0.31033  1.0000
  C   C1680     1.0  0.60724  0.74743  0.39715  1.0000
  C   C1681     1.0  0.62609  0.68978  0.15042  1.0000
  H   H1350     1.0  0.61714  0.64519  0.44306  1.0000
  C   C1682     1.0  0.55974  0.52081  0.31527  1.0000
  H   H1351     1.0  0.55404  0.70966  0.40091  1.0000
  C   C1683     1.0  0.54625  0.51674  0.29396  1.0000
  H   H1352     1.0  0.52435  0.54370  0.47001  1.0000
  C   C1684     1.0  0.54450  0.50847  0.99733  1.0000
  C   C1685     1.0  0.62203  0.56190  0.29861  1.0000
  C   C1686     1.0  0.61677  0.57754  0.29936  1.0000
  C   C1687     1.0  0.63087  0.59489  0.30420  1.0000
  P   P54       1.0  0.59305  0.57640  0.29029  1.0000
  C   C1688     1.0  0.59617  0.58859  0.25349  1.0000
  C   C1689     1.0  0.57535  0.55280  0.29095  1.0000
  C   C1690     1.0  0.59907  0.56846  0.11111  1.0000
  C   C1691     1.0  0.59471  0.60622  0.24845  1.0000
  C   C1692     1.0  0.59621  0.61483  0.21953  1.0000
  C   C1693     1.0  0.59971  0.60624  0.19558  1.0000
  C   C1694     1.0  0.60158  0.58889  0.20050  1.0000
  C   C1695     1.0  0.59994  0.58016  0.22934  1.0000
  C   C1696     1.0  0.58242  0.58651  0.31655  1.0000
  C   C1697     1.0  0.59031  0.59099  0.34362  1.0000
  C   C1698     1.0  0.58161  0.59882  0.36346  1.0000
  C   C1699     1.0  0.56480  0.60181  0.35672  1.0000
  C   C1700     1.0  0.57614  0.71672  0.44831  1.0000
  H   H1353     1.0  0.57315  0.71925  0.29325  1.0000
  H   H1354     1.0  0.61196  0.54877  0.29254  1.0000
  H   H1355     1.0  0.62739  0.60736  0.30306  1.0000
  H   H1356     1.0  0.60312  0.58851  0.34945  1.0000
  H   H1357     1.0  0.59225  0.61335  0.26657  1.0000
  H   H1358     1.0  0.59470  0.62822  0.21565  1.0000
  H   H1359     1.0  0.60121  0.61316  0.17329  1.0000
  H   H1360     1.0  0.60427  0.58220  0.18201  1.0000
  H   H1361     1.0  0.60135  0.56671  0.23285  1.0000
  C   C1701     1.0  0.59365  0.53823  0.09374  1.0000
  C   C1702     1.0  0.57232  0.51163  0.23394  1.0000
  H   H1362     1.0  0.55511  0.53672  0.01009  1.0000
  C   C1703     1.0  0.64296  0.70273  0.35494  1.0000
  H   H1363     1.0  0.53856  0.70806  0.31137  1.0000
  H   H1364     1.0  0.48000  0.73443  0.07350  1.0000
  C   C1704     1.0  0.54463  0.56748  0.42194  1.0000
  H   H1365     1.0  0.57434  0.53130  0.05886  1.0000
  C   C1705     1.0  0.58138  0.54166  0.07336  1.0000
  C   C1706     1.0  0.54962  0.71138  0.32696  1.0000
  H   H1366     1.0  0.65244  0.67157  0.09931  1.0000
  H   H1367     1.0  0.57335  0.72919  0.44101  1.0000
  H   H1368     1.0  0.48115  0.56159  0.43148  1.0000
  C   C1707     1.0  0.64605  0.56954  0.03154  1.0000
  C   C1708     1.0  0.63475  0.72516  0.38076  1.0000
  C   C1709     1.0  0.56912  0.71767  0.31677  1.0000
  H   H1369     1.0  0.47419  0.51253  0.36377  1.0000
  H   H1370     1.0  0.46014  0.54903  0.47792  1.0000
  C   C1710     1.0  0.63747  0.70355  0.12770  1.0000
  C   C1711     1.0  0.61263  0.51540  0.06504  1.0000
  C   C1712     1.0  0.62705  0.51148  0.18179  1.0000
  H   H1371     1.0  0.63732  0.72410  0.09190  1.0000
  H   H1372     1.0  0.64497  0.57719  0.10404  1.0000
  C   C1713     1.0  0.63951  0.61650  0.07447  1.0000
  H   H1373     1.0  0.59837  0.72583  0.32857  1.0000
  H   H1374     1.0  0.65262  0.63898  0.28067  1.0000
  H   H1375     1.0  0.55968  0.50981  0.12645  1.0000
  H   H1376     1.0  0.57465  0.50505  0.25472  1.0000
  S   S231      1.0  0.47700  0.50362  0.20160  1.0000
  C   C1714     1.0  0.59787  0.50332  0.15571  1.0000
  H   H1377     1.0  0.63939  0.73789  0.39136  1.0000
  S   S232      1.0  0.65168  0.58515  0.23419  1.0000
  C   C1715     1.0  0.64961  0.57326  0.08392  1.0000
  H   H1378     1.0  0.64351  0.61348  0.12097  1.0000
  C   C1716     1.0  0.63672  0.51400  0.01716  1.0000
  H   H1379     1.0  0.64640  0.51397  0.99884  1.0000
  S   S233      1.0  0.52813  0.50378  0.18008  1.0000
  C   C1717     1.0  0.61158  0.75024  0.15785  1.0000
  C   C1718     1.0  0.64860  0.62156  0.04582  1.0000
  S   S234      1.0  0.62014  0.53085  0.86712  1.0000
  Fe  Fe116     1.0  0.56725  0.62126  0.58863  1.0000
  S   S235      1.0  0.58256  0.61410  0.55116  1.0000
  S   S236      1.0  0.54909  0.60204  0.62941  1.0000
  Fe  Fe117     1.0  0.58424  0.66363  0.56555  1.0000
  S   S237      1.0  0.60103  0.65965  0.52652  1.0000
  S   S238      1.0  0.58494  0.69114  0.58114  1.0000
  Fe  Fe118     1.0  0.57424  0.63453  0.52141  1.0000
  Fe  Fe119     1.0  0.60821  0.63957  0.55816  1.0000
  S   S239      1.0  0.63788  0.63874  0.55184  1.0000
  S   S240      1.0  0.55650  0.63974  0.55841  1.0000
  S   S241      1.0  0.59385  0.64551  0.59792  1.0000
  C   C1719     1.0  0.56274  0.54785  0.92783  1.0000
  H   H1380     1.0  0.65070  0.73660  0.50460  1.0000
  C   C1720     1.0  0.43243  0.54807  0.72430  1.0000
  H   H1381     1.0  0.62864  0.64253  0.66909  1.0000
  C   C1721     1.0  0.62702  0.72092  0.64273  1.0000
  C   C1722     1.0  0.60678  0.74838  0.56523  1.0000
  S   S242      1.0  0.52669  0.51414  0.66821  1.0000
  H   H1382     1.0  0.59147  0.59377  0.93015  1.0000
  H   H1383     1.0  0.60323  0.57927  0.97215  1.0000
  C   C1723     1.0  0.54331  0.57762  0.63973  1.0000
  C   C1724     1.0  0.54848  0.56644  0.62139  1.0000
  C   C1725     1.0  0.54345  0.54710  0.63059  1.0000
  C   C1726     1.0  0.53345  0.53876  0.65834  1.0000
  C   C1727     1.0  0.52861  0.55003  0.67691  1.0000
  C   C1728     1.0  0.53330  0.56927  0.66746  1.0000
  H   H1384     1.0  0.55618  0.57264  0.60001  1.0000
  H   H1385     1.0  0.54730  0.53853  0.61606  1.0000
  H   H1386     1.0  0.52090  0.54384  0.69829  1.0000
  H   H1387     1.0  0.52910  0.57775  0.68167  1.0000
  C   C1729     1.0  0.48029  0.53928  0.49994  1.0000
  C   C1730     1.0  0.62993  0.60605  0.66266  1.0000
  C   C1731     1.0  0.41517  0.50665  0.73800  1.0000
  S   S243      1.0  0.53707  0.51247  0.81481  1.0000
  H   H1388     1.0  0.63298  0.64967  0.60928  1.0000
  C   C1732     1.0  0.59675  0.71445  0.56322  1.0000
  C   C1733     1.0  0.59844  0.72969  0.57906  1.0000
  H   H1389     1.0  0.60273  0.70661  0.52113  1.0000
  H   H1390     1.0  0.59292  0.72699  0.60202  1.0000
  C   C1734     1.0  0.59720  0.52646  0.85224  1.0000
  C   C1735     1.0  0.64811  0.65600  0.60163  1.0000
  H   H1391     1.0  0.40962  0.50573  0.78533  1.0000
  C   C1736     1.0  0.56069  0.51808  0.82777  1.0000
  C   C1737     1.0  0.56681  0.53126  0.84830  1.0000
  C   C1738     1.0  0.58493  0.53548  0.86038  1.0000
  H   H1392     1.0  0.61559  0.73926  0.49593  1.0000
  H   H1393     1.0  0.60179  0.69664  0.63680  1.0000
  H   H1394     1.0  0.55167  0.53942  0.91482  1.0000
  H   H1395     1.0  0.58932  0.54560  0.87615  1.0000
  C   C1739     1.0  0.62712  0.65076  0.75167  1.0000
  H   H1396     1.0  0.62339  0.69395  0.57235  1.0000
  C   C1740     1.0  0.46458  0.53216  0.82433  1.0000
  C   C1741     1.0  0.61285  0.75197  0.53506  1.0000
  C   C1742     1.0  0.53607  0.55394  0.76751  1.0000
  C   C1743     1.0  0.61123  0.73673  0.51929  1.0000
  H   H1397     1.0  0.57126  0.59671  0.71508  1.0000
  H   H1398     1.0  0.63094  0.59472  0.70725  1.0000
  C   C1744     1.0  0.61821  0.60666  0.63966  1.0000
  H   H1399     1.0  0.46780  0.51563  0.75888  1.0000
  C   C1745     1.0  0.54336  0.50315  0.93461  1.0000
  H   H1400     1.0  0.61882  0.55175  0.73315  1.0000
  H   H1401     1.0  0.46730  0.55478  0.69079  1.0000
  H   H1402     1.0  0.45912  0.56706  0.73913  1.0000
  C   C1746     1.0  0.45488  0.50732  0.70380  1.0000
  H   H1403     1.0  0.49128  0.52000  0.64910  1.0000
  C   C1747     1.0  0.57859  0.50610  0.96490  1.0000
  H   H1404     1.0  0.45244  0.59564  0.72500  1.0000
  H   H1405     1.0  0.62685  0.61875  0.79024  1.0000
  H   H1406     1.0  0.55735  0.53811  0.85514  1.0000
  C   C1748     1.0  0.57073  0.56735  0.92008  1.0000
  H   H1407     1.0  0.47072  0.53300  0.84556  1.0000
  C   C1749     1.0  0.56930  0.53953  0.95172  1.0000
  C   C1750     1.0  0.46290  0.52247  0.77520  1.0000
  P   P55       1.0  0.59090  0.57030  0.72841  1.0000
  C   C1751     1.0  0.42498  0.58068  0.70833  1.0000
  H   H1408     1.0  0.58913  0.59687  0.62594  1.0000
  H   H1409     1.0  0.44485  0.54529  0.83605  1.0000
  C   C1752     1.0  0.58998  0.58571  0.67087  1.0000
  C   C1753     1.0  0.60533  0.52495  0.71740  1.0000
  Fe  Fe120     1.0  0.64618  0.57070  0.95370  1.0000
  C   C1754     1.0  0.57342  0.51825  0.70030  1.0000
  C   C1755     1.0  0.63846  0.69913  0.56417  1.0000
  C   C1756     1.0  0.57379  0.53547  0.70797  1.0000
  C   C1757     1.0  0.61581  0.70167  0.64584  1.0000
  C   C1758     1.0  0.44205  0.58201  0.72126  1.0000
  H   H1410     1.0  0.64885  0.70101  0.60755  1.0000
  C   C1759     1.0  0.60590  0.54235  0.72460  1.0000
  C   C1760     1.0  0.60662  0.56558  0.78212  1.0000
  S   S244      1.0  0.63017  0.57502  0.91423  1.0000
  H   H1411     1.0  0.61430  0.67395  0.66144  1.0000
  Fe  Fe121     1.0  0.63879  0.55338  0.89484  1.0000
  H   H1412     1.0  0.63194  0.59633  0.82853  1.0000
  H   H1413     1.0  0.58990  0.54489  0.98533  1.0000
  C   C1761     1.0  0.54321  0.58406  0.73862  1.0000
  C   C1762     1.0  0.62287  0.68887  0.65982  1.0000
  H   H1414     1.0  0.51619  0.56818  0.76445  1.0000
  C   C1763     1.0  0.62425  0.59132  0.80936  1.0000
  H   H1415     1.0  0.61754  0.52086  0.72098  1.0000
  H   H1416     1.0  0.51875  0.50841  0.95239  1.0000
  H   H1417     1.0  0.60001  0.55054  0.78135  1.0000
  P   P56       1.0  0.43745  0.52722  0.73457  1.0000
  C   C1764     1.0  0.56153  0.58459  0.72946  1.0000
  C   C1765     1.0  0.45426  0.52502  0.70688  1.0000
  C   C1766     1.0  0.57310  0.50930  0.81927  1.0000
  S   S245      1.0  0.65271  0.54725  0.93597  1.0000
  C   C1767     1.0  0.48080  0.52137  0.66492  1.0000
  C   C1768     1.0  0.60155  0.58538  0.69434  1.0000
  C   C1769     1.0  0.59114  0.51339  0.83157  1.0000
  H   H1418     1.0  0.62012  0.51034  0.92561  1.0000
  H   H1419     1.0  0.53887  0.59551  0.73080  1.0000
  H   H1420     1.0  0.62159  0.73063  0.63105  1.0000
  H   H1421     1.0  0.56581  0.57365  0.90138  1.0000
  C   C1770     1.0  0.62151  0.60398  0.78768  1.0000
  C   C1771     1.0  0.61195  0.59759  0.76271  1.0000
  C   C1772     1.0  0.62165  0.59543  0.68993  1.0000
  C   C1773     1.0  0.58516  0.57867  0.93626  1.0000
  H   H1422     1.0  0.55845  0.54281  0.76636  1.0000
  C   C1774     1.0  0.61025  0.64604  0.73663  1.0000
  C   C1775     1.0  0.41531  0.54685  0.71128  1.0000
  C   C1776     1.0  0.44577  0.56578  0.72926  1.0000
  C   C1777     1.0  0.56704  0.56953  0.73876  1.0000
  H   H1423     1.0  0.61865  0.56230  0.82367  1.0000
  H   H1424     1.0  0.39837  0.56208  0.69337  1.0000
  H   H1425     1.0  0.59672  0.64479  0.74801  1.0000
  C   C1778     1.0  0.44999  0.53906  0.81895  1.0000
  H   H1426     1.0  0.64545  0.61370  0.65912  1.0000
  C   C1779     1.0  0.55429  0.55434  0.75821  1.0000
  C   C1780     1.0  0.59824  0.59655  0.64384  1.0000
  H   H1427     1.0  0.42211  0.59326  0.70212  1.0000
  C   C1781     1.0  0.46718  0.54091  0.68878  1.0000
  H   H1428     1.0  0.49055  0.55137  0.65429  1.0000
  C   C1782     1.0  0.60481  0.57838  0.75939  1.0000
  C   C1783     1.0  0.59179  0.57049  0.95996  1.0000
  H   H1429     1.0  0.62629  0.65308  0.77461  1.0000
  H   H1430     1.0  0.43031  0.54274  0.78807  1.0000
  H   H1431     1.0  0.59766  0.63907  0.69538  1.0000
  C   C1784     1.0  0.61680  0.57213  0.80656  1.0000
  P   P57       1.0  0.55896  0.51441  0.96231  1.0000
  C   C1785     1.0  0.53043  0.56868  0.75749  1.0000
  H   H1432     1.0  0.60985  0.60758  0.74619  1.0000
  H   H1433     1.0  0.63231  0.69877  0.51860  1.0000
  C   C1786     1.0  0.48038  0.53906  0.66790  1.0000
  H   H1434     1.0  0.57459  0.57738  0.67329  1.0000
  C   C1787     1.0  0.58992  0.54753  0.72062  1.0000
  C   C1788     1.0  0.44182  0.53762  0.79171  1.0000
  H   H1435     1.0  0.52636  0.54215  0.78259  1.0000
  C   C1789     1.0  0.47100  0.52386  0.80246  1.0000
  C   C1790     1.0  0.44823  0.52931  0.76959  1.0000
  H   H1436     1.0  0.40476  0.53342  0.70721  1.0000
  H   H1437     1.0  0.56096  0.50910  0.69034  1.0000
  C   C1791     1.0  0.64119  0.69535  0.67069  1.0000
  H   H1438     1.0  0.64594  0.64273  0.81590  1.0000
  H   H1439     1.0  0.56155  0.53941  0.70362  1.0000
  C   C1792     1.0  0.61076  0.64284  0.70701  1.0000
  C   C1793     1.0  0.62822  0.64471  0.69222  1.0000
  H   H1440     1.0  0.50325  0.53140  0.51619  1.0000
  H   H1441     1.0  0.48200  0.51811  0.80677  1.0000
  C   C1794     1.0  0.41162  0.56311  0.70337  1.0000
  C   C1795     1.0  0.60370  0.71813  0.53345  1.0000
  H   H1442     1.0  0.59463  0.52333  0.92487  1.0000
  H   H1443     1.0  0.62390  0.74349  0.68601  1.0000
  H   H1444     1.0  0.64693  0.68545  0.68076  1.0000
  C   C1796     1.0  0.58906  0.51288  0.70533  1.0000
  C   C1797     1.0  0.59404  0.51280  0.94286  1.0000
  C   C1798     1.0  0.58418  0.55098  0.96736  1.0000
  C   C1799     1.0  0.64527  0.72755  0.65405  1.0000
  S   S246      1.0  0.50350  0.50863  0.75160  1.0000
  C   C1800     1.0  0.64358  0.70177  0.53379  1.0000
  C   C1801     1.0  0.60856  0.50545  0.94320  1.0000
  H   H1445     1.0  0.47116  0.53404  0.52046  1.0000
  H   H1446     1.0  0.64367  0.65789  0.86007  1.0000
  C   C1802     1.0  0.64468  0.65227  0.73715  1.0000
  H   H1447     1.0  0.62459  0.61472  0.61840  1.0000
  C   C1803     1.0  0.49836  0.53777  0.49752  1.0000
  H   H1448     1.0  0.60045  0.50630  0.82504  1.0000
  C   C1804     1.0  0.64514  0.64949  0.70711  1.0000
  H   H1449     1.0  0.56753  0.68447  0.50904  1.0000
  C   C1805     1.0  0.46804  0.50552  0.68282  1.0000
  H   H1450     1.0  0.41585  0.50337  0.69132  1.0000
  C   C1806     1.0  0.65203  0.66635  0.84017  1.0000
  H   H1451     1.0  0.56127  0.71294  0.49143  1.0000
  C   C1807     1.0  0.65246  0.71460  0.66760  1.0000
  C   C1808     1.0  0.65278  0.70309  0.58407  1.0000
  C   C1809     1.0  0.52433  0.50268  0.93505  1.0000
  H   H1452     1.0  0.33038  0.94109  0.35611  1.0000
  H   H1453     1.0  0.36216  0.96730  0.33803  1.0000
  H   H1454     1.0  0.61528  0.79037  0.35932  1.0000
  Fe  Fe122     1.0  0.48570  0.97490  0.27015  1.0000
  C   C1810     1.0  0.60792  0.94523  0.15171  1.0000
  S   S247      1.0  0.45429  0.96186  0.28973  1.0000
  Fe  Fe123     1.0  0.52173  0.97668  0.23294  1.0000
  S   S248      1.0  0.53878  0.96235  0.20897  1.0000
  H   H1455     1.0  0.50057  0.96262  0.47166  1.0000
  S   S249      1.0  0.51034  0.96576  0.28044  1.0000
  C   C1811     1.0  0.45419  0.96454  0.36871  1.0000
  H   H1456     1.0  0.62694  0.89222  0.12210  1.0000
  Fe  Fe124     1.0  0.34621  0.89676  0.26855  1.0000
  S   S250      1.0  0.33711  0.90804  0.30768  1.0000
  S   S251      1.0  0.37679  0.89757  0.25937  1.0000
  H   H1457     1.0  0.64589  0.97928  0.29719  1.0000
  H   H1458     1.0  0.41682  0.96225  0.27770  1.0000
  H   H1459     1.0  0.64863  0.89673  0.07751  1.0000
  H   H1460     1.0  0.37656  0.93676  0.31864  1.0000
  C   C1812     1.0  0.62052  0.89186  0.22936  1.0000
  C   C1813     1.0  0.59678  0.79249  0.99313  1.0000
  H   H1461     1.0  0.41105  0.99084  0.17974  1.0000
  H   H1462     1.0  0.62022  0.93258  0.18548  1.0000
  S   S252      1.0  0.62962  0.83319  0.03627  1.0000
  Fe  Fe125     1.0  0.58429  0.90729  0.05672  1.0000
  C   C1814     1.0  0.57007  0.98579  0.06384  1.0000
  S   S253      1.0  0.59187  0.88648  0.08712  1.0000
  Fe  Fe126     1.0  0.55875  0.93054  0.05661  1.0000
  S   S254      1.0  0.57164  0.94568  0.01145  1.0000
  S   S255      1.0  0.53497  0.93757  0.07921  1.0000
  C   C1815     1.0  0.64269  0.87975  0.15058  1.0000
  C   C1816     1.0  0.33253  0.87474  0.38631  1.0000
  Fe  Fe127     1.0  0.60006  0.94751  0.02826  1.0000
  S   S256      1.0  0.62655  0.97406  0.01724  1.0000
  S   S257      1.0  0.55431  0.90207  0.04279  1.0000
  S   S258      1.0  0.58743  0.93443  0.07421  1.0000
  C   C1817     1.0  0.60337  0.87254  0.07268  1.0000
  C   C1818     1.0  0.60853  0.87426  0.04247  1.0000
  C   C1819     1.0  0.61696  0.86237  0.03160  1.0000
  C   C1820     1.0  0.62095  0.84922  0.05091  1.0000
  C   C1821     1.0  0.61665  0.84817  0.08130  1.0000
  C   C1822     1.0  0.60731  0.85934  0.09201  1.0000
  H   H1463     1.0  0.60563  0.88443  0.02740  1.0000
  C   C1823     1.0  0.60546  0.97841  0.25477  1.0000
  H   H1464     1.0  0.61988  0.83830  0.09647  1.0000
  H   H1465     1.0  0.60324  0.85784  0.11538  1.0000
  C   C1824     1.0  0.33554  0.87641  0.43934  1.0000
  C   C1825     1.0  0.59762  0.79628  0.11926  1.0000
  C   C1826     1.0  0.55591  0.81312  0.05913  1.0000
  H   H1466     1.0  0.59386  0.98560  0.03575  1.0000
  C   C1827     1.0  0.34382  0.87708  0.41081  1.0000
  H   H1467     1.0  0.54938  0.81541  0.01327  1.0000
  C   C1828     1.0  0.35569  0.99528  0.24384  1.0000
  H   H1468     1.0  0.35908  0.87974  0.40757  1.0000
  H   H1469     1.0  0.33908  0.87546  0.36439  1.0000
  H   H1470     1.0  0.62378  0.83962  0.15548  1.0000
  H   H1471     1.0  0.59764  0.96129  0.12067  1.0000
  H   H1472     1.0  0.42674  0.99143  0.08314  1.0000
  C   C1829     1.0  0.33740  0.96267  0.26328  1.0000
  C   C1830     1.0  0.35315  0.95808  0.25495  1.0000
  C   C1831     1.0  0.37003  0.97198  0.24078  1.0000
  H   H1473     1.0  0.59686  0.77830  0.15885  1.0000
  C   C1832     1.0  0.53228  0.77253  0.06355  1.0000
  H   H1474     1.0  0.35235  0.94381  0.25935  1.0000
  H   H1475     1.0  0.38217  0.96834  0.23430  1.0000
  C   C1833     1.0  0.53773  0.95620  0.17244  1.0000
  C   C1834     1.0  0.52361  0.95768  0.15417  1.0000
  C   C1835     1.0  0.52282  0.95173  0.12580  1.0000
  C   C1836     1.0  0.53638  0.94468  0.11518  1.0000
  C   C1837     1.0  0.55073  0.94356  0.13327  1.0000
  C   C1838     1.0  0.55131  0.94919  0.16182  1.0000
  H   H1476     1.0  0.51323  0.96324  0.16198  1.0000
  H   H1477     1.0  0.51178  0.95278  0.11187  1.0000
  H   H1478     1.0  0.56120  0.93814  0.12539  1.0000
  H   H1479     1.0  0.56229  0.94801  0.17580  1.0000
  C   C1839     1.0  0.43370  0.94491  0.27666  1.0000
  C   C1840     1.0  0.43321  0.92706  0.27235  1.0000
  C   C1841     1.0  0.41569  0.91280  0.26698  1.0000
  C   C1842     1.0  0.39849  0.91620  0.26567  1.0000
  C   C1843     1.0  0.39912  0.93426  0.26878  1.0000
  C   C1844     1.0  0.41659  0.94847  0.27460  1.0000
  H   H1480     1.0  0.44615  0.92402  0.27447  1.0000
  H   H1481     1.0  0.41533  0.89888  0.26457  1.0000
  H   H1482     1.0  0.38613  0.93725  0.26691  1.0000
  C   C1845     1.0  0.63114  0.96517  0.46635  1.0000
  S   S259      1.0  0.59919  0.92069  0.01192  1.0000
  C   C1846     1.0  0.62117  0.97661  0.47326  1.0000
  H   H1483     1.0  0.62298  0.92526  0.44407  1.0000
  C   C1847     1.0  0.34045  0.95644  0.39360  1.0000
  H   H1484     1.0  0.38871  0.91520  0.40269  1.0000
  C   C1848     1.0  0.62397  0.84994  0.19814  1.0000
  H   H1485     1.0  0.50344  0.98106  0.35862  1.0000
  C   C1849     1.0  0.49800  0.76312  0.07808  1.0000
  H   H1486     1.0  0.32651  0.98484  0.26439  1.0000
  H   H1487     1.0  0.35205  0.91332  0.42386  1.0000
  H   H1488     1.0  0.61658  0.90635  0.26570  1.0000
  C   C1850     1.0  0.62695  0.90464  0.25009  1.0000
  Fe  Fe128     1.0  0.56959  0.91762  0.99884  1.0000
  H   H1489     1.0  0.57227  0.99636  0.22457  1.0000
  C   C1851     1.0  0.37130  0.99054  0.23519  1.0000
  H   H1490     1.0  0.61172  0.80661  0.12235  1.0000
  C   C1852     1.0  0.48070  0.93091  0.20879  1.0000
  C   C1853     1.0  0.47069  0.91314  0.22435  1.0000
  C   C1854     1.0  0.45078  0.90412  0.22238  1.0000
  C   C1855     1.0  0.44080  0.91291  0.20501  1.0000
  C   C1856     1.0  0.45076  0.93079  0.18935  1.0000
  C   C1857     1.0  0.47079  0.93969  0.19130  1.0000
  P   P58       1.0  0.43827  0.94246  0.16669  1.0000
  C   C1858     1.0  0.43626  0.96196  0.18372  1.0000
  C   C1859     1.0  0.45127  0.95012  0.13046  1.0000
  C   C1860     1.0  0.44948  0.96491  0.11191  1.0000
  C   C1861     1.0  0.45869  0.96999  0.08329  1.0000
  C   C1862     1.0  0.47009  0.96063  0.07318  1.0000
  C   C1863     1.0  0.47205  0.94596  0.09151  1.0000
  C   C1864     1.0  0.46255  0.94059  0.11990  1.0000
  C   C1865     1.0  0.44663  0.96844  0.20810  1.0000
  C   C1866     1.0  0.63633  0.93012  0.42994  1.0000
  H   H1491     1.0  0.60515  0.88371  0.22938  1.0000
  H   H1492     1.0  0.63613  0.96225  0.20732  1.0000
  C   C1867     1.0  0.42331  0.97011  0.17367  1.0000
  C   C1868     1.0  0.41396  0.92638  0.16259  1.0000
  C   C1869     1.0  0.40966  0.91659  0.13770  1.0000
  C   C1870     1.0  0.39071  0.90428  0.13477  1.0000
  C   C1871     1.0  0.37599  0.90162  0.15668  1.0000
  C   C1872     1.0  0.38021  0.91123  0.18154  1.0000
  C   C1873     1.0  0.39911  0.92351  0.18457  1.0000
  H   H1493     1.0  0.49614  0.93795  0.21041  1.0000
  H   H1494     1.0  0.47837  0.90644  0.23811  1.0000
  H   H1495     1.0  0.44295  0.89045  0.23478  1.0000
  H   H1496     1.0  0.42531  0.90582  0.20433  1.0000
  H   H1497     1.0  0.47870  0.95350  0.17942  1.0000
  H   H1498     1.0  0.44097  0.97253  0.11936  1.0000
  H   H1499     1.0  0.56512  0.75405  0.15110  1.0000
  H   H1500     1.0  0.47738  0.96468  0.05112  1.0000
  H   H1501     1.0  0.48089  0.93866  0.08367  1.0000
  H   H1502     1.0  0.46396  0.92889  0.13341  1.0000
  H   H1503     1.0  0.45574  0.96172  0.21768  1.0000
  H   H1504     1.0  0.62208  0.82398  0.26407  1.0000
  C   C1874     1.0  0.63947  0.88847  0.12394  1.0000
  C   C1875     1.0  0.61504  0.78005  0.37738  1.0000
  H   H1505     1.0  0.41442  0.96482  0.15585  1.0000
  H   H1506     1.0  0.42087  0.91835  0.12060  1.0000
  H   H1507     1.0  0.38743  0.89673  0.11558  1.0000
  H   H1508     1.0  0.36131  0.89202  0.15461  1.0000
  H   H1509     1.0  0.36888  0.90899  0.19880  1.0000
  H   H1510     1.0  0.40211  0.93063  0.20423  1.0000
  H   H1511     1.0  0.39089  0.97179  0.40655  1.0000
  H   H1512     1.0  0.55964  0.98148  0.04744  1.0000
  H   H1513     1.0  0.41643  0.89567  0.46627  1.0000
  C   C1876     1.0  0.56987  0.97302  0.28411  1.0000
  C   C1877     1.0  0.39157  0.92680  0.38539  1.0000
  C   C1878     1.0  0.36459  0.98200  0.33298  1.0000
  C   C1879     1.0  0.38468  0.93895  0.33805  1.0000
  C   C1880     1.0  0.39876  0.95664  0.34067  1.0000
  C   C1881     1.0  0.40933  0.95956  0.36575  1.0000
  C   C1882     1.0  0.40541  0.94457  0.38835  1.0000
  P   P59       1.0  0.42747  0.98237  0.36975  1.0000
  H   H1514     1.0  0.61193  0.75681  0.13565  1.0000
  S   S260      1.0  0.33037  0.90844  0.23600  1.0000
  C   C1883     1.0  0.33687  0.99170  0.40723  1.0000
  C   C1884     1.0  0.48719  0.96508  0.47142  1.0000
  C   C1885     1.0  0.33645  0.94102  0.37738  1.0000
  C   C1886     1.0  0.64062  0.98113  0.31865  1.0000
  C   C1887     1.0  0.64672  0.91508  0.25084  1.0000
  C   C1888     1.0  0.62322  0.84528  0.22886  1.0000
  C   C1889     1.0  0.56969  0.78548  0.09025  1.0000
  H   H1515     1.0  0.55044  0.86958  0.15446  1.0000
  C   C1890     1.0  0.59099  0.99827  0.18636  1.0000
  C   C1891     1.0  0.63139  0.99383  0.32131  1.0000
  C   C1892     1.0  0.55097  0.83987  0.03316  1.0000
  H   H1516     1.0  0.55744  0.95135  0.25617  1.0000
  C   C1893     1.0  0.48901  0.98120  0.36192  1.0000
  H   H1517     1.0  0.40143  0.96787  0.32294  1.0000
  H   H1518     1.0  0.41322  0.94657  0.40810  1.0000
  S   S261      1.0  0.64181  0.79044  0.07645  1.0000
  H   H1519     1.0  0.55605  0.97096  0.29542  1.0000
  C   C1894     1.0  0.61435  0.75345  0.42406  1.0000
  H   H1520     1.0  0.64869  0.76574  0.48118  1.0000
  C   C1895     1.0  0.45153  0.98167  0.36818  1.0000
  H   H1521     1.0  0.43897  0.97324  0.46928  1.0000
  H   H1522     1.0  0.62216  0.91728  0.39281  1.0000
  P   P60       1.0  0.62534  0.87287  0.18250  1.0000
  Fe  Fe129     1.0  0.65220  0.79886  0.12056  1.0000
  H   H1523     1.0  0.58793  0.84116  0.18029  1.0000
  C   C1896     1.0  0.62526  0.75959  0.17688  1.0000
  C   C1897     1.0  0.52872  0.75434  0.05622  1.0000
  C   C1898     1.0  0.62767  0.96208  0.18847  1.0000
  C   C1899     1.0  0.44471  0.98332  0.22137  1.0000
  H   H1524     1.0  0.55570  0.84006  0.16858  1.0000
  C   C1900     1.0  0.55776  0.83992  0.08461  1.0000
  H   H1525     1.0  0.62659  0.80059  0.40769  1.0000
  C   C1901     1.0  0.55409  0.84884  0.05872  1.0000
  C   C1902     1.0  0.60788  0.76092  0.37368  1.0000
  C   C1903     1.0  0.58782  0.79892  0.09474  1.0000
  C   C1904     1.0  0.55187  0.82207  0.03332  1.0000
  C   C1905     1.0  0.33869  0.98130  0.25797  1.0000
  H   H1526     1.0  0.62276  0.96213  0.08020  1.0000
  H   H1527     1.0  0.44203  0.95130  0.37000  1.0000
  C   C1906     1.0  0.58803  0.79263  0.02074  1.0000
  H   H1528     1.0  0.62176  0.98678  0.39624  1.0000
  C   C1907     1.0  0.62288  0.81878  0.19086  1.0000
  C   C1908     1.0  0.62147  0.78582  0.40455  1.0000
  H   H1529     1.0  0.58487  0.98321  0.18553  1.0000
  H   H1530     1.0  0.65176  0.96214  0.34180  1.0000
  H   H1531     1.0  0.39416  0.96775  0.10016  1.0000
  C   C1909     1.0  0.62108  0.77251  0.42789  1.0000
  C   C1910     1.0  0.43205  0.99153  0.21090  1.0000
  C   C1911     1.0  0.58926  0.98794  0.05736  1.0000
  H   H1532     1.0  0.45705  0.98126  0.06894  1.0000
  C   C1912     1.0  0.57733  0.99332  0.11355  1.0000
  H   H1533     1.0  0.57759  0.90023  0.15220  1.0000
  H   H1534     1.0  0.37068  0.91018  0.35764  1.0000
  P   P61       1.0  0.61371  0.00038  0.13535  1.0000
  C   C1913     1.0  0.63985  0.95779  0.48841  1.0000
  C   C1914     1.0  0.60475  0.98968  0.27686  1.0000
  P   P62       1.0  0.33613  0.97693  0.37846  1.0000
  C   C1915     1.0  0.63384  0.88959  0.20896  1.0000
  H   H1535     1.0  0.56044  0.84712  0.10422  1.0000
  H   H1536     1.0  0.62661  0.92148  0.06959  1.0000
  C   C1916     1.0  0.42144  0.98955  0.40423  1.0000
  C   C1917     1.0  0.58930  0.78025  0.13973  1.0000
  C   C1918     1.0  0.60615  0.96180  0.13948  1.0000
  H   H1537     1.0  0.63977  0.96573  0.39130  1.0000
  H   H1538     1.0  0.63519  0.75775  0.22046  1.0000
  C   C1919     1.0  0.35439  0.99049  0.34914  1.0000
  C   C1920     1.0  0.39893  0.98154  0.10766  1.0000
  H   H1539     1.0  0.62027  0.86329  0.00810  1.0000
  C   C1921     1.0  0.47284  0.96435  0.36569  1.0000
  H   H1540     1.0  0.47472  0.95113  0.36501  1.0000
  C   C1922     1.0  0.56420  0.98876  0.09175  1.0000
  C   C1923     1.0  0.65035  0.90689  0.48752  1.0000
  C   C1924     1.0  0.48390  0.97562  0.44703  1.0000
  P   P63       1.0  0.55667  0.78994  0.05947  1.0000
  S   S262      1.0  0.35043  0.88087  0.46929  1.0000
  H   H1541     1.0  0.60103  0.93238  0.14189  1.0000
  C   C1925     1.0  0.60162  0.87164  0.17304  1.0000
  C   C1926     1.0  0.57136  0.76663  0.13536  1.0000
  C   C1927     1.0  0.62246  0.81432  0.22137  1.0000
  C   C1928     1.0  0.34046  0.92542  0.38837  1.0000
  C   C1929     1.0  0.57996  0.88746  0.15898  1.0000
  C   C1930     1.0  0.63583  0.92544  0.40100  1.0000
  C   C1931     1.0  0.40224  0.98204  0.41697  1.0000
  H   H1542     1.0  0.51917  0.79066  0.08079  1.0000
  H   H1543     1.0  0.55387  0.86282  0.05848  1.0000
  S   S263      1.0  0.32146  0.86841  0.27731  1.0000
  C   C1932     1.0  0.57067  0.96197  0.26196  1.0000
  C   C1933     1.0  0.59842  0.88826  0.16534  1.0000
  C   C1934     1.0  0.60252  0.99280  0.07890  1.0000
  H   H1544     1.0  0.61025  0.90179  0.16377  1.0000
  C   C1935     1.0  0.38132  0.92397  0.36011  1.0000
  H   H1545     1.0  0.58890  0.95620  0.22984  1.0000
  C   C1936     1.0  0.56762  0.85351  0.16785  1.0000
  H   H1546     1.0  0.59429  0.81153  0.07927  1.0000
  H   H1547     1.0  0.33735  0.91354  0.37582  1.0000
  S   S264      1.0  0.49579  0.98354  0.22173  1.0000
  H   H1548     1.0  0.62572  0.77695  0.44917  1.0000
  C   C1937     1.0  0.61547  0.97873  0.15128  1.0000
  H   H1549     1.0  0.35009  0.96667  0.43532  1.0000
  H   H1550     1.0  0.63261  0.96283  0.44358  1.0000
  H   H1551     1.0  0.61914  0.97999  0.24370  1.0000
  H   H1552     1.0  0.59708  0.79597  0.03893  1.0000
  H   H1553     1.0  0.54757  0.75854  0.10821  1.0000
  C   C1938     1.0  0.35471  0.00179  0.41801  1.0000
  C   C1939     1.0  0.63766  0.97075  0.07375  1.0000
  C   C1940     1.0  0.64356  0.97100  0.34386  1.0000
  H   H1554     1.0  0.37244  0.97549  0.13468  1.0000
  C   C1941     1.0  0.38664  0.98590  0.12698  1.0000
  C   C1942     1.0  0.61872  0.94537  0.17615  1.0000
  C   C1943     1.0  0.45247  0.97109  0.47035  1.0000
  H   H1555     1.0  0.60266  0.75676  0.35264  1.0000
  H   H1556     1.0  0.56131  0.81548  0.10537  1.0000
  C   C1944     1.0  0.62592  0.97866  0.17624  1.0000
  C   C1945     1.0  0.65186  0.89130  0.09856  1.0000
  C   C1946     1.0  0.58843  0.96471  0.24719  1.0000
  H   H1557     1.0  0.61225  0.79577  0.99067  1.0000
  C   C1947     1.0  0.62347  0.83643  0.17925  1.0000
  C   C1948     1.0  0.62251  0.82752  0.24039  1.0000
  H   H1558     1.0  0.58834  0.85981  0.99540  1.0000
  H   H1559     1.0  0.62296  0.80857  0.17618  1.0000
  C   C1949     1.0  0.56806  0.78860  0.02438  1.0000
  C   C1950     1.0  0.56460  0.87011  0.16008  1.0000
  H   H1560     1.0  0.65267  0.92738  0.36042  1.0000
  C   C1951     1.0  0.58602  0.85423  0.17439  1.0000
  H   H1561     1.0  0.64671  0.96845  0.11784  1.0000
  H   H1562     1.0  0.61731  0.99432  0.07345  1.0000
  C   C1952     1.0  0.55855  0.82210  0.08495  1.0000
  C   C1953     1.0  0.56153  0.76921  0.11077  1.0000
  H   H1563     1.0  0.54926  0.98692  0.09681  1.0000
  C   C1954     1.0  0.58685  0.98672  0.29175  1.0000
  H   H1564     1.0  0.46400  0.98651  0.42739  1.0000
  H   H1565     1.0  0.45272  0.98816  0.24027  1.0000
  H   H1566     1.0  0.35766  0.93953  0.45363  1.0000
  C   C1955     1.0  0.35211  0.94017  0.43206  1.0000
  C   C1956     1.0  0.42127  0.98483  0.18719  1.0000
  H   H1567     1.0  0.62331  0.85531  0.24392  1.0000
  C   C1957     1.0  0.59661  0.99532  0.10728  1.0000
  H   H1568     1.0  0.57218  0.99490  0.13525  1.0000
  C   C1958     1.0  0.64341  0.97847  0.04427  1.0000
  C   C1959     1.0  0.64183  0.92782  0.06192  1.0000
  H   H1569     1.0  0.49473  0.98138  0.42842  1.0000
  H   H1570     1.0  0.62215  0.80062  0.23015  1.0000
  C   C1960     1.0  0.63677  0.97303  0.37179  1.0000
  C   C1961     1.0  0.37770  0.99237  0.30908  1.0000
  C   C1962     1.0  0.34861  0.92518  0.41544  1.0000
  C   C1963     1.0  0.34786  0.95565  0.42138  1.0000
  C   C1964     1.0  0.65299  0.93106  0.38279  1.0000
  H   H1571     1.0  0.61508  0.98281  0.45592  1.0000
  H   H1572     1.0  0.63709  0.91964  0.01829  1.0000
  C   C1965     1.0  0.46655  0.97857  0.44649  1.0000
  C   C1966     1.0  0.51680  0.77682  0.07463  1.0000
  H   H1573     1.0  0.43877  0.92666  0.47723  1.0000
  Fe  Fe130     1.0  0.52682  0.99532  0.29066  1.0000
  C   C1967     1.0  0.62680  0.98501  0.37454  1.0000
  H   H1574     1.0  0.65099  0.93719  0.10380  1.0000
  C   C1968     1.0  0.41170  0.00124  0.45700  1.0000
  H   H1575     1.0  0.58593  0.99488  0.30942  1.0000
  S   S265      1.0  0.54566  0.99690  0.32981  1.0000
  C   C1969     1.0  0.55705  0.78453  0.99975  1.0000
  C   C1970     1.0  0.42829  0.99985  0.33974  1.0000
  H   H1576     1.0  0.57567  0.99853  0.36833  1.0000
  C   C1971     1.0  0.65121  0.97448  0.09509  1.0000
  H   H1577     1.0  0.32152  0.98597  0.32191  1.0000
  C   C1972     1.0  0.64776  0.92697  0.03282  1.0000
  H   H1578     1.0  0.64676  0.95324  0.99100  1.0000
  H   H1579     1.0  0.63296  0.99152  0.18591  1.0000
  H   H1580     1.0  0.54168  0.78167  0.00177  1.0000
  C   C1973     1.0  0.46792  0.99857  0.36386  1.0000
  C   C1974     1.0  0.48655  0.99830  0.36107  1.0000
  H   H1581     1.0  0.44287  0.98929  0.30830  1.0000
  H   H1582     1.0  0.38512  0.98569  0.29599  1.0000
  H   H1583     1.0  0.36800  0.00137  0.40830  1.0000
  H   H1584     1.0  0.54803  0.84684  0.01316  1.0000
  C   C1975     1.0  0.41736  0.99495  0.09812  1.0000
  C   C1976     1.0  0.62395  0.99526  0.34936  1.0000
  C   C1977     1.0  0.39745  0.98778  0.44334  1.0000
  S   S266      1.0  0.64207  0.78305  0.16697  1.0000
  H   H1585     1.0  0.48610  0.76648  0.08668  1.0000
  H   H1586     1.0  0.38269  0.98172  0.45332  1.0000
  C   C1978     1.0  0.43748  0.00013  0.31216  1.0000
  H   H1587     1.0  0.49949  0.00157  0.15214  1.0000
  Fe  Fe131     1.0  0.64757  0.82125  0.06447  1.0000
  H   H1588     1.0  0.65172  0.92493  0.26698  1.0000
  C   C1979     1.0  0.31984  0.99243  0.42025  1.0000
  C   C1980     1.0  0.41364  0.90123  0.48613  1.0000
  H   H1589     1.0  0.32611  0.98582  0.82055  1.0000
  S   S267      1.0  0.62997  0.82887  0.52352  1.0000
  S   S268      1.0  0.62368  0.85289  0.59204  1.0000
  C   C1981     1.0  0.64175  0.88816  0.50013  1.0000
  S   S269      1.0  0.62127  0.77502  0.51564  1.0000
  H   H1590     1.0  0.36994  0.99314  0.97353  1.0000
  Fe  Fe132     1.0  0.35263  0.90667  0.56904  1.0000
  S   S270      1.0  0.37361  0.90822  0.60548  1.0000
  S   S271      1.0  0.36108  0.91888  0.52139  1.0000
  Fe  Fe133     1.0  0.47946  0.96341  0.74126  1.0000
  S   S272      1.0  0.48875  0.96952  0.69274  1.0000
  S   S273      1.0  0.47650  0.93593  0.76752  1.0000
  C   C1982     1.0  0.32817  0.96546  0.94705  1.0000
  H   H1591     1.0  0.56174  0.77616  0.88116  1.0000
  C   C1983     1.0  0.59779  0.86543  0.85478  1.0000
  Fe  Fe134     1.0  0.46344  0.97854  0.68831  1.0000
  S   S274      1.0  0.44465  0.97566  0.64875  1.0000
  C   C1984     1.0  0.41039  0.98741  0.69019  1.0000
  S   S275      1.0  0.45277  0.97043  0.73638  1.0000
  C   C1985     1.0  0.60190  0.97989  0.90643  1.0000
  Fe  Fe135     1.0  0.59516  0.88485  0.74132  1.0000
  S   S276      1.0  0.61688  0.91137  0.75461  1.0000
  S   S277      1.0  0.60678  0.86323  0.72655  1.0000
  Fe  Fe136     1.0  0.56163  0.89764  0.75555  1.0000
  S   S278      1.0  0.58094  0.92520  0.76901  1.0000
  S   S279      1.0  0.52902  0.88774  0.75764  1.0000
  Fe  Fe137     1.0  0.60005  0.92566  0.72955  1.0000
  S   S280      1.0  0.61388  0.95085  0.69598  1.0000
  Fe  Fe138     1.0  0.59589  0.90838  0.79335  1.0000
  S   S281      1.0  0.60868  0.91528  0.83735  1.0000
  S   S282      1.0  0.57954  0.89948  0.71370  1.0000
  S   S283      1.0  0.57532  0.88046  0.78247  1.0000
  C   C1986     1.0  0.59423  0.91404  0.86974  1.0000
  C   C1987     1.0  0.60320  0.92012  0.89546  1.0000
  C   C1988     1.0  0.59208  0.91872  0.92190  1.0000
  C   C1989     1.0  0.57184  0.91112  0.92280  1.0000
  C   C1990     1.0  0.56290  0.90542  0.89688  1.0000
  C   C1991     1.0  0.57404  0.90666  0.87056  1.0000
  H   H1592     1.0  0.61883  0.92574  0.89501  1.0000
  H   H1593     1.0  0.59915  0.92319  0.94165  1.0000
  H   H1594     1.0  0.54728  0.89962  0.89737  1.0000
  H   H1595     1.0  0.56709  0.90155  0.85104  1.0000
  C   C1992     1.0  0.63201  0.96890  0.71050  1.0000
  C   C1993     1.0  0.40571  0.91574  0.53668  1.0000
  H   H1596     1.0  0.32294  0.95522  0.93155  1.0000
  H   H1597     1.0  0.48431  0.97877  0.59695  1.0000
  C   C1994     1.0  0.63915  0.98686  0.69488  1.0000
  H   H1598     1.0  0.63368  0.95182  0.74986  1.0000
  H   H1599     1.0  0.63350  0.98942  0.67416  1.0000
  C   C1995     1.0  0.49185  0.92358  0.76147  1.0000
  C   C1996     1.0  0.48393  0.90401  0.76803  1.0000
  C   C1997     1.0  0.49559  0.89347  0.76620  1.0000
  C   C1998     1.0  0.51551  0.90233  0.75854  1.0000
  C   C1999     1.0  0.52367  0.92201  0.75192  1.0000
  C   C2000     1.0  0.51177  0.93262  0.75324  1.0000
  H   H1600     1.0  0.46865  0.89692  0.77475  1.0000
  H   H1601     1.0  0.48913  0.87833  0.77125  1.0000
  H   H1602     1.0  0.53906  0.92903  0.74606  1.0000
  H   H1603     1.0  0.51806  0.94776  0.74934  1.0000
  C   C2001     1.0  0.39289  0.92730  0.61789  1.0000
  C   C2002     1.0  0.40326  0.92354  0.64128  1.0000
  C   C2003     1.0  0.41882  0.93810  0.65157  1.0000
  C   C2004     1.0  0.42438  0.95666  0.63836  1.0000
  C   C2005     1.0  0.41379  0.96044  0.61540  1.0000
  C   C2006     1.0  0.39822  0.94593  0.60510  1.0000
  H   H1604     1.0  0.39928  0.90922  0.65145  1.0000
  H   H1605     1.0  0.42671  0.93490  0.66935  1.0000
  H   H1606     1.0  0.41764  0.97479  0.60566  1.0000
  H   H1607     1.0  0.39035  0.94914  0.58731  1.0000
  H   H1608     1.0  0.59907  0.87355  0.87320  1.0000
  C   C2007     1.0  0.61954  0.85559  0.62970  1.0000
  C   C2008     1.0  0.62502  0.84599  0.65311  1.0000
  C   C2009     1.0  0.62090  0.84838  0.68262  1.0000
  C   C2010     1.0  0.61149  0.86051  0.68905  1.0000
  C   C2011     1.0  0.60630  0.87031  0.66559  1.0000
  C   C2012     1.0  0.61031  0.86785  0.63615  1.0000
  H   H1609     1.0  0.63219  0.83658  0.64850  1.0000
  H   H1610     1.0  0.62496  0.84073  0.70059  1.0000
  H   H1611     1.0  0.59897  0.87961  0.67014  1.0000
  H   H1612     1.0  0.60598  0.87531  0.61823  1.0000
  C   C2013     1.0  0.42640  0.96341  0.80686  1.0000
  H   H1613     1.0  0.54819  0.95068  0.89549  1.0000
  H   H1614     1.0  0.53059  0.96400  0.70064  1.0000
  H   H1615     1.0  0.54032  0.91243  0.67414  1.0000
  H   H1616     1.0  0.47356  0.95023  0.63323  1.0000
  C   C2014     1.0  0.64196  0.94452  0.62403  1.0000
  C   C2015     1.0  0.61077  0.86255  0.80674  1.0000
  H   H1617     1.0  0.59592  0.96424  0.94996  1.0000
  C   C2016     1.0  0.57542  0.86486  0.92555  1.0000
  H   H1618     1.0  0.53590  0.85123  0.92009  1.0000
  P   P64       1.0  0.56488  0.97602  0.84076  1.0000
  H   H1619     1.0  0.36219  0.98266  0.72353  1.0000
  C   C2017     1.0  0.41676  0.94390  0.81034  1.0000
  C   C2018     1.0  0.58005  0.83933  0.82832  1.0000
  H   H1620     1.0  0.58495  0.82862  0.98137  1.0000
  C   C2019     1.0  0.58412  0.98584  0.81148  1.0000
  H   H1621     1.0  0.55394  0.99923  0.79587  1.0000
  C   C2020     1.0  0.53303  0.77570  0.89039  1.0000
  C   C2021     1.0  0.61234  0.87218  0.83153  1.0000
  H   H1622     1.0  0.51261  0.86596  0.90782  1.0000
  C   C2022     1.0  0.62350  0.89701  0.53666  1.0000
  S   S284      1.0  0.33699  0.95377  0.50009  1.0000
  C   C2023     1.0  0.59011  0.96658  0.92916  1.0000
  C   C2024     1.0  0.56196  0.80412  0.88189  1.0000
  H   H1623     1.0  0.57384  0.81994  0.93261  1.0000
  C   C2025     1.0  0.34173  0.96860  0.55285  1.0000
  H   H1624     1.0  0.50749  0.87358  0.85536  1.0000
  C   C2026     1.0  0.42640  0.97835  0.54376  1.0000
  H   H1625     1.0  0.61752  0.79671  0.67927  1.0000
  H   H1626     1.0  0.61285  0.99040  0.50708  1.0000
  H   H1627     1.0  0.52589  0.86634  0.81513  1.0000
  H   H1628     1.0  0.55721  0.78105  0.95337  1.0000
  C   C2027     1.0  0.55276  0.99222  0.84337  1.0000
  H   H1629     1.0  0.50819  0.90488  0.82323  1.0000
  Fe  Fe139     1.0  0.63870  0.83627  0.56906  1.0000
  C   C2028     1.0  0.45226  0.93350  0.60620  1.0000
  H   H1630     1.0  0.54818  0.98771  0.89122  1.0000
  C   C2029     1.0  0.42180  0.96305  0.52720  1.0000
  H   H1631     1.0  0.51088  0.88637  0.69552  1.0000
  H   H1632     1.0  0.54427  0.98379  0.73949  1.0000
  Fe  Fe140     1.0  0.33492  0.92624  0.52429  1.0000
  H   H1633     1.0  0.58120  0.95923  0.79630  1.0000
  H   H1634     1.0  0.56737  0.82695  0.82613  1.0000
  C   C2030     1.0  0.59464  0.84613  0.80515  1.0000
  C   C2031     1.0  0.56320  0.95899  0.89821  1.0000
  C   C2032     1.0  0.58159  0.84884  0.85349  1.0000
  C   C2033     1.0  0.32682  0.99010  0.56645  1.0000
  H   H1635     1.0  0.58828  0.97091  0.66826  1.0000
  H   H1636     1.0  0.59319  0.83906  0.78541  1.0000
  C   C2034     1.0  0.53070  0.80610  0.89192  1.0000
  H   H1637     1.0  0.52312  0.94436  0.60279  1.0000
  C   C2035     1.0  0.35306  0.97326  0.74202  1.0000
  C   C2036     1.0  0.64542  0.96139  0.91682  1.0000
  C   C2037     1.0  0.54566  0.99471  0.87096  1.0000
  C   C2038     1.0  0.52813  0.86300  0.83805  1.0000
  C   C2039     1.0  0.47320  0.96595  0.59170  1.0000
  C   C2040     1.0  0.39734  0.96720  0.79028  1.0000
  H   H1638     1.0  0.44724  0.92114  0.62246  1.0000
  H   H1639     1.0  0.65127  0.85561  0.97911  1.0000
  H   H1640     1.0  0.40210  0.92140  0.55589  1.0000
  H   H1641     1.0  0.39017  0.92082  0.80571  1.0000
  C   C2041     1.0  0.54151  0.85476  0.84482  1.0000
  C   C2042     1.0  0.57493  0.97234  0.87522  1.0000
  C   C2043     1.0  0.36073  0.97045  0.76898  1.0000
  C   C2044     1.0  0.58438  0.85633  0.97359  1.0000
  C   C2045     1.0  0.34791  0.97330  0.95114  1.0000
  C   C2046     1.0  0.51408  0.93421  0.82506  1.0000
  C   C2047     1.0  0.55080  0.81508  0.88531  1.0000
  H   H1642     1.0  0.57753  0.81076  0.87726  1.0000
  C   C2048     1.0  0.62567  0.78824  0.67379  1.0000
  C   C2049     1.0  0.55178  0.93756  0.83577  1.0000
  C   C2050     1.0  0.55308  0.78451  0.88428  1.0000
  H   H1643     1.0  0.37318  0.94107  0.78717  1.0000
  C   C2051     1.0  0.62173  0.99241  0.60787  1.0000
  H   H1644     1.0  0.54922  0.85160  0.82689  1.0000
  H   H1645     1.0  0.34224  0.97938  0.88606  1.0000
  C   C2052     1.0  0.56581  0.78426  0.97220  1.0000
  S   S285      1.0  0.33405  0.87805  0.55666  1.0000
  S   S286      1.0  0.55723  0.90711  0.95621  1.0000
  C   C2053     1.0  0.39339  0.89800  0.53063  1.0000
  C   C2054     1.0  0.54482  0.85074  0.87436  1.0000
  H   H1646     1.0  0.63609  0.96711  0.64048  1.0000
  C   C2055     1.0  0.46438  0.96574  0.56513  1.0000
  C   C2056     1.0  0.52057  0.86268  0.89022  1.0000
  C   C2057     1.0  0.64535  0.92091  0.49904  1.0000
  C   C2058     1.0  0.51773  0.86705  0.86072  1.0000
  S   S287      1.0  0.31982  0.00139  0.59365  1.0000
  H   H1647     1.0  0.56620  0.93850  0.84057  1.0000
  C   C2059     1.0  0.54709  0.95365  0.83374  1.0000
  H   H1648     1.0  0.34991  0.95993  0.55862  1.0000
  C   C2060     1.0  0.57208  0.84681  0.91790  1.0000
  C   C2061     1.0  0.44898  0.94952  0.55920  1.0000
  C   C2062     1.0  0.65084  0.88166  0.95801  1.0000
  H   H1649     1.0  0.64804  0.81112  0.64701  1.0000
  C   C2063     1.0  0.60470  0.99530  0.61467  1.0000
  C   C2064     1.0  0.42626  0.91884  0.49248  1.0000
  C   C2065     1.0  0.42233  0.92625  0.51785  1.0000
  H   H1650     1.0  0.35361  0.95750  0.81441  1.0000
  H   H1651     1.0  0.55617  0.99311  0.64445  1.0000
  H   H1652     1.0  0.42441  0.93494  0.81758  1.0000
  C   C2066     1.0  0.58569  0.78826  0.96888  1.0000
  C   C2067     1.0  0.54893  0.00126  0.81744  1.0000
  C   C2068     1.0  0.61893  0.76917  0.68470  1.0000
  H   H1653     1.0  0.38056  0.89003  0.54535  1.0000
  H   H1654     1.0  0.52378  0.96373  0.82657  1.0000
  H   H1655     1.0  0.42471  0.99006  0.79299  1.0000
  C   C2069     1.0  0.34815  0.95912  0.79303  1.0000
  H   H1656     1.0  0.63088  0.96679  0.95461  1.0000
  C   C2070     1.0  0.63928  0.96564  0.73746  1.0000
  H   H1657     1.0  0.50631  0.77967  0.89897  1.0000
  C   C2071     1.0  0.62004  0.98102  0.50210  1.0000
  C   C2072     1.0  0.44314  0.93332  0.57992  1.0000
  H   H1658     1.0  0.49947  0.93290  0.82072  1.0000
  H   H1659     1.0  0.41701  0.99902  0.56047  1.0000
  H   H1660     1.0  0.52612  0.76052  0.89196  1.0000
  H   H1661     1.0  0.47988  0.89096  0.70158  1.0000
  C   C2073     1.0  0.58207  0.83862  0.96576  1.0000
  C   C2074     1.0  0.41680  0.97499  0.79663  1.0000
  H   H1662     1.0  0.52178  0.81419  0.89504  1.0000
  C   C2075     1.0  0.59437  0.98278  0.87953  1.0000
  C   C2076     1.0  0.60499  0.98191  0.77266  1.0000
  H   H1663     1.0  0.62896  0.90378  0.69321  1.0000
  C   C2077     1.0  0.54069  0.99792  0.60807  1.0000
  C   C2078     1.0  0.57583  0.83381  0.93804  1.0000
  C   C2079     1.0  0.39180  0.96699  0.51610  1.0000
  C   C2080     1.0  0.54072  0.96722  0.62589  1.0000
  P   P65       1.0  0.38613  0.98248  0.77387  1.0000
  P   P66       1.0  0.54803  0.95226  0.65173  1.0000
  C   C2081     1.0  0.52638  0.93248  0.66663  1.0000
  C   C2082     1.0  0.56528  0.94446  0.63382  1.0000
  C   C2083     1.0  0.57546  0.93569  0.65093  1.0000
  C   C2084     1.0  0.58871  0.92949  0.63738  1.0000
  C   C2085     1.0  0.59215  0.93220  0.60662  1.0000
  C   C2086     1.0  0.58224  0.94107  0.58935  1.0000
  C   C2087     1.0  0.56880  0.94713  0.60284  1.0000
  C   C2088     1.0  0.50867  0.93487  0.67001  1.0000
  C   C2089     1.0  0.49195  0.91993  0.68239  1.0000
  C   C2090     1.0  0.49270  0.90239  0.69117  1.0000
  C   C2091     1.0  0.51017  0.89980  0.68766  1.0000
  C   C2092     1.0  0.52697  0.91478  0.67563  1.0000
  C   C2093     1.0  0.55825  0.96537  0.68190  1.0000
  C   C2094     1.0  0.54607  0.96927  0.70221  1.0000
  C   C2095     1.0  0.55382  0.98068  0.72421  1.0000
  C   C2096     1.0  0.57383  0.98874  0.72561  1.0000
  C   C2097     1.0  0.58611  0.98502  0.70545  1.0000
  C   C2098     1.0  0.57839  0.97334  0.68374  1.0000
  C   C2099     1.0  0.38781  0.94755  0.79342  1.0000
  C   C2100     1.0  0.64118  0.96102  0.94706  1.0000
  C   C2101     1.0  0.38726  0.00110  0.79576  1.0000
  C   C2102     1.0  0.39747  0.93597  0.80363  1.0000
  H   H1664     1.0  0.64506  0.76787  0.59709  1.0000
  H   H1665     1.0  0.57327  0.93374  0.67489  1.0000
  H   H1666     1.0  0.59636  0.92267  0.65098  1.0000
  H   H1667     1.0  0.60243  0.92736  0.59624  1.0000
  H   H1668     1.0  0.58484  0.94314  0.56547  1.0000
  H   H1669     1.0  0.56133  0.95394  0.58898  1.0000
  H   H1670     1.0  0.50783  0.94839  0.66369  1.0000
  H   H1671     1.0  0.47853  0.92209  0.68599  1.0000
  H   H1672     1.0  0.52344  0.99882  0.57161  1.0000
  H   H1673     1.0  0.57310  0.87523  0.91015  1.0000
  C   C2103     1.0  0.52187  0.78649  0.89430  1.0000
  H   H1674     1.0  0.44151  0.96960  0.81127  1.0000
  H   H1675     1.0  0.38705  0.96679  0.71838  1.0000
  C   C2104     1.0  0.33329  0.96412  0.73881  1.0000
  C   C2105     1.0  0.53397  0.85447  0.89707  1.0000
  H   H1676     1.0  0.51243  0.96454  0.56806  1.0000
  H   H1677     1.0  0.61307  0.89299  0.55576  1.0000
  H   H1678     1.0  0.60865  0.97282  0.75901  1.0000
  H   H1679     1.0  0.59090  0.98553  0.60917  1.0000
  H   H1680     1.0  0.43143  0.92054  0.57634  1.0000
  P   P67       1.0  0.56241  0.84036  0.88299  1.0000
  C   C2106     1.0  0.53783  0.92009  0.83163  1.0000
  C   C2107     1.0  0.52808  0.95180  0.82824  1.0000
  H   H1681     1.0  0.62727  0.92589  0.53314  1.0000
  C   C2108     1.0  0.41366  0.98768  0.54676  1.0000
  C   C2109     1.0  0.32100  0.95236  0.76256  1.0000
  P   P68       1.0  0.43726  0.94974  0.52506  1.0000
  H   H1682     1.0  0.60770  0.75993  0.57758  1.0000
  Fe  Fe141     1.0  0.34044  0.89140  0.50919  1.0000
  H   H1683     1.0  0.62174  0.86813  0.78830  1.0000
  C   C2110     1.0  0.40028  0.99220  0.73905  1.0000
  C   C2111     1.0  0.52827  0.95934  0.60421  1.0000
  H   H1684     1.0  0.34383  0.97953  0.59493  1.0000
  C   C2112     1.0  0.58924  0.97421  0.79388  1.0000
  C   C2113     1.0  0.57077  0.95621  0.92505  1.0000
  C   C2114     1.0  0.35462  0.98691  0.97045  1.0000
  H   H1685     1.0  0.56165  0.94582  0.94262  1.0000
  H   H1686     1.0  0.35804  0.96907  0.93898  1.0000
  C   C2115     1.0  0.63875  0.96244  0.51731  1.0000
  C   C2116     1.0  0.51896  0.91839  0.82659  1.0000
  H   H1687     1.0  0.54159  0.90783  0.83212  1.0000
  H   H1688     1.0  0.40870  0.97852  0.67266  1.0000
  H   H1689     1.0  0.63181  0.93397  0.64043  1.0000
  C   C2117     1.0  0.52837  0.99001  0.58650  1.0000
  C   C2118     1.0  0.54695  0.98663  0.62759  1.0000
  H   H1690     1.0  0.63816  0.96717  0.90075  1.0000
  C   C2119     1.0  0.64438  0.96338  0.62396  1.0000
  C   C2120     1.0  0.62880  0.97388  0.52415  1.0000
  S   S288      1.0  0.64223  0.80873  0.58173  1.0000
  C   C2121     1.0  0.62818  0.88319  0.52445  1.0000
  H   H1691     1.0  0.62451  0.88529  0.83229  1.0000
  C   C2122     1.0  0.32371  0.97968  0.51773  1.0000
  H   H1692     1.0  0.62080  0.98029  0.59705  1.0000
  C   C2123     1.0  0.58128  0.86951  0.95343  1.0000
  H   H1693     1.0  0.58318  0.88329  0.95954  1.0000
  C   C2124     1.0  0.52218  0.97072  0.58454  1.0000
  C   C2125     1.0  0.46715  0.94985  0.61223  1.0000
  C   C2126     1.0  0.33832  0.97970  0.57334  1.0000
  C   C2127     1.0  0.65016  0.95310  0.96779  1.0000
  C   C2128     1.0  0.64292  0.79639  0.65567  1.0000
  C   C2129     1.0  0.39718  0.89085  0.50515  1.0000
  H   H1694     1.0  0.62832  0.97764  0.54633  1.0000
  C   C2130     1.0  0.33745  0.99100  0.88365  1.0000
  H   H1695     1.0  0.43939  0.98275  0.55539  1.0000
  H   H1696     1.0  0.46928  0.97838  0.54953  1.0000
  H   H1697     1.0  0.60166  0.99133  0.70648  1.0000
  Fe  Fe142     1.0  0.50610  0.99855  0.70408  1.0000
  C   C2131     1.0  0.65288  0.93935  0.60357  1.0000
  C   C2132     1.0  0.32841  0.94992  0.78971  1.0000
  H   H1698     1.0  0.62136  0.86859  0.53391  1.0000
  S   S289      1.0  0.49821  0.99190  0.75315  1.0000
  C   C2133     1.0  0.63188  0.91577  0.52390  1.0000
  C   C2134     1.0  0.39802  0.98089  0.71605  1.0000
  Fe  Fe143     1.0  0.63615  0.80265  0.53494  1.0000
  C   C2135     1.0  0.33424  0.96849  0.52516  1.0000
  H   H1699     1.0  0.40034  0.99179  0.83276  1.0000
  C   C2136     1.0  0.64421  0.91174  0.68698  1.0000
  H   H1700     1.0  0.65167  0.90904  0.94275  1.0000
  H   H1701     1.0  0.64607  0.95765  0.53435  1.0000
  H   H1702     1.0  0.61689  0.98795  0.90966  1.0000
  H   H1703     1.0  0.60381  0.99308  0.86223  1.0000
  H   H1704     1.0  0.32745  0.96630  0.71796  1.0000
  C   C2137     1.0  0.40465  0.95785  0.51261  1.0000
  H   H1705     1.0  0.59255  0.78813  0.94755  1.0000
  S   S290      1.0  0.32745  0.91596  0.57274  1.0000
  H   H1706     1.0  0.64399  0.93694  0.70318  1.0000
  H   H1707     1.0  0.46650  0.00221  0.82308  1.0000
  H   H1708     1.0  0.38595  0.98847  0.53670  1.0000
  H   H1709     1.0  0.38715  0.87739  0.49994  1.0000
  C   C2138     1.0  0.65266  0.93043  0.69258  1.0000
  C   C2139     1.0  0.64631  0.76618  0.65813  1.0000
  H   H1710     1.0  0.64536  0.87738  0.49078  1.0000
  H   H1711     1.0  0.64862  0.88878  0.66921  1.0000
  H   H1712     1.0  0.57981  0.99814  0.74199  1.0000
  C   C2140     1.0  0.62928  0.75818  0.67712  1.0000
  C   C2141     1.0  0.39488  0.00212  0.82356  1.0000
  H   H1713     1.0  0.60561  0.76288  0.69889  1.0000
  H   H1714     1.0  0.65110  0.92471  0.60396  1.0000
  C   C2142     1.0  0.61580  0.00126  0.76884  1.0000
  Fe  Fe144     1.0  0.47236  0.99959  0.74418  1.0000
  C   C2143     1.0  0.47316  0.95753  0.49530  1.0000
  C   C2144     1.0  0.32168  0.98471  0.98200  1.0000
  H   H1715     1.0  0.47575  0.94903  0.51375  1.0000
  C   C2145     1.0  0.34161  0.99263  0.98580  1.0000
  C   C2146     1.0  0.39619  0.98177  0.53341  1.0000
  H   H1716     1.0  0.64214  0.87514  0.94063  1.0000
  H   H1717     1.0  0.37818  0.96231  0.50590  1.0000
  C   C2147     1.0  0.45582  0.96072  0.49513  1.0000
  H   H1718     1.0  0.40086  0.94639  0.49914  1.0000
  C   C2148     1.0  0.31976  0.99026  0.53848  1.0000
  S   S291      1.0  0.75945  0.03232  0.00236  1.0000
  Fe  Fe145     1.0  0.85209  0.18261  0.38205  1.0000
  S   S292      1.0  0.84095  0.18668  0.42615  1.0000
  S   S293      1.0  0.87063  0.20321  0.34369  1.0000
  Fe  Fe146     1.0  0.83911  0.14021  0.39810  1.0000
  S   S294      1.0  0.82811  0.14112  0.44441  1.0000
  S   S295      1.0  0.83813  0.11584  0.37294  1.0000
  Fe  Fe147     1.0  0.81490  0.16031  0.42225  1.0000
  S   S296      1.0  0.78464  0.15736  0.43919  1.0000
  Fe  Fe148     1.0  0.85508  0.16742  0.44535  1.0000
  H   H1719     1.0  0.68954  0.10867  0.32029  1.0000
  S   S297      1.0  0.82471  0.15825  0.37602  1.0000
  S   S298      1.0  0.86730  0.16446  0.40123  1.0000
  Fe  Fe149     1.0  0.67683  0.08510  0.42111  1.0000
  S   S299      1.0  0.67558  0.06598  0.46230  1.0000
  S   S300      1.0  0.70454  0.10526  0.39434  1.0000
  H   H1720     1.0  0.93136  0.18262  0.38372  1.0000
  H   H1721     1.0  0.78982  0.10967  0.45646  1.0000
  C   C2149     1.0  0.92872  0.22960  0.40323  1.0000
  C   C2150     1.0  0.66892  0.00910  0.41220  1.0000
  C   C2151     1.0  0.95359  0.24626  0.31289  1.0000
  C   C2152     1.0  0.94427  0.22464  0.41146  1.0000
  C   C2153     1.0  0.93083  0.19587  0.38873  1.0000
  C   C2154     1.0  0.78520  0.06789  0.01300  1.0000
  S   S301      1.0  0.77549  0.03237  0.40125  1.0000
  Fe  Fe150     1.0  0.75147  0.01320  0.04689  1.0000
  H   H1722     1.0  0.94111  0.19232  0.46742  1.0000
  H   H1723     1.0  0.67461  0.06319  0.26672  1.0000
  C   C2155     1.0  0.90647  0.23407  0.04053  1.0000
  C   C2156     1.0  0.81425  0.23359  0.24146  1.0000
  C   C2157     1.0  0.81600  0.19151  0.28624  1.0000
  H   H1724     1.0  0.68849  0.03181  0.19774  1.0000
  C   C2158     1.0  0.66854  0.01814  0.38419  1.0000
  H   H1725     1.0  0.81141  0.05685  0.47403  1.0000
  C   C2159     1.0  0.82888  0.16324  0.27218  1.0000
  H   H1726     1.0  0.80003  0.22444  0.23637  1.0000
  C   C2160     1.0  0.76272  0.14213  0.42674  1.0000
  C   C2161     1.0  0.74559  0.13613  0.44547  1.0000
  C   C2162     1.0  0.72776  0.12449  0.43611  1.0000
  C   C2163     1.0  0.72682  0.11903  0.40768  1.0000
  C   C2164     1.0  0.74391  0.12528  0.38873  1.0000
  C   C2165     1.0  0.76181  0.13664  0.39827  1.0000
  S   S302      1.0  0.66035  0.01519  0.44432  1.0000
  H   H1727     1.0  0.71463  0.12024  0.45045  1.0000
  H   H1728     1.0  0.74334  0.12125  0.36662  1.0000
  H   H1729     1.0  0.77483  0.14133  0.38352  1.0000
  C   C2166     1.0  0.79136  0.05601  0.39060  1.0000
  C   C2167     1.0  0.79236  0.06938  0.40997  1.0000
  C   C2168     1.0  0.80630  0.08786  0.40447  1.0000
  C   C2169     1.0  0.81948  0.09312  0.37952  1.0000
  C   C2170     1.0  0.81808  0.07994  0.35958  1.0000
  C   C2171     1.0  0.80400  0.06148  0.36498  1.0000
  H   H1730     1.0  0.78241  0.06525  0.42956  1.0000
  H   H1731     1.0  0.80724  0.09789  0.41988  1.0000
  H   H1732     1.0  0.82818  0.08389  0.34017  1.0000
  H   H1733     1.0  0.80347  0.05129  0.34997  1.0000
  C   C2172     1.0  0.67170  0.02738  0.10910  1.0000
  H   H1734     1.0  0.85739  0.22990  0.37048  1.0000
  C   C2173     1.0  0.75024  0.17767  0.30045  1.0000
  C   C2174     1.0  0.93468  0.19980  0.16966  1.0000
  H   H1735     1.0  0.67992  0.15746  0.48336  1.0000
  H   H1736     1.0  0.92925  0.24855  0.25238  1.0000
  C   C2175     1.0  0.65811  0.02527  0.20849  1.0000
  H   H1737     1.0  0.79939  0.14080  0.32676  1.0000
  H   H1738     1.0  0.88290  0.14741  0.99108  1.0000
  H   H1739     1.0  0.78352  0.06225  0.03605  1.0000
  H   H1740     1.0  0.90275  0.22164  0.37964  1.0000
  H   H1741     1.0  0.79924  0.18517  0.24816  1.0000
  C   C2176     1.0  0.86679  0.23705  0.35078  1.0000
  C   C2177     1.0  0.87521  0.22727  0.33433  1.0000
  H   H1742     1.0  0.80077  0.18560  0.35080  1.0000
  C   C2178     1.0  0.83578  0.17309  0.29616  1.0000
  H   H1743     1.0  0.72392  0.01534  0.27777  1.0000
  H   H1744     1.0  0.90696  0.18048  0.45393  1.0000
  S   S303      1.0  0.75173  0.00959  0.32721  1.0000
  C   C2179     1.0  0.81991  0.23711  0.36905  1.0000
  C   C2180     1.0  0.77037  0.18342  0.30002  1.0000
  H   H1745     1.0  0.68555  0.05186  0.07735  1.0000
  C   C2181     1.0  0.74578  0.08692  0.43202  1.0000
  H   H1746     1.0  0.77339  0.10533  0.41048  1.0000
  H   H1747     1.0  0.68507  0.02535  0.11301  1.0000
  C   C2182     1.0  0.94521  0.20773  0.40441  1.0000
  C   C2183     1.0  0.80823  0.20370  0.38492  1.0000
  C   C2184     1.0  0.67197  0.04229  0.08887  1.0000
  C   C2185     1.0  0.95413  0.20307  0.17337  1.0000
  H   H1748     1.0  0.81046  0.16009  0.23618  1.0000
  C   C2186     1.0  0.91569  0.20106  0.37962  1.0000
  C   C2187     1.0  0.87276  0.23331  0.21121  1.0000
  C   C2188     1.0  0.90482  0.23246  0.21213  1.0000
  Fe  Fe151     1.0  0.65683  0.04285  0.43787  1.0000
  H   H1749     1.0  0.84612  0.16986  0.30950  1.0000
  H   H1750     1.0  0.86301  0.23943  0.20193  1.0000
  C   C2189     1.0  0.82506  0.24913  0.22102  1.0000
  S   S304      1.0  0.77815  0.00361  0.14559  1.0000
  H   H1751     1.0  0.89121  0.22525  0.04398  1.0000
  H   H1752     1.0  0.83383  0.15226  0.26696  1.0000
  C   C2190     1.0  0.80932  0.18178  0.26185  1.0000
  H   H1753     1.0  0.80416  0.19212  0.40251  1.0000
  H   H1754     1.0  0.83513  0.19488  0.32142  1.0000
  C   C2191     1.0  0.91465  0.21788  0.38678  1.0000
  C   C2192     1.0  0.89023  0.23080  0.43930  1.0000
  C   C2193     1.0  0.81569  0.16762  0.25495  1.0000
  C   C2194     1.0  0.87125  0.22811  0.44863  1.0000
  H   H1755     1.0  0.83329  0.23986  0.99157  1.0000
  H   H1756     1.0  0.66784  0.08937  0.28575  1.0000
  H   H1757     1.0  0.90490  0.19885  0.03026  1.0000
  C   C2195     1.0  0.73273  0.03019  0.27694  1.0000
  C   C2196     1.0  0.74896  0.03843  0.25669  1.0000
  C   C2197     1.0  0.76053  0.05748  0.25615  1.0000
  C   C2198     1.0  0.75591  0.06828  0.27591  1.0000
  C   C2199     1.0  0.73979  0.05999  0.29666  1.0000
  C   C2200     1.0  0.72825  0.04088  0.29700  1.0000
  P   P69       1.0  0.73317  0.07376  0.32178  1.0000
  C   C2201     1.0  0.72622  0.06042  0.35808  1.0000
  C   C2202     1.0  0.75387  0.09518  0.32417  1.0000
  C   C2203     1.0  0.76774  0.09557  0.34439  1.0000
  C   C2204     1.0  0.78406  0.11201  0.34525  1.0000
  C   C2205     1.0  0.78669  0.12814  0.32602  1.0000
  C   C2206     1.0  0.77307  0.12784  0.30568  1.0000
  C   C2207     1.0  0.75679  0.11141  0.30460  1.0000
  C   C2208     1.0  0.71120  0.06162  0.37627  1.0000
  C   C2209     1.0  0.70581  0.05123  0.40422  1.0000
  C   C2210     1.0  0.71521  0.03949  0.41427  1.0000
  C   C2211     1.0  0.73022  0.03831  0.39649  1.0000
  C   C2212     1.0  0.73575  0.04869  0.36848  1.0000
  C   C2213     1.0  0.71295  0.07916  0.30896  1.0000
  C   C2214     1.0  0.70044  0.06811  0.28977  1.0000
  C   C2215     1.0  0.68431  0.07188  0.28128  1.0000
  C   C2216     1.0  0.68049  0.08662  0.29197  1.0000
  C   C2217     1.0  0.69277  0.09759  0.31121  1.0000
  C   C2218     1.0  0.70898  0.09396  0.31950  1.0000
  C   C2219     1.0  0.81802  0.23354  0.33957  1.0000
  H   H1758     1.0  0.75272  0.02998  0.24171  1.0000
  H   H1759     1.0  0.77318  0.06379  0.24055  1.0000
  H   H1760     1.0  0.76509  0.08299  0.27508  1.0000
  H   H1761     1.0  0.71581  0.03424  0.31290  1.0000
  H   H1762     1.0  0.76622  0.08319  0.35926  1.0000
  H   H1763     1.0  0.79482  0.11222  0.36068  1.0000
  H   H1764     1.0  0.77524  0.14029  0.29055  1.0000
  H   H1765     1.0  0.74659  0.11131  0.28829  1.0000
  H   H1766     1.0  0.70350  0.07045  0.36915  1.0000
  H   H1767     1.0  0.69398  0.05192  0.41780  1.0000
  H   H1768     1.0  0.71063  0.03105  0.43561  1.0000
  H   H1769     1.0  0.73746  0.02921  0.40440  1.0000
  H   H1770     1.0  0.74746  0.04749  0.35508  1.0000
  H   H1771     1.0  0.70288  0.05646  0.28151  1.0000
  H   H1772     1.0  0.65488  0.05605  0.06718  1.0000
  C   C2220     1.0  0.89437  0.17222  0.01341  1.0000
  H   H1773     1.0  0.71809  0.10233  0.33495  1.0000
  C   C2221     1.0  0.75365  0.20992  0.28696  1.0000
  C   C2222     1.0  0.74188  0.19089  0.29372  1.0000
  C   C2223     1.0  0.77380  0.21573  0.28670  1.0000
  H   H1774     1.0  0.74714  0.22022  0.28238  1.0000
  H   H1775     1.0  0.72626  0.18643  0.29429  1.0000
  H   H1776     1.0  0.66856  0.01317  0.28908  1.0000
  C   C2224     1.0  0.88455  0.15049  0.26975  1.0000
  C   C2225     1.0  0.87776  0.14876  0.29934  1.0000
  C   C2226     1.0  0.88247  0.16472  0.31407  1.0000
  C   C2227     1.0  0.89393  0.18239  0.29929  1.0000
  C   C2228     1.0  0.90097  0.18429  0.26969  1.0000
  C   C2229     1.0  0.89603  0.16819  0.25489  1.0000
  P   P70       1.0  0.91462  0.20745  0.25037  1.0000
  C   C2230     1.0  0.89815  0.21756  0.23522  1.0000
  C   C2231     1.0  0.92962  0.22261  0.27518  1.0000
  C   C2232     1.0  0.94906  0.22689  0.31757  1.0000
  H   H1777     1.0  0.95551  0.23362  0.42366  1.0000
  H   H1778     1.0  0.67693  0.02118  0.33759  1.0000
  H   H1779     1.0  0.90815  0.24104  0.08529  1.0000
  C   C2233     1.0  0.93726  0.21510  0.29868  1.0000
  S   S305      1.0  0.74389  0.01844  0.09288  1.0000
  C   C2234     1.0  0.93756  0.24548  0.46945  1.0000
  C   C2235     1.0  0.82186  0.22998  0.26807  1.0000
  H   H1780     1.0  0.95692  0.20368  0.41158  1.0000
  C   C2236     1.0  0.87865  0.21074  0.24635  1.0000
  C   C2237     1.0  0.93014  0.20566  0.22037  1.0000
  H   H1781     1.0  0.74610  0.14064  0.46726  1.0000
  H   H1782     1.0  0.92889  0.19630  0.14860  1.0000
  C   C2238     1.0  0.91045  0.18617  0.47469  1.0000
  H   H1783     1.0  0.89546  0.16450  0.03398  1.0000
  C   C2239     1.0  0.92272  0.20107  0.19304  1.0000
  H   H1784     1.0  0.88084  0.13808  0.25833  1.0000
  H   H1785     1.0  0.86878  0.13507  0.31094  1.0000
  H   H1786     1.0  0.87700  0.16342  0.33689  1.0000
  H   H1787     1.0  0.89720  0.19463  0.31090  1.0000
  H   H1788     1.0  0.90094  0.16920  0.23193  1.0000
  H   H1789     1.0  0.89577  0.22008  0.44661  1.0000
  C   C2240     1.0  0.86602  0.21855  0.23426  1.0000
  C   C2241     1.0  0.67687  0.01393  0.35910  1.0000
  H   H1790     1.0  0.73858  0.08543  0.41169  1.0000
  H   H1791     1.0  0.93419  0.20017  0.30237  1.0000
  H   H1792     1.0  0.72015  0.06933  0.45935  1.0000
  H   H1793     1.0  0.77654  0.17306  0.30630  1.0000
  C   C2242     1.0  0.65469  0.04459  0.08312  1.0000
  H   H1794     1.0  0.95582  0.21240  0.24473  1.0000
  H   H1795     1.0  0.87318  0.19960  0.26458  1.0000
  C   C2243     1.0  0.89970  0.19174  0.01118  1.0000
  H   H1796     1.0  0.93111  0.23057  0.46767  1.0000
  C   C2244     1.0  0.76539  0.09823  0.43132  1.0000
  C   C2245     1.0  0.81512  0.22219  0.39171  1.0000
  H   H1797     1.0  0.90767  0.19845  0.18980  1.0000
  H   H1798     1.0  0.74108  0.16298  0.30657  1.0000
  H   H1799     1.0  0.90457  0.19200  0.36727  1.0000
  H   H1800     1.0  0.81657  0.22490  0.41455  1.0000
  S   S306      1.0  0.87066  0.17686  0.48699  1.0000
  C   C2246     1.0  0.82945  0.18724  0.30304  1.0000
  C   C2247     1.0  0.80640  0.20007  0.35550  1.0000
  H   H1801     1.0  0.89432  0.22929  0.29650  1.0000
  P   P71       1.0  0.80812  0.21001  0.29476  1.0000
  C   C2248     1.0  0.78232  0.20245  0.29237  1.0000
  C   C2249     1.0  0.73543  0.07787  0.45894  1.0000
  C   C2250     1.0  0.84083  0.24148  0.27304  1.0000
  H   H1802     1.0  0.95480  0.22104  0.33576  1.0000
  H   H1803     1.0  0.80502  0.00305  0.18708  1.0000
  C   C2251     1.0  0.89218  0.24035  0.20031  1.0000
  C   C2252     1.0  0.91643  0.23693  0.01258  1.0000
  Fe  Fe152     1.0  0.76122  0.00857  0.37338  1.0000
  H   H1804     1.0  0.82143  0.24530  0.32249  1.0000
  H   H1805     1.0  0.78267  0.23060  0.28246  1.0000
  S   S307      1.0  0.66007  0.06146  0.39555  1.0000
  C   C2253     1.0  0.96161  0.20758  0.20051  1.0000
  C   C2254     1.0  0.67678  0.02695  0.21511  1.0000
  H   H1806     1.0  0.84738  0.23845  0.29269  1.0000
  H   H1807     1.0  0.85103  0.21328  0.24299  1.0000
  C   C2255     1.0  0.81165  0.21498  0.33251  1.0000
  H   H1808     1.0  0.86247  0.21546  0.46298  1.0000
  C   C2256     1.0  0.94968  0.20885  0.22396  1.0000
  C   C2257     1.0  0.88758  0.23671  0.30904  1.0000
  H   H1809     1.0  0.97669  0.21014  0.20337  1.0000
  C   C2258     1.0  0.77465  0.10069  0.45751  1.0000
  H   H1810     1.0  0.96340  0.20212  0.15521  1.0000
  C   C2259     1.0  0.66531  0.01616  0.26665  1.0000
  H   H1811     1.0  0.69490  0.02397  0.24943  1.0000
  C   C2260     1.0  0.91601  0.24300  0.06397  1.0000
  H   H1812     1.0  0.66185  0.02829  0.38177  1.0000
  C   C2261     1.0  0.65418  0.01465  0.12345  1.0000
  H   H1813     1.0  0.81909  0.25202  0.20065  1.0000
  H   H1814     1.0  0.65646  0.14921  0.44553  1.0000
  C   C2262     1.0  0.77527  0.05634  0.99229  1.0000
  H   H1815     1.0  0.89748  0.25209  0.18287  1.0000
  C   C2263     1.0  0.92984  0.19291  0.48240  1.0000
  H   H1816     1.0  0.65540  0.02901  0.18601  1.0000
  H   H1817     1.0  0.91987  0.23820  0.20349  1.0000
  C   C2264     1.0  0.93443  0.24212  0.27053  1.0000
  C   C2265     1.0  0.68038  0.02250  0.24420  1.0000
  C   C2266     1.0  0.93610  0.24877  0.00854  1.0000
  C   C2267     1.0  0.79749  0.08681  0.00382  1.0000
  H   H1818     1.0  0.69205  0.03836  0.48897  1.0000
  H   H1819     1.0  0.82509  0.25146  0.37429  1.0000
  H   H1820     1.0  0.79483  0.07895  0.47194  1.0000
  H   H1821     1.0  0.80522  0.09552  0.02001  1.0000
  C   C2268     1.0  0.65385  0.14009  0.46618  1.0000
  C   C2269     1.0  0.74478  0.07988  0.48516  1.0000
  C   C2270     1.0  0.76451  0.09141  0.48467  1.0000
  C   C2271     1.0  0.86426  0.25157  0.99340  1.0000
  C   C2272     1.0  0.66714  0.14472  0.48779  1.0000
  H   H1822     1.0  0.84891  0.23939  0.44669  1.0000
  C   C2273     1.0  0.86371  0.24166  0.43966  1.0000
  P   P72       1.0  0.92704  0.25119  0.41226  1.0000
  C   C2274     1.0  0.88148  0.24844  0.99030  1.0000
  C   C2275     1.0  0.90201  0.24730  0.42135  1.0000
  C   C2276     1.0  0.84656  0.23723  0.99010  1.0000
  H   H1823     1.0  0.65448  0.00294  0.13816  1.0000
  Fe  Fe153     1.0  0.82128  0.17542  0.89403  1.0000
  S   S308      1.0  0.82803  0.17119  0.84743  1.0000
  S   S309      1.0  0.81606  0.20167  0.90400  1.0000
  Fe  Fe154     1.0  0.82053  0.13680  0.91901  1.0000
  S   S310      1.0  0.82861  0.13060  0.87414  1.0000
  C   C2277     1.0  0.82278  0.20325  0.77892  1.0000
  Fe  Fe155     1.0  0.84991  0.16075  0.86710  1.0000
  S   S311      1.0  0.87897  0.17318  0.83915  1.0000
  Fe  Fe156     1.0  0.80610  0.14152  0.85766  1.0000
  S   S312      1.0  0.78711  0.12380  0.82422  1.0000
  S   S313      1.0  0.84389  0.16622  0.91338  1.0000
  S   S314      1.0  0.79730  0.14652  0.90296  1.0000
  H   H1824     1.0  0.91250  0.21795  0.88489  1.0000
  C   C2278     1.0  0.88195  0.23632  0.83239  1.0000
  C   C2279     1.0  0.67914  0.01061  0.63212  1.0000
  P   P73       1.0  0.68160  0.13798  0.54173  1.0000
  S   S315      1.0  0.96290  0.20339  0.88732  1.0000
  C   C2280     1.0  0.93475  0.20025  0.50943  1.0000
  S   S316      1.0  0.95949  0.20863  0.51798  1.0000
  S   S317      1.0  0.68763  0.07826  0.63348  1.0000
  Fe  Fe157     1.0  0.68607  0.08550  0.74353  1.0000
  S   S318      1.0  0.70444  0.10796  0.77153  1.0000
  S   S319      1.0  0.69723  0.06975  0.71354  1.0000
  C   C2281     1.0  0.67275  0.07374  0.60360  1.0000
  C   C2282     1.0  0.68089  0.07303  0.57563  1.0000
  C   C2283     1.0  0.66982  0.07064  0.55093  1.0000
  H   H1825     1.0  0.69588  0.07458  0.57294  1.0000
  H   H1826     1.0  0.67619  0.07012  0.52953  1.0000
  H   H1827     1.0  0.67713  0.10990  0.64552  1.0000
  Fe  Fe158     1.0  0.97264  0.22468  0.55684  1.0000
  C   C2284     1.0  0.94534  0.24110  0.91343  1.0000
  C   C2285     1.0  0.88115  0.23091  0.98369  1.0000
  C   C2286     1.0  0.90054  0.19372  0.52124  1.0000
  C   C2287     1.0  0.91995  0.20076  0.52870  1.0000
  C   C2288     1.0  0.68653  0.03214  0.51146  1.0000
  H   H1828     1.0  0.88923  0.19393  0.53660  1.0000
  H   H1829     1.0  0.92341  0.20633  0.54955  1.0000
  S   S320      1.0  0.66215  0.05942  0.76588  1.0000
  H   H1830     1.0  0.89087  0.23132  0.65377  1.0000
  C   C2289     1.0  0.70942  0.17282  0.51850  1.0000
  C   C2290     1.0  0.76390  0.11952  0.81040  1.0000
  C   C2291     1.0  0.75268  0.12992  0.81689  1.0000
  C   C2292     1.0  0.73455  0.12609  0.80499  1.0000
  C   C2293     1.0  0.72732  0.11187  0.78638  1.0000
  C   C2294     1.0  0.73853  0.10145  0.77997  1.0000
  C   C2295     1.0  0.75663  0.10524  0.79194  1.0000
  H   H1831     1.0  0.75804  0.14103  0.83084  1.0000
  H   H1832     1.0  0.72608  0.13429  0.81010  1.0000
  H   H1833     1.0  0.73331  0.09053  0.76567  1.0000
  H   H1834     1.0  0.76509  0.09705  0.78676  1.0000
  C   C2296     1.0  0.90201  0.18230  0.85336  1.0000
  C   C2297     1.0  0.91780  0.19551  0.83517  1.0000
  C   C2298     1.0  0.93646  0.20255  0.84549  1.0000
  C   C2299     1.0  0.93952  0.19619  0.87398  1.0000
  C   C2300     1.0  0.92369  0.18310  0.89217  1.0000
  C   C2301     1.0  0.90502  0.17627  0.88198  1.0000
  H   H1835     1.0  0.91557  0.20033  0.81305  1.0000
  H   H1836     1.0  0.94853  0.21251  0.83123  1.0000
  H   H1837     1.0  0.92593  0.17801  0.91416  1.0000
  H   H1838     1.0  0.89307  0.16585  0.89586  1.0000
  C   C2302     1.0  0.82957  0.22510  0.91118  1.0000
  C   C2303     1.0  0.81905  0.23645  0.91549  1.0000
  C   C2304     1.0  0.68873  0.03006  0.63264  1.0000
  C   C2305     1.0  0.77782  0.06407  0.96237  1.0000
  C   C2306     1.0  0.69502  0.11296  0.51659  1.0000
  C   C2307     1.0  0.84976  0.23276  0.91294  1.0000
  H   H1839     1.0  0.80353  0.23082  0.91411  1.0000
  H   H1840     1.0  0.88023  0.16490  0.94418  1.0000
  H   H1841     1.0  0.95722  0.16770  0.78612  1.0000
  H   H1842     1.0  0.85804  0.22408  0.91028  1.0000
  H   H1843     1.0  0.79445  0.18727  0.80093  1.0000
  C   C2308     1.0  0.94473  0.25134  0.49623  1.0000
  H   H1844     1.0  0.67656  0.16640  0.57673  1.0000
  H   H1845     1.0  0.74618  0.13435  0.54485  1.0000
  C   C2309     1.0  0.67176  0.01492  0.56903  1.0000
  H   H1846     1.0  0.71392  0.16527  0.50274  1.0000
  C   C2310     1.0  0.69160  0.00630  0.95383  1.0000
  H   H1847     1.0  0.95446  0.24021  0.78994  1.0000
  C   C2311     1.0  0.94981  0.17280  0.74168  1.0000
  H   H1848     1.0  0.89005  0.19942  0.93957  1.0000
  H   H1849     1.0  0.96316  0.17294  0.73123  1.0000
  C   C2312     1.0  0.70334  0.02434  0.67725  1.0000
  H   H1850     1.0  0.69314  0.03217  0.88853  1.0000
  H   H1851     1.0  0.88819  0.11606  0.68557  1.0000
  Fe  Fe159     1.0  0.98253  0.22775  0.62222  1.0000
  P   P74       1.0  0.77736  0.09341  0.51786  1.0000
  C   C2313     1.0  0.76057  0.08787  0.55026  1.0000
  C   C2314     1.0  0.78984  0.07732  0.51944  1.0000
  C   C2315     1.0  0.79333  0.06963  0.54683  1.0000
  C   C2316     1.0  0.80308  0.05722  0.54795  1.0000
  C   C2317     1.0  0.72754  0.11350  0.51984  1.0000
  H   H1852     1.0  0.68644  0.04003  0.61624  1.0000
  H   H1853     1.0  0.74785  0.09807  0.97183  1.0000
  C   C2318     1.0  0.75935  0.10214  0.56622  1.0000
  C   C2319     1.0  0.74594  0.09771  0.59073  1.0000
  C   C2320     1.0  0.73386  0.07906  0.59973  1.0000
  C   C2321     1.0  0.73515  0.06473  0.58433  1.0000
  C   C2322     1.0  0.74850  0.06909  0.55971  1.0000
  C   C2323     1.0  0.79470  0.11725  0.51670  1.0000
  H   H1854     1.0  0.77541  0.13001  0.49864  1.0000
  C   C2324     1.0  0.71930  0.04651  0.80750  1.0000
  C   C2325     1.0  0.82117  0.15441  0.51582  1.0000
  S   S321      1.0  0.97684  0.21372  0.66974  1.0000
  C   C2326     1.0  0.88593  0.17247  0.96270  1.0000
  C   C2327     1.0  0.90226  0.24512  0.82997  1.0000
  C   C2328     1.0  0.69826  0.02783  0.90875  1.0000
  C   C2329     1.0  0.70639  0.05550  0.80231  1.0000
  H   H1855     1.0  0.89845  0.15962  0.61328  1.0000
  H   H1856     1.0  0.88854  0.22937  0.77170  1.0000
  H   H1857     1.0  0.78871  0.07333  0.56733  1.0000
  H   H1858     1.0  0.75230  0.12616  0.88421  1.0000
  C   C2330     1.0  0.69900  0.02949  0.53199  1.0000
  S   S322      1.0  0.67644  0.01762  0.74924  1.0000
  H   H1859     1.0  0.83221  0.23015  0.84790  1.0000
  C   C2331     1.0  0.80268  0.15090  0.50646  1.0000
  H   H1860     1.0  0.74480  0.10873  0.60284  1.0000
  H   H1861     1.0  0.72349  0.07579  0.61867  1.0000
  H   H1862     1.0  0.72576  0.05028  0.59153  1.0000
  H   H1863     1.0  0.74935  0.05786  0.54791  1.0000
  H   H1864     1.0  0.72236  0.03870  0.79080  1.0000
  C   C2332     1.0  0.84080  0.21762  0.78062  1.0000
  C   C2333     1.0  0.94838  0.24715  0.74546  1.0000
  H   H1865     1.0  0.95016  0.23792  0.66170  1.0000
  H   H1866     1.0  0.76859  0.11670  0.55988  1.0000
  C   C2334     1.0  0.68839  0.17339  0.55995  1.0000
  H   H1867     1.0  0.94428  0.24101  0.51449  1.0000
  C   C2335     1.0  0.70050  0.03684  0.65542  1.0000
  H   H1868     1.0  0.71176  0.02961  0.69562  1.0000
  H   H1869     1.0  0.70678  0.05180  0.65693  1.0000
  C   C2336     1.0  0.80826  0.19870  0.80189  1.0000
  C   C2337     1.0  0.81172  0.20861  0.82649  1.0000
  C   C2338     1.0  0.82970  0.22296  0.82828  1.0000
  H   H1870     1.0  0.80064  0.20483  0.84469  1.0000
  H   H1871     1.0  0.93338  0.21872  0.94883  1.0000
  C   C2339     1.0  0.71038  0.01585  0.96155  1.0000
  H   H1872     1.0  0.94351  0.23275  0.74039  1.0000
  C   C2340     1.0  0.70219  0.06545  0.82381  1.0000
  C   C2341     1.0  0.71080  0.06633  0.85065  1.0000
  C   C2342     1.0  0.72409  0.05762  0.85585  1.0000
  C   C2343     1.0  0.72812  0.04753  0.83417  1.0000
  P   P75       1.0  0.73396  0.05726  0.89144  1.0000
  C   C2344     1.0  0.75726  0.05543  0.88603  1.0000
  C   C2345     1.0  0.73881  0.07926  0.90661  1.0000
  C   C2346     1.0  0.74316  0.09605  0.88766  1.0000
  C   C2347     1.0  0.74858  0.11328  0.89908  1.0000
  C   C2348     1.0  0.75004  0.11400  0.92944  1.0000
  C   C2349     1.0  0.74602  0.09746  0.94842  1.0000
  C   C2350     1.0  0.74038  0.08017  0.93713  1.0000
  C   C2351     1.0  0.75930  0.03809  0.89219  1.0000
  C   C2352     1.0  0.77761  0.03709  0.88932  1.0000
  C   C2353     1.0  0.79392  0.05328  0.87977  1.0000
  C   C2354     1.0  0.79191  0.07044  0.87264  1.0000
  C   C2355     1.0  0.77367  0.07151  0.87558  1.0000
  C   C2356     1.0  0.71727  0.03745  0.91615  1.0000
  C   C2357     1.0  0.78952  0.13241  0.50666  1.0000
  C   C2358     1.0  0.69454  0.00500  0.67622  1.0000
  H   H1873     1.0  0.73777  0.03811  0.94894  1.0000
  C   C2359     1.0  0.89119  0.13063  0.67758  1.0000
  H   H1874     1.0  0.69239  0.07266  0.81948  1.0000
  H   H1875     1.0  0.70707  0.07380  0.86727  1.0000
  H   H1876     1.0  0.73793  0.04032  0.83790  1.0000
  H   H1877     1.0  0.74311  0.09601  0.86391  1.0000
  C   C2360     1.0  0.69164  0.02087  0.56069  1.0000
  C   C2361     1.0  0.84607  0.21975  0.98361  1.0000
  C   C2362     1.0  0.69396  0.16319  0.53999  1.0000
  H   H1878     1.0  0.73794  0.06774  0.95231  1.0000
  H   H1879     1.0  0.74688  0.02540  0.89962  1.0000
  H   H1880     1.0  0.69968  0.05478  0.78154  1.0000
  H   H1881     1.0  0.80814  0.05258  0.87803  1.0000
  H   H1882     1.0  0.80451  0.08305  0.86521  1.0000
  H   H1883     1.0  0.77256  0.08502  0.86996  1.0000
  H   H1884     1.0  0.87682  0.20219  0.88902  1.0000
  S   S323      1.0  0.66644  0.09108  0.71010  1.0000
  C   C2363     1.0  0.66973  0.12876  0.57844  1.0000
  C   C2364     1.0  0.66682  0.02662  0.51982  1.0000
  H   H1885     1.0  0.81707  0.04294  0.52255  1.0000
  C   C2365     1.0  0.98343  0.22230  0.72666  1.0000
  C   C2366     1.0  0.71917  0.19229  0.51710  1.0000
  C   C2367     1.0  0.67896  0.12186  0.60029  1.0000
  H   H1886     1.0  0.86236  0.20292  0.97523  1.0000
  C   C2368     1.0  0.79988  0.09454  0.97392  1.0000
  C   C2369     1.0  0.73187  0.12829  0.53715  1.0000
  C   C2370     1.0  0.71777  0.13539  0.54431  1.0000
  H   H1887     1.0  0.79156  0.08868  0.93020  1.0000
  C   C2371     1.0  0.66395  0.13281  0.51444  1.0000
  C   C2372     1.0  0.91323  0.23843  0.84873  1.0000
  C   C2373     1.0  0.80633  0.06034  0.49445  1.0000
  H   H1888     1.0  0.69298  0.12122  0.59547  1.0000
  P   P76       1.0  0.86790  0.24560  0.80889  1.0000
  C   C2374     1.0  0.80949  0.05252  0.52176  1.0000
  H   H1889     1.0  0.72131  0.14678  0.55791  1.0000
  H   H1890     1.0  0.83156  0.16873  0.51486  1.0000
  C   C2375     1.0  0.92120  0.23668  0.65593  1.0000
  H   H1891     1.0  0.73852  0.10819  0.51391  1.0000
  C   C2376     1.0  0.90019  0.24897  0.73251  1.0000
  H   H1892     1.0  0.85726  0.21363  0.85626  1.0000
  H   H1893     1.0  0.87999  0.20133  0.68673  1.0000
  C   C2377     1.0  0.87284  0.22078  0.85381  1.0000
  H   H1894     1.0  0.65919  0.01532  0.69362  1.0000
  C   C2378     1.0  0.85910  0.25152  0.91957  1.0000
  C   C2379     1.0  0.68555  0.01229  0.92747  1.0000
  H   H1895     1.0  0.84109  0.14227  0.53201  1.0000
  H   H1896     1.0  0.82012  0.19538  0.76002  1.0000
  C   C2380     1.0  0.86065  0.18287  0.77434  1.0000
  C   C2381     1.0  0.84378  0.16786  0.76975  1.0000
  C   C2382     1.0  0.84399  0.15666  0.74756  1.0000
  C   C2383     1.0  0.86116  0.16022  0.73026  1.0000
  C   C2384     1.0  0.87832  0.17501  0.73521  1.0000
  C   C2385     1.0  0.87781  0.18657  0.75695  1.0000
  P   P77       1.0  0.90090  0.17941  0.71401  1.0000
  C   C2386     1.0  0.91879  0.17611  0.73731  1.0000
  C   C2387     1.0  0.89742  0.16267  0.68755  1.0000
  C   C2388     1.0  0.89352  0.14375  0.69769  1.0000
  H   H1897     1.0  0.75483  0.12743  0.93814  1.0000
  H   H1898     1.0  0.67095  0.00490  0.92159  1.0000
  Fe  Fe160     1.0  0.67213  0.04421  0.73355  1.0000
  C   C2389     1.0  0.89918  0.16830  0.65693  1.0000
  C   C2390     1.0  0.93597  0.17572  0.72417  1.0000
  C   C2391     1.0  0.93225  0.23128  0.93770  1.0000
  C   C2392     1.0  0.94650  0.16991  0.77247  1.0000
  C   C2393     1.0  0.92922  0.16964  0.78573  1.0000
  C   C2394     1.0  0.91536  0.17264  0.76831  1.0000
  C   C2395     1.0  0.90901  0.20276  0.69394  1.0000
  C   C2396     1.0  0.92880  0.21346  0.68703  1.0000
  C   C2397     1.0  0.93483  0.23020  0.66786  1.0000
  C   C2398     1.0  0.69930  0.12793  0.53378  1.0000
  C   C2399     1.0  0.90146  0.22642  0.66336  1.0000
  C   C2400     1.0  0.89536  0.20949  0.68220  1.0000
  H   H1899     1.0  0.86062  0.19108  0.79234  1.0000
  H   H1900     1.0  0.83060  0.16462  0.78378  1.0000
  H   H1901     1.0  0.83088  0.14495  0.74429  1.0000
  H   H1902     1.0  0.86092  0.15123  0.71340  1.0000
  H   H1903     1.0  0.89087  0.19792  0.76139  1.0000
  H   H1904     1.0  0.89231  0.13917  0.72121  1.0000
  C   C2401     1.0  0.88389  0.21435  0.87280  1.0000
  S   S324      1.0  0.81599  0.11837  0.96348  1.0000
  H   H1905     1.0  0.90254  0.18281  0.64826  1.0000
  H   H1906     1.0  0.93878  0.17774  0.70030  1.0000
  C   C2402     1.0  0.91838  0.23804  0.94799  1.0000
  C   C2403     1.0  0.71357  0.20231  0.53711  1.0000
  H   H1907     1.0  0.92645  0.16700  0.80963  1.0000
  H   H1908     1.0  0.90199  0.17190  0.77941  1.0000
  H   H1909     1.0  0.93970  0.20875  0.69556  1.0000
  H   H1910     1.0  0.85180  0.22067  0.76269  1.0000
  C   C2404     1.0  0.89145  0.19200  0.96024  1.0000
  S   S325      1.0  0.95662  0.22709  0.59787  1.0000
  Fe  Fe161     1.0  0.67596  0.07308  0.68177  1.0000
  C   C2405     1.0  0.72320  0.03122  0.94270  1.0000
  C   C2406     1.0  0.79670  0.07280  0.49330  1.0000
  C   C2407     1.0  0.84443  0.22759  0.80539  1.0000
  H   H1911     1.0  0.89123  0.12621  0.63157  1.0000
  H   H1912     1.0  0.65366  0.03117  0.63401  1.0000
  C   C2408     1.0  0.70911  0.10575  0.50979  1.0000
  H   H1913     1.0  0.95623  0.23599  0.90599  1.0000
  H   H1914     1.0  0.72116  0.21740  0.53605  1.0000
  C   C2409     1.0  0.89289  0.13633  0.64718  1.0000
  C   C2410     1.0  0.89691  0.15515  0.63688  1.0000
  H   H1915     1.0  0.70580  0.09431  0.49629  1.0000
  H   H1916     1.0  0.70136  0.01846  0.57617  1.0000
  H   H1917     1.0  0.69386  0.20063  0.57403  1.0000
  C   C2411     1.0  0.69819  0.19286  0.55849  1.0000
  H   H1918     1.0  0.92888  0.24495  0.84645  1.0000
  H   H1919     1.0  0.92596  0.24945  0.64049  1.0000
  H   H1920     1.0  0.81782  0.10953  0.53373  1.0000
  H   H1921     1.0  0.73109  0.19959  0.50049  1.0000
  C   C2412     1.0  0.89561  0.18631  0.49429  1.0000
  C   C2413     1.0  0.81331  0.12089  0.52618  1.0000
  H   H1922     1.0  0.71512  0.01145  0.98220  1.0000
  C   C2414     1.0  0.82651  0.13942  0.52556  1.0000
  H   H1923     1.0  0.96896  0.21207  0.73271  1.0000
  C   C2415     1.0  0.90402  0.22324  0.87043  1.0000
  H   H1924     1.0  0.71430  0.03391  0.52549  1.0000
  C   C2416     1.0  0.78984  0.08303  0.95326  1.0000
  H   H1925     1.0  0.80577  0.05134  0.56912  1.0000
  H   H1926     1.0  0.77919  0.02380  0.89494  1.0000
  C   C2417     1.0  0.88990  0.24285  0.76026  1.0000
  H   H1927     1.0  0.68084  0.10676  0.50846  1.0000
  H   H1928     1.0  0.73644  0.07260  0.50559  1.0000
  H   H1929     1.0  0.90659  0.24019  0.72267  1.0000
  C   C2418     1.0  0.89817  0.20177  0.98459  1.0000
  H   H1930     1.0  0.65716  0.02880  0.50395  1.0000
  C   C2419     1.0  0.95463  0.25136  0.77335  1.0000
  C   C2420     1.0  0.66995  0.11533  0.62886  1.0000
  C   C2421     1.0  0.65945  0.01814  0.54851  1.0000
  H   H1931     1.0  0.79873  0.16253  0.49821  1.0000
  P   P78       1.0  0.90343  0.22673  0.98184  1.0000
  C   C2422     1.0  0.86326  0.21657  0.98038  1.0000
  H   H1932     1.0  0.83238  0.20880  0.98016  1.0000
  H   H1933     1.0  0.77066  0.05530  0.94598  1.0000
  C   C2423     1.0  0.88737  0.16258  0.98924  1.0000
  H   H1934     1.0  0.94408  0.25171  0.98715  1.0000
  C   C2424     1.0  0.65335  0.07169  0.60680  1.0000
  H   H1935     1.0  0.91195  0.26166  0.35736  1.0000
  S   S326      1.0  0.95037  0.45094  0.23082  1.0000
  H   H1936     1.0  0.85136  0.30793  0.03629  1.0000
  Fe  Fe162     1.0  0.93648  0.34203  0.23550  1.0000
  S   S327      1.0  0.94305  0.33059  0.19429  1.0000
  S   S328      1.0  0.95601  0.37045  0.24802  1.0000
  Fe  Fe163     1.0  0.90617  0.30393  0.26241  1.0000
  S   S329      1.0  0.91011  0.28980  0.22350  1.0000
  S   S330      1.0  0.88598  0.28894  0.30351  1.0000
  Fe  Fe164     1.0  0.94184  0.30579  0.22546  1.0000
  S   S331      1.0  0.96097  0.28930  0.22211  1.0000
  Fe  Fe165     1.0  0.91075  0.31561  0.19508  1.0000
  S   S332      1.0  0.89344  0.30786  0.15495  1.0000
  S   S333      1.0  0.93799  0.31813  0.26648  1.0000
  S   S334      1.0  0.90403  0.32872  0.23432  1.0000
  S   S335      1.0  0.91133  0.35069  0.02373  1.0000
  H   H1937     1.0  0.87113  0.36685  0.00649  1.0000
  C   C2425     1.0  0.87041  0.25608  0.34138  1.0000
  C   C2426     1.0  0.95242  0.28373  0.47640  1.0000
  H   H1938     1.0  0.98269  0.29847  0.34988  1.0000
  P   P79       1.0  0.97259  0.39623  0.13348  1.0000
  C   C2427     1.0  0.89992  0.31982  0.11850  1.0000
  C   C2428     1.0  0.91092  0.33912  0.11305  1.0000
  C   C2429     1.0  0.91414  0.34844  0.08398  1.0000
  C   C2430     1.0  0.90720  0.33843  0.05993  1.0000
  C   C2431     1.0  0.89656  0.31906  0.06534  1.0000
  C   C2432     1.0  0.89270  0.30988  0.09450  1.0000
  H   H1939     1.0  0.91641  0.34692  0.13133  1.0000
  H   H1940     1.0  0.92203  0.36347  0.08007  1.0000
  H   H1941     1.0  0.89083  0.31121  0.04718  1.0000
  H   H1942     1.0  0.88403  0.29499  0.09847  1.0000
  C   C2433     1.0  0.88245  0.26537  0.31560  1.0000
  H   H1943     1.0  0.86606  0.26606  0.25683  1.0000
  C   C2434     1.0  0.98295  0.38419  0.15954  1.0000
  C   C2435     1.0  0.94556  0.25776  0.03196  1.0000
  C   C2436     1.0  0.95470  0.36442  0.45647  1.0000
  C   C2437     1.0  0.97022  0.40501  0.36024  1.0000
  C   C2438     1.0  0.95237  0.42875  0.23338  1.0000
  C   C2439     1.0  0.93596  0.41259  0.23060  1.0000
  C   C2440     1.0  0.93687  0.39460  0.23446  1.0000
  C   C2441     1.0  0.95427  0.39269  0.24075  1.0000
  C   C2442     1.0  0.97071  0.40891  0.24304  1.0000
  C   C2443     1.0  0.96982  0.42686  0.23925  1.0000
  H   H1944     1.0  0.92238  0.41395  0.22620  1.0000
  H   H1945     1.0  0.92399  0.38222  0.23353  1.0000
  H   H1946     1.0  0.97889  0.47853  0.09021  1.0000
  H   H1947     1.0  0.85201  0.27307  0.21100  1.0000
  C   C2444     1.0  0.97576  0.35831  0.34720  1.0000
  C   C2445     1.0  0.98411  0.37516  0.41070  1.0000
  H   H1948     1.0  0.95271  0.36272  0.10537  1.0000
  C   C2446     1.0  0.97409  0.37137  0.46287  1.0000
  H   H1949     1.0  0.95451  0.35492  0.05442  1.0000
  C   C2447     1.0  0.93823  0.25877  0.44564  1.0000
  H   H1950     1.0  0.97568  0.45796  0.16029  1.0000
  H   H1951     1.0  0.91147  0.30300  0.35036  1.0000
  H   H1952     1.0  0.95016  0.26887  0.28505  1.0000
  C   C2448     1.0  0.97408  0.43147  0.14671  1.0000
  H   H1953     1.0  0.96635  0.30035  0.15692  1.0000
  C   C2449     1.0  0.86125  0.33787  0.02451  1.0000
  H   H1954     1.0  0.88740  0.34396  0.36709  1.0000
  H   H1955     1.0  0.98423  0.40761  0.24779  1.0000
  C   C2450     1.0  0.97834  0.31080  0.14292  1.0000
  C   C2451     1.0  0.98009  0.36290  0.31652  1.0000
  H   H1956     1.0  0.86369  0.26357  0.35390  1.0000
  C   C2452     1.0  0.96997  0.42214  0.34741  1.0000
  H   H1957     1.0  0.86590  0.34108  0.04628  1.0000
  C   C2453     1.0  0.95941  0.42268  0.32291  1.0000
  C   C2454     1.0  0.93570  0.39416  0.12147  1.0000
  H   H1958     1.0  0.97390  0.37157  0.30383  1.0000
  H   H1959     1.0  0.90357  0.27442  0.40071  1.0000
  C   C2455     1.0  0.91769  0.37179  0.17427  1.0000
  Fe  Fe166     1.0  0.97649  0.47683  0.23742  1.0000
  C   C2456     1.0  0.98452  0.42106  0.13659  1.0000
  C   C2457     1.0  0.94901  0.40607  0.31134  1.0000
  C   C2458     1.0  0.97481  0.32291  0.12113  1.0000
  H   H1960     1.0  0.89507  0.25973  0.99303  1.0000
  H   H1961     1.0  0.94418  0.32582  0.35529  1.0000
  C   C2459     1.0  0.94548  0.27794  0.44945  1.0000
  H   H1962     1.0  0.98265  0.27070  0.25288  1.0000
  H   H1963     1.0  0.97892  0.36052  0.13519  1.0000
  C   C2460     1.0  0.98440  0.36711  0.15449  1.0000
  H   H1964     1.0  0.94602  0.37350  0.18478  1.0000
  H   H1965     1.0  0.94153  0.37631  0.31392  1.0000
  H   H1966     1.0  0.81594  0.38563  0.99354  1.0000
  C   C2461     1.0  0.95596  0.29376  0.32972  1.0000
  H   H1967     1.0  0.94524  0.28838  0.43195  1.0000
  H   H1968     1.0  0.94247  0.40267  0.10077  1.0000
  H   H1969     1.0  0.96285  0.30350  0.31003  1.0000
  C   C2462     1.0  0.95977  0.38821  0.34866  1.0000
  C   C2463     1.0  0.96463  0.36798  0.40408  1.0000
  C   C2464     1.0  0.95826  0.27845  0.37766  1.0000
  H   H1970     1.0  0.93485  0.35723  0.42274  1.0000
  H   H1971     1.0  0.95939  0.43595  0.31258  1.0000
  C   C2465     1.0  0.89984  0.34001  0.36512  1.0000
  C   C2466     1.0  0.93775  0.37774  0.16855  1.0000
  C   C2467     1.0  0.85154  0.25704  0.25265  1.0000
  C   C2468     1.0  0.92723  0.27030  0.35681  1.0000
  C   C2469     1.0  0.89459  0.26121  0.41335  1.0000
  C   C2470     1.0  0.97768  0.38124  0.03859  1.0000
  C   C2471     1.0  0.96434  0.36833  0.06017  1.0000
  H   H1972     1.0  0.88311  0.31190  0.35558  1.0000
  C   C2472     1.0  0.91343  0.31691  0.35580  1.0000
  C   C2473     1.0  0.91565  0.38818  0.12729  1.0000
  C   C2474     1.0  0.91839  0.35314  0.36805  1.0000
  C   C2475     1.0  0.93603  0.28331  0.33193  1.0000
  H   H1973     1.0  0.90706  0.39201  0.11117  1.0000
  P   P80       1.0  0.95871  0.36574  0.36617  1.0000
  H   H1974     1.0  0.96053  0.26744  0.02822  1.0000
  H   H1975     1.0  0.95768  0.29849  0.47936  1.0000
  C   C2476     1.0  0.93200  0.33000  0.35855  1.0000
  H   H1976     1.0  0.96716  0.27632  0.39478  1.0000
  H   H1977     1.0  0.92743  0.28492  0.31397  1.0000
  H   H1978     1.0  0.89108  0.37214  0.15813  1.0000
  H   H1979     1.0  0.95856  0.42512  0.15184  1.0000
  C   C2477     1.0  0.90664  0.37699  0.15371  1.0000
  C   C2478     1.0  0.93466  0.34830  0.36448  1.0000
  H   H1980     1.0  0.91065  0.36301  0.19460  1.0000
  C   C2479     1.0  0.84361  0.26098  0.22677  1.0000
  H   H1981     1.0  0.96007  0.32172  0.11806  1.0000
  C   C2480     1.0  0.89738  0.32194  0.35881  1.0000
  H   H1982     1.0  0.97819  0.43507  0.35612  1.0000
  C   C2481     1.0  0.94939  0.38895  0.32379  1.0000
  H   H1983     1.0  0.94964  0.50205  0.40668  1.0000
  H   H1984     1.0  0.94334  0.36036  0.47424  1.0000
  H   H1985     1.0  0.97951  0.34178  0.38609  1.0000
  H   H1986     1.0  0.86962  0.26883  0.41534  1.0000
  C   C2482     1.0  0.96712  0.29106  0.35234  1.0000
  H   H1987     1.0  0.97832  0.37773  0.01620  1.0000
  C   C2483     1.0  0.94687  0.38895  0.14206  1.0000
  H   H1988     1.0  0.96289  0.25544  0.32727  1.0000
  H   H1989     1.0  0.97865  0.40503  0.37903  1.0000
  C   C2484     1.0  0.96327  0.37286  0.08898  1.0000
  H   H1990     1.0  0.94077  0.40650  0.29243  1.0000
  H   H1991     1.0  0.90056  0.26263  0.27988  1.0000
  C   C2485     1.0  0.94996  0.36268  0.42719  1.0000
  C   C2486     1.0  0.93813  0.26838  0.38046  1.0000
  H   H1992     1.0  0.92008  0.36718  0.37246  1.0000
  H   H1993     1.0  0.83990  0.37084  0.99190  1.0000
  C   C2487     1.0  0.98335  0.34628  0.36269  1.0000
  C   C2488     1.0  0.97536  0.39046  0.09644  1.0000
  H   H1994     1.0  0.98256  0.43921  0.24126  1.0000
  C   C2489     1.0  0.87538  0.25821  0.42203  1.0000
  C   C2490     1.0  0.98378  0.45017  0.15171  1.0000
  H   H1995     1.0  0.91601  0.49979  0.40936  1.0000
  H   H1996     1.0  0.94282  0.26222  0.07754  1.0000
  C   C2491     1.0  0.98227  0.29816  0.24027  1.0000
  C   C2492     1.0  0.93553  0.25491  0.05964  1.0000
  C   C2493     1.0  0.85314  0.31918  0.01885  1.0000
  H   H1997     1.0  0.97776  0.37279  0.48553  1.0000
  C   C2494     1.0  0.86431  0.35246  0.00177  1.0000
  C   C2495     1.0  0.89117  0.25565  0.29964  1.0000
  H   H1998     1.0  0.97348  0.46585  0.38244  1.0000
  H   H1999     1.0  0.86465  0.26527  0.99765  1.0000
  H   H2000     1.0  0.98070  0.25937  0.45423  1.0000
  H   H2001     1.0  0.96560  0.47821  0.42721  1.0000
  C   C2496     1.0  0.97731  0.48727  0.41136  1.0000
  C   C2497     1.0  0.94633  0.25383  0.28931  1.0000
  C   C2498     1.0  0.98184  0.48017  0.38622  1.0000
  H   H2002     1.0  0.97906  0.44529  0.43176  1.0000
  H   H2003     1.0  0.98175  0.42357  0.47379  1.0000
  C   C2499     1.0  0.84781  0.31503  0.99053  1.0000
  H   H2004     1.0  0.98598  0.32714  0.23051  1.0000
  H   H2005     1.0  0.96520  0.42407  0.72979  1.0000
  S   S336      1.0  0.89459  0.33564  0.94247  1.0000
  Fe  Fe167     1.0  0.92882  0.31058  0.95967  1.0000
  S   S337      1.0  0.91516  0.30904  0.91646  1.0000
  S   S338      1.0  0.94774  0.29533  0.97399  1.0000
  Fe  Fe168     1.0  0.92243  0.34023  0.91654  1.0000
  S   S339      1.0  0.93163  0.35757  0.87075  1.0000
  Fe  Fe169     1.0  0.88824  0.30460  0.94444  1.0000
  S   S340      1.0  0.85789  0.28571  0.93516  1.0000
  S   S341      1.0  0.93877  0.34188  0.95743  1.0000
  H   H2006     1.0  0.81960  0.26318  0.92591  1.0000
  C   C2500     1.0  0.82365  0.38611  0.97265  1.0000
  S   S342      1.0  0.96237  0.44664  0.83208  1.0000
  H   H2007     1.0  0.89822  0.47418  0.53239  1.0000
  H   H2008     1.0  0.97526  0.37666  0.77674  1.0000
  C   C2501     1.0  0.96783  0.49553  0.85913  1.0000
  C   C2502     1.0  0.95496  0.28011  0.73061  1.0000
  C   C2503     1.0  0.85947  0.34847  0.97298  1.0000
  H   H2009     1.0  0.96868  0.31156  0.53310  1.0000
  Fe  Fe170     1.0  0.97815  0.46616  0.78970  1.0000
  C   C2504     1.0  0.96130  0.26997  0.77977  1.0000
  C   C2505     1.0  0.88215  0.36240  0.89027  1.0000
  H   H2010     1.0  0.92882  0.46986  0.54244  1.0000
  H   H2011     1.0  0.95519  0.26553  0.88094  1.0000
  C   C2506     1.0  0.95401  0.42180  0.84214  1.0000
  C   C2507     1.0  0.94991  0.41462  0.87232  1.0000
  C   C2508     1.0  0.94310  0.39509  0.88150  1.0000
  C   C2509     1.0  0.94021  0.38240  0.86055  1.0000
  C   C2510     1.0  0.94412  0.38955  0.83034  1.0000
  C   C2511     1.0  0.95094  0.40909  0.82117  1.0000
  H   H2012     1.0  0.95212  0.42429  0.88872  1.0000
  H   H2013     1.0  0.94012  0.38985  0.90478  1.0000
  H   H2014     1.0  0.94172  0.37992  0.81387  1.0000
  H   H2015     1.0  0.95349  0.41431  0.79791  1.0000
  C   C2512     1.0  0.94467  0.25768  0.89922  1.0000
  C   C2513     1.0  0.92726  0.48287  0.54629  1.0000
  C   C2514     1.0  0.96626  0.31087  0.91960  1.0000
  C   C2515     1.0  0.96444  0.29804  0.94449  1.0000
  H   H2016     1.0  0.90758  0.26049  0.94123  1.0000
  C   C2516     1.0  0.92618  0.41306  0.94589  1.0000
  H   H2017     1.0  0.95834  0.32008  0.91944  1.0000
  C   C2517     1.0  0.84817  0.26254  0.92472  1.0000
  H   H2018     1.0  0.96738  0.30612  0.83176  1.0000
  H   H2019     1.0  0.93196  0.39197  0.97423  1.0000
  P   P81       1.0  0.86511  0.36747  0.94302  1.0000
  C   C2518     1.0  0.97812  0.31154  0.89466  1.0000
  C   C2519     1.0  0.96805  0.29893  0.59601  1.0000
  H   H2020     1.0  0.90964  0.25723  0.81378  1.0000
  H   H2021     1.0  0.89611  0.37021  0.89798  1.0000
  H   H2022     1.0  0.83940  0.26304  0.80083  1.0000
  C   C2520     1.0  0.97367  0.35465  0.71127  1.0000
  H   H2023     1.0  0.87698  0.28032  0.76751  1.0000
  H   H2024     1.0  0.82710  0.40280  0.89991  1.0000
  H   H2025     1.0  0.89548  0.29112  0.71876  1.0000
  H   H2026     1.0  0.80939  0.40165  0.94771  1.0000
  H   H2027     1.0  0.96228  0.34287  0.75567  1.0000
  C   C2521     1.0  0.88877  0.38556  0.94529  1.0000
  H   H2028     1.0  0.83301  0.33324  0.86131  1.0000
  H   H2029     1.0  0.88098  0.29382  0.87797  1.0000
  H   H2030     1.0  0.83282  0.28733  0.82572  1.0000
  S   S343      1.0  0.95520  0.27529  0.59216  1.0000
  H   H2031     1.0  0.94368  0.47010  0.85417  1.0000
  H   H2032     1.0  0.97412  0.27697  0.96451  1.0000
  H   H2033     1.0  0.89969  0.36787  0.97309  1.0000
  H   H2034     1.0  0.95547  0.49486  0.56192  1.0000
  H   H2035     1.0  0.94277  0.30190  0.61541  1.0000
  H   H2036     1.0  0.91643  0.43069  0.91650  1.0000
  C   C2522     1.0  0.95209  0.27042  0.49978  1.0000
  C   C2523     1.0  0.98002  0.41265  0.70051  1.0000
  C   C2524     1.0  0.94917  0.48533  0.85156  1.0000
  H   H2037     1.0  0.96613  0.27305  0.80152  1.0000
  H   H2038     1.0  0.84189  0.30053  0.98593  1.0000
  C   C2525     1.0  0.88171  0.35554  0.86290  1.0000
  H   H2039     1.0  0.85349  0.30252  0.86477  1.0000
  C   C2526     1.0  0.86423  0.26460  0.82513  1.0000
  H   H2040     1.0  0.95964  0.33555  0.62070  1.0000
  C   C2527     1.0  0.87234  0.28747  0.86044  1.0000
  H   H2041     1.0  0.91323  0.31204  0.84902  1.0000
  Fe  Fe171     1.0  0.97761  0.49282  0.73504  1.0000
  H   H2042     1.0  0.87453  0.25721  0.92154  1.0000
  C   C2528     1.0  0.92087  0.31087  0.80336  1.0000
  H   H2043     1.0  0.93053  0.27742  0.89849  1.0000
  C   C2529     1.0  0.90773  0.50181  0.54641  1.0000
  C   C2530     1.0  0.82993  0.39576  0.91993  1.0000
  H   H2044     1.0  0.91027  0.27113  0.69607  1.0000
  C   C2531     1.0  0.86403  0.34508  0.85242  1.0000
  C   C2532     1.0  0.96207  0.28454  0.75811  1.0000
  H   H2045     1.0  0.96907  0.36638  0.71194  1.0000
  H   H2046     1.0  0.89518  0.35826  0.84997  1.0000
  C   C2533     1.0  0.96874  0.35886  0.81790  1.0000
  C   C2534     1.0  0.84510  0.28373  0.83116  1.0000
  H   H2047     1.0  0.92369  0.48685  0.83285  1.0000
  C   C2535     1.0  0.84358  0.38736  0.91879  1.0000
  C   C2536     1.0  0.87607  0.27360  0.84673  1.0000
  C   C2537     1.0  0.94241  0.49716  0.55715  1.0000
  H   H2048     1.0  0.85121  0.38807  0.89773  1.0000
  C   C2538     1.0  0.97523  0.28664  0.94507  1.0000
  H   H2049     1.0  0.97237  0.41473  0.68160  1.0000
  C   C2539     1.0  0.98570  0.32452  0.70955  1.0000
  C   C2540     1.0  0.95799  0.30890  0.60819  1.0000
  H   H2050     1.0  0.90775  0.31202  0.79571  1.0000
  H   H2051     1.0  0.95717  0.27478  0.52091  1.0000
  H   H2052     1.0  0.95454  0.29091  0.71395  1.0000
  C   C2541     1.0  0.91248  0.41707  0.92944  1.0000
  C   C2542     1.0  0.84710  0.34836  0.89667  1.0000
  H   H2053     1.0  0.97940  0.32124  0.87525  1.0000
  C   C2543     1.0  0.92380  0.31062  0.83347  1.0000
  C   C2544     1.0  0.90280  0.38160  0.96127  1.0000
  C   C2545     1.0  0.96958  0.34109  0.73591  1.0000
  H   H2054     1.0  0.94067  0.42357  0.94587  1.0000
  Fe  Fe172     1.0  0.97319  0.25804  0.58763  1.0000
  C   C2546     1.0  0.96751  0.32792  0.61112  1.0000
  C   C2547     1.0  0.94047  0.30868  0.84356  1.0000
  C   C2548     1.0  0.85083  0.32957  0.96772  1.0000
  C   C2549     1.0  0.86482  0.35887  0.90739  1.0000
  C   C2550     1.0  0.93498  0.30989  0.78319  1.0000
  C   C2551     1.0  0.97336  0.49087  0.50002  1.0000
  C   C2552     1.0  0.83731  0.37770  0.97161  1.0000
  H   H2055     1.0  0.96537  0.34435  0.86178  1.0000
  C   C2553     1.0  0.92133  0.39532  0.96178  1.0000
  C   C2554     1.0  0.85677  0.29239  0.85295  1.0000
  C   C2555     1.0  0.89392  0.27764  0.73039  1.0000
  S   S344      1.0  0.90133  0.30358  0.98784  1.0000
  H   H2056     1.0  0.88779  0.26960  0.85385  1.0000
  P   P82       1.0  0.97069  0.30841  0.76695  1.0000
  C   C2556     1.0  0.84737  0.37822  0.94464  1.0000
  H   H2057     1.0  0.86379  0.33971  0.83129  1.0000
  C   C2557     1.0  0.93075  0.26434  0.90903  1.0000
  H   H2058     1.0  0.94258  0.30822  0.86695  1.0000
  C   C2558     1.0  0.97515  0.35514  0.84531  1.0000
  H   H2059     1.0  0.83358  0.34534  0.90963  1.0000
  C   C2559     1.0  0.95462  0.30776  0.82348  1.0000
  C   C2560     1.0  0.88341  0.27145  0.75805  1.0000
  C   C2561     1.0  0.97511  0.32563  0.73493  1.0000
  H   H2060     1.0  0.95399  0.35084  0.81333  1.0000
  C   C2562     1.0  0.95227  0.30905  0.79306  1.0000
  C   C2563     1.0  0.90995  0.48522  0.54083  1.0000
  H   H2061     1.0  0.97907  0.27137  0.67655  1.0000
  H   H2062     1.0  0.84720  0.32583  0.94587  1.0000
  C   C2564     1.0  0.98087  0.37359  0.79729  1.0000
  C   C2565     1.0  0.84672  0.34147  0.86931  1.0000
  H   H2063     1.0  0.93254  0.31005  0.75990  1.0000
  C   C2566     1.0  0.93792  0.49477  0.83956  1.0000
  Fe  Fe173     1.0  0.91029  0.33486  0.98371  1.0000
  C   C2567     1.0  0.89385  0.40341  0.92914  1.0000
  H   H2064     1.0  0.97698  0.34581  0.53192  1.0000
  C   C2568     1.0  0.98369  0.35311  0.68574  1.0000
  C   C2569     1.0  0.81996  0.39513  0.94684  1.0000
  H   H2065     1.0  0.88363  0.40671  0.91580  1.0000
  C   C2570     1.0  0.84884  0.26993  0.81720  1.0000
  H   H2066     1.0  0.97680  0.48811  0.86727  1.0000
  C   C2571     1.0  0.98178  0.32135  0.52060  1.0000
  H   H2067     1.0  0.95818  0.48830  0.49844  1.0000
  S   S345      1.0  0.97432  0.46235  0.74156  1.0000
  S   S346      1.0  0.97850  0.49573  0.78337  1.0000
  H   H2068     1.0  0.96789  0.47127  0.53963  1.0000
  C   C2572     1.0  0.97611  0.41807  0.72763  1.0000
  C   C2573     1.0  0.97878  0.48109  0.52328  1.0000
  C   C2574     1.0  0.94839  0.26151  0.72424  1.0000
  C   C2575     1.0  0.90225  0.26638  0.71758  1.0000
  C   C2576     1.0  0.91768  0.25463  0.93337  1.0000
  C   C2577     1.0  0.82820  0.25488  0.92218  1.0000
  H   H2069     1.0  0.98408  0.42147  0.77205  1.0000
  H   H2070     1.0  0.94335  0.25831  0.70276  1.0000
  C   C2578     1.0  0.88127  0.25395  0.77312  1.0000
  C   C2579     1.0  0.70870  0.65143  0.42935  1.0000
  C   C2580     1.0  0.79525  0.65531  0.01888  1.0000
  H   H2071     1.0  0.89387  0.73794  0.48869  1.0000
  H   H2072     1.0  0.89315  0.66282  0.23307  1.0000
  H   H2073     1.0  0.92476  0.56585  0.27800  1.0000
  S   S347      1.0  0.94786  0.72619  0.05088  1.0000
  Fe  Fe174     1.0  0.83430  0.67373  0.35986  1.0000
  S   S348      1.0  0.82699  0.66532  0.40880  1.0000
  S   S349      1.0  0.86464  0.69123  0.33806  1.0000
  Fe  Fe175     1.0  0.79232  0.65008  0.34419  1.0000
  S   S350      1.0  0.78258  0.63963  0.39225  1.0000
  S   S351      1.0  0.77315  0.64785  0.30513  1.0000
  Fe  Fe176     1.0  0.79896  0.66934  0.40169  1.0000
  S   S352      1.0  0.78289  0.68445  0.42628  1.0000
  Fe  Fe177     1.0  0.81147  0.63656  0.39514  1.0000
  S   S353      1.0  0.81584  0.61153  0.41918  1.0000
  S   S354      1.0  0.80751  0.68004  0.35340  1.0000
  S   S355      1.0  0.81999  0.64470  0.34646  1.0000
  Fe  Fe178     1.0  0.96677  0.73331  0.40182  1.0000
  P   P83       1.0  0.66941  0.71166  0.48383  1.0000
  C   C2581     1.0  0.84646  0.74450  0.47499  1.0000
  C   C2582     1.0  0.90835  0.62528  0.00061  1.0000
  H   H2074     1.0  0.73204  0.62887  0.41947  1.0000
  S   S356      1.0  0.95777  0.71053  0.13549  1.0000
  P   P84       1.0  0.79481  0.69135  0.01505  1.0000
  Fe  Fe179     1.0  0.95424  0.59239  0.42268  1.0000
  S   S357      1.0  0.93613  0.58806  0.38414  1.0000
  C   C2583     1.0  0.86627  0.73871  0.38961  1.0000
  Fe  Fe180     1.0  0.92102  0.56638  0.46577  1.0000
  S   S358      1.0  0.90003  0.55971  0.43020  1.0000
  Fe  Fe181     1.0  0.92458  0.55767  0.40233  1.0000
  H   H2075     1.0  0.97135  0.61959  0.46900  1.0000
  Fe  Fe182     1.0  0.91336  0.59075  0.41512  1.0000
  S   S359      1.0  0.90072  0.61200  0.39844  1.0000
  S   S360      1.0  0.94448  0.56171  0.43892  1.0000
  S   S361      1.0  0.93262  0.59755  0.45244  1.0000
  Fe  Fe183     1.0  0.68003  0.58229  0.22305  1.0000
  S   S362      1.0  0.68563  0.59977  0.17866  1.0000
  S   S363      1.0  0.70129  0.58284  0.25868  1.0000
  Fe  Fe184     1.0  0.66839  0.57315  0.15974  1.0000
  S   S364      1.0  0.67756  0.56598  0.11566  1.0000
  C   C2584     1.0  0.89194  0.68381  0.01855  1.0000
  C   C2585     1.0  0.72900  0.60583  0.39498  1.0000
  H   H2076     1.0  0.80755  0.68299  0.47487  1.0000
  C   C2586     1.0  0.67100  0.56234  0.05700  1.0000
  C   C2587     1.0  0.85346  0.70519  0.00875  1.0000
  C   C2588     1.0  0.91916  0.64748  0.45555  1.0000
  H   H2077     1.0  0.68295  0.55763  0.05646  1.0000
  C   C2589     1.0  0.67436  0.73969  0.43749  1.0000
  C   C2590     1.0  0.85071  0.63294  0.48436  1.0000
  C   C2591     1.0  0.95058  0.59981  0.02148  1.0000
  H   H2078     1.0  0.96921  0.60269  0.25952  1.0000
  C   C2592     1.0  0.88452  0.70621  0.13644  1.0000
  H   H2079     1.0  0.66063  0.60990  0.31241  1.0000
  C   C2593     1.0  0.91717  0.51006  0.45176  1.0000
  C   C2594     1.0  0.68700  0.66280  0.35390  1.0000
  H   H2080     1.0  0.75203  0.71337  0.07307  1.0000
  H   H2081     1.0  0.87110  0.70046  0.12597  1.0000
  C   C2595     1.0  0.71354  0.62813  0.38361  1.0000
  C   C2596     1.0  0.75308  0.62949  0.29294  1.0000
  C   C2597     1.0  0.74820  0.61050  0.30326  1.0000
  C   C2598     1.0  0.73254  0.59649  0.29216  1.0000
  C   C2599     1.0  0.72137  0.60121  0.27088  1.0000
  C   C2600     1.0  0.72622  0.62021  0.26060  1.0000
  C   C2601     1.0  0.74201  0.63420  0.27146  1.0000
  H   H2082     1.0  0.75660  0.60658  0.31957  1.0000
  H   H2083     1.0  0.72900  0.58186  0.30024  1.0000
  H   H2084     1.0  0.71782  0.62411  0.24428  1.0000
  H   H2085     1.0  0.74567  0.64882  0.26317  1.0000
  C   C2602     1.0  0.78397  0.69110  0.46262  1.0000
  C   C2603     1.0  0.72102  0.59642  0.37106  1.0000
  H   H2086     1.0  0.74142  0.62623  0.16434  1.0000
  C   C2604     1.0  0.88469  0.70089  0.35932  1.0000
  C   C2605     1.0  0.88206  0.70298  0.38909  1.0000
  C   C2606     1.0  0.89814  0.71229  0.40466  1.0000
  C   C2607     1.0  0.91702  0.71934  0.39094  1.0000
  C   C2608     1.0  0.91976  0.71653  0.36152  1.0000
  C   C2609     1.0  0.90365  0.70750  0.34574  1.0000
  H   H2087     1.0  0.86759  0.69796  0.39980  1.0000
  H   H2088     1.0  0.93216  0.73306  0.11910  1.0000
  H   H2089     1.0  0.93423  0.72194  0.35059  1.0000
  H   H2090     1.0  0.90599  0.70597  0.32279  1.0000
  C   C2610     1.0  0.83928  0.61129  0.41316  1.0000
  C   C2611     1.0  0.85377  0.62617  0.39572  1.0000
  C   C2612     1.0  0.87240  0.62595  0.39136  1.0000
  C   C2613     1.0  0.87685  0.61104  0.40461  1.0000
  C   C2614     1.0  0.86242  0.59613  0.42217  1.0000
  C   C2615     1.0  0.84367  0.59627  0.42644  1.0000
  C   C2616     1.0  0.83382  0.69749  0.01863  1.0000
  H   H2091     1.0  0.88350  0.63748  0.37773  1.0000
  H   H2092     1.0  0.86569  0.58453  0.43241  1.0000
  H   H2093     1.0  0.83254  0.58475  0.44007  1.0000
  C   C2617     1.0  0.92640  0.70934  0.03904  1.0000
  C   C2618     1.0  0.89696  0.68104  0.04762  1.0000
  C   C2619     1.0  0.91415  0.69354  0.05773  1.0000
  H   H2094     1.0  0.88735  0.66916  0.06247  1.0000
  H   H2095     1.0  0.91773  0.69115  0.08015  1.0000
  H   H2096     1.0  0.82174  0.62911  0.47366  1.0000
  H   H2097     1.0  0.74413  0.64494  0.03188  1.0000
  H   H2098     1.0  0.85301  0.62553  0.46646  1.0000
  C   C2620     1.0  0.70604  0.61887  0.35907  1.0000
  P   P85       1.0  0.98076  0.51530  0.44736  1.0000
  H   H2099     1.0  0.77891  0.73669  0.09575  1.0000
  C   C2621     1.0  0.95856  0.54684  0.35620  1.0000
  C   C2622     1.0  0.94010  0.53330  0.35436  1.0000
  H   H2100     1.0  0.72266  0.71477  0.01688  1.0000
  S   S365      1.0  0.91951  0.53466  0.37272  1.0000
  C   C2623     1.0  0.66952  0.70002  0.17905  1.0000
  H   H2101     1.0  0.96030  0.55855  0.36863  1.0000
  Fe  Fe185     1.0  0.96681  0.72579  0.08954  1.0000
  H   H2102     1.0  0.92561  0.64075  0.47158  1.0000
  C   C2624     1.0  0.77086  0.69895  0.47215  1.0000
  C   C2625     1.0  0.93722  0.63909  0.19194  1.0000
  C   C2626     1.0  0.67673  0.73295  0.12258  1.0000
  H   H2103     1.0  0.76866  0.68112  0.32146  1.0000
  C   C2627     1.0  0.91926  0.72074  0.16317  1.0000
  H   H2104     1.0  0.72350  0.66111  0.00228  1.0000
  C   C2628     1.0  0.73430  0.72299  0.46713  1.0000
  H   H2105     1.0  0.65349  0.52935  0.15608  1.0000
  C   C2629     1.0  0.65899  0.68229  0.08064  1.0000
  C   C2630     1.0  0.92128  0.71224  0.01002  1.0000
  H   H2106     1.0  0.82006  0.72087  0.04843  1.0000
  H   H2107     1.0  0.90374  0.74700  0.42891  1.0000
  C   C2631     1.0  0.66870  0.69036  0.02816  1.0000
  C   C2632     1.0  0.70071  0.70224  0.46618  1.0000
  C   C2633     1.0  0.68511  0.67877  0.19557  1.0000
  H   H2108     1.0  0.65615  0.66200  0.05000  1.0000
  C   C2634     1.0  0.88532  0.72402  0.48339  1.0000
  P   P86       1.0  0.93735  0.64547  0.03537  1.0000
  C   C2635     1.0  0.94185  0.62398  0.04135  1.0000
  C   C2636     1.0  0.95991  0.66525  0.02460  1.0000
  C   C2637     1.0  0.73022  0.66941  0.37256  1.0000
  C   C2638     1.0  0.70769  0.67430  0.06443  1.0000
  C   C2639     1.0  0.71447  0.61657  0.10511  1.0000
  H   H2109     1.0  0.70246  0.73294  0.09902  1.0000
  H   H2110     1.0  0.97145  0.64894  0.48677  1.0000
  C   C2640     1.0  0.95427  0.51669  0.32362  1.0000
  C   C2641     1.0  0.90427  0.69953  0.99975  1.0000
  H   H2111     1.0  0.76053  0.70059  0.45727  1.0000
  C   C2642     1.0  0.94842  0.59038  0.04996  1.0000
  C   C2643     1.0  0.93964  0.61439  0.06989  1.0000
  C   C2644     1.0  0.92654  0.64926  0.06902  1.0000
  C   C2645     1.0  0.90633  0.64196  0.07487  1.0000
  C   C2646     1.0  0.89802  0.64469  0.10121  1.0000
  C   C2647     1.0  0.90981  0.65475  0.12180  1.0000
  C   C2648     1.0  0.92993  0.66181  0.11629  1.0000
  C   C2649     1.0  0.93830  0.65903  0.09009  1.0000
  H   H2112     1.0  0.95124  0.57757  0.05340  1.0000
  H   H2113     1.0  0.96605  0.64186  0.20149  1.0000
  H   H2114     1.0  0.65369  0.69813  0.34529  1.0000
  P   P87       1.0  0.66292  0.70838  0.12070  1.0000
  C   C2650     1.0  0.93798  0.51828  0.33788  1.0000
  H   H2115     1.0  0.74001  0.65390  0.34253  1.0000
  H   H2116     1.0  0.82938  0.68860  0.03959  1.0000
  C   C2651     1.0  0.90356  0.66577  0.41401  1.0000
  H   H2117     1.0  0.75898  0.69369  0.03820  1.0000
  H   H2118     1.0  0.89602  0.71419  0.42741  1.0000
  H   H2119     1.0  0.74680  0.65882  0.14325  1.0000
  H   H2120     1.0  0.75650  0.62565  0.00290  1.0000
  C   C2652     1.0  0.74262  0.66739  0.35032  1.0000
  H   H2121     1.0  0.93573  0.61990  0.08901  1.0000
  H   H2122     1.0  0.89693  0.63441  0.05899  1.0000
  H   H2123     1.0  0.88241  0.63934  0.10529  1.0000
  H   H2124     1.0  0.90338  0.65725  0.14185  1.0000
  H   H2125     1.0  0.93911  0.66955  0.13223  1.0000
  H   H2126     1.0  0.95395  0.66458  0.08632  1.0000
  C   C2653     1.0  0.66152  0.56347  0.03107  1.0000
  H   H2127     1.0  0.93032  0.67283  0.38739  1.0000
  H   H2128     1.0  0.85606  0.67403  0.46342  1.0000
  C   C2654     1.0  0.85831  0.70276  0.46045  1.0000
  C   C2655     1.0  0.68749  0.64824  0.37453  1.0000
  C   C2656     1.0  0.65686  0.74174  0.48208  1.0000
  H   H2129     1.0  0.94059  0.64125  0.16818  1.0000
  C   C2657     1.0  0.75074  0.70255  0.37008  1.0000
  C   C2658     1.0  0.65315  0.64496  0.34803  1.0000
  H   H2130     1.0  0.97002  0.68620  0.23415  1.0000
  C   C2659     1.0  0.94285  0.59761  0.07410  1.0000
  H   H2131     1.0  0.93190  0.62148  0.35402  1.0000
  C   C2660     1.0  0.95161  0.63940  0.21083  1.0000
  C   C2661     1.0  0.94770  0.51747  0.47402  1.0000
  P   P88       1.0  0.70601  0.63814  0.05971  1.0000
  C   C2662     1.0  0.98360  0.57447  0.23533  1.0000
  H   H2132     1.0  0.73842  0.60111  0.40830  1.0000
  S   S366      1.0  0.98462  0.73471  0.44089  1.0000
  C   C2663     1.0  0.88095  0.68422  0.23453  1.0000
  C   C2664     1.0  0.86392  0.68739  0.24091  1.0000
  P   P89       1.0  0.90299  0.70362  0.22007  1.0000
  C   C2665     1.0  0.92341  0.69681  0.22551  1.0000
  C   C2666     1.0  0.90219  0.70964  0.18077  1.0000
  H   H2133     1.0  0.69024  0.68882  0.46187  1.0000
  H   H2134     1.0  0.94785  0.68621  0.03173  1.0000
  H   H2135     1.0  0.89752  0.67280  0.39779  1.0000
  H   H2136     1.0  0.72418  0.58440  0.36584  1.0000
  Fe  Fe186     1.0  0.65654  0.60089  0.18881  1.0000
  C   C2667     1.0  0.93299  0.69995  0.25158  1.0000
  C   C2668     1.0  0.94956  0.69584  0.25487  1.0000
  C   C2669     1.0  0.95667  0.68858  0.23222  1.0000
  C   C2670     1.0  0.94686  0.68483  0.20670  1.0000
  C   C2671     1.0  0.93014  0.68871  0.20344  1.0000
  C   C2672     1.0  0.90700  0.72378  0.24003  1.0000
  C   C2673     1.0  0.89750  0.72166  0.26818  1.0000
  C   C2674     1.0  0.80515  0.71898  0.05368  1.0000
  C   C2675     1.0  0.82008  0.70105  0.00138  1.0000
  C   C2676     1.0  0.71247  0.66266  0.04635  1.0000
  C   C2677     1.0  0.79001  0.70576  0.04077  1.0000
  H   H2137     1.0  0.86392  0.70148  0.23773  1.0000
  C   C2678     1.0  0.67062  0.63198  0.38155  1.0000
  H   H2138     1.0  0.69905  0.58443  0.00376  1.0000
  H   H2139     1.0  0.67563  0.63194  0.01917  1.0000
  H   H2140     1.0  0.92806  0.70604  0.26909  1.0000
  H   H2141     1.0  0.95731  0.69899  0.27456  1.0000
  H   H2142     1.0  0.70375  0.59592  0.33414  1.0000
  H   H2143     1.0  0.95256  0.67943  0.18907  1.0000
  H   H2144     1.0  0.92288  0.68591  0.18332  1.0000
  H   H2145     1.0  0.88734  0.70811  0.27830  1.0000
  C   C2679     1.0  0.79732  0.68895  0.48196  1.0000
  C   C2680     1.0  0.73494  0.62872  0.14425  1.0000
  C   C2681     1.0  0.75898  0.68286  0.33824  1.0000
  C   C2682     1.0  0.73426  0.68717  0.38206  1.0000
  C   C2683     1.0  0.82624  0.72174  0.38698  1.0000
  H   H2146     1.0  0.80308  0.65966  0.99730  1.0000
  C   C2684     1.0  0.83386  0.72635  0.41399  1.0000
  H   H2147     1.0  0.81073  0.71480  0.38607  1.0000
  C   C2685     1.0  0.66520  0.56740  0.08351  1.0000
  C   C2686     1.0  0.66086  0.67679  0.05268  1.0000
  S   S367      1.0  0.87004  0.66733  0.00727  1.0000
  C   C2687     1.0  0.92988  0.65669  0.42891  1.0000
  C   C2688     1.0  0.90162  0.73698  0.28439  1.0000
  C   C2689     1.0  0.72350  0.61352  0.13029  1.0000
  C   C2690     1.0  0.72589  0.65717  0.44388  1.0000
  C   C2691     1.0  0.73785  0.64706  0.13243  1.0000
  C   C2692     1.0  0.72060  0.66993  0.01735  1.0000
  C   C2693     1.0  0.88070  0.69123  0.48466  1.0000
  H   H2148     1.0  0.74960  0.72575  0.46371  1.0000
  C   C2694     1.0  0.89277  0.65658  0.44065  1.0000
  C   C2695     1.0  0.77083  0.70381  0.04795  1.0000
  C   C2696     1.0  0.92115  0.74140  0.22896  1.0000
  S   S368      1.0  0.97040  0.70780  0.38739  1.0000
  H   H2149     1.0  0.93303  0.72603  0.17285  1.0000
  H   H2150     1.0  0.72491  0.68903  0.39916  1.0000
  H   H2151     1.0  0.98081  0.68278  0.30936  1.0000
  H   H2152     1.0  0.69785  0.62411  0.34399  1.0000
  H   H2153     1.0  0.72511  0.69530  0.45342  1.0000
  H   H2154     1.0  0.77383  0.67077  0.07244  1.0000
  H   H2155     1.0  0.84575  0.70003  0.44779  1.0000
  P   P90       1.0  0.86392  0.74072  0.45051  1.0000
  C   C2697     1.0  0.68109  0.68444  0.14345  1.0000
  C   C2698     1.0  0.68757  0.67543  0.16639  1.0000
  H   H2156     1.0  0.92371  0.50779  0.33630  1.0000
  C   C2699     1.0  0.65352  0.63040  0.36845  1.0000
  H   H2157     1.0  0.66954  0.67214  0.32429  1.0000
  H   H2158     1.0  0.87859  0.65697  0.44455  1.0000
  C   C2700     1.0  0.71425  0.62571  0.03419  1.0000
  C   C2701     1.0  0.92870  0.51677  0.47474  1.0000
  H   H2159     1.0  0.97254  0.56878  0.28160  1.0000
  H   H2160     1.0  0.94278  0.52615  0.22783  1.0000
  H   H2161     1.0  0.77683  0.61655  0.06980  1.0000
  C   C2702     1.0  0.67074  0.62377  0.09457  1.0000
  H   H2162     1.0  0.95255  0.50502  0.31112  1.0000
  H   H2163     1.0  0.89433  0.73508  0.30619  1.0000
  C   C2703     1.0  0.78911  0.66774  0.03296  1.0000
  C   C2704     1.0  0.65468  0.58062  0.30948  1.0000
  C   C2705     1.0  0.72003  0.70033  0.02534  1.0000
  C   C2706     1.0  0.77868  0.66155  0.06083  1.0000
  C   C2707     1.0  0.86934  0.72106  0.46640  1.0000
  H   H2164     1.0  0.69395  0.66537  0.16174  1.0000
  H   H2165     1.0  0.68955  0.67129  0.21341  1.0000
  H   H2166     1.0  0.75412  0.71607  0.37810  1.0000
  C   C2708     1.0  0.71715  0.63491  0.09321  1.0000
  C   C2709     1.0  0.91862  0.63615  0.20368  1.0000
  C   C2710     1.0  0.94738  0.63654  0.24150  1.0000
  C   C2711     1.0  0.92873  0.63370  0.25352  1.0000
  C   C2712     1.0  0.91434  0.63338  0.23435  1.0000
  P   P91       1.0  0.92250  0.62788  0.29295  1.0000
  C   C2713     1.0  0.90259  0.63484  0.30258  1.0000
  C   C2714     1.0  0.91629  0.60285  0.30232  1.0000
  C   C2715     1.0  0.90459  0.59329  0.32820  1.0000
  C   C2716     1.0  0.90009  0.57407  0.33575  1.0000
  C   C2717     1.0  0.90735  0.56421  0.31764  1.0000
  C   C2718     1.0  0.91904  0.57355  0.29186  1.0000
  C   C2719     1.0  0.92341  0.59275  0.28410  1.0000
  C   C2720     1.0  0.90630  0.65360  0.30700  1.0000
  C   C2721     1.0  0.89111  0.65905  0.31508  1.0000
  C   C2722     1.0  0.87213  0.64589  0.31893  1.0000
  C   C2723     1.0  0.86822  0.62728  0.31412  1.0000
  C   C2724     1.0  0.88334  0.62182  0.30548  1.0000
  C   C2725     1.0  0.94222  0.64090  0.31394  1.0000
  C   C2726     1.0  0.95615  0.65832  0.30169  1.0000
  C   C2727     1.0  0.97037  0.66912  0.31876  1.0000
  C   C2728     1.0  0.97079  0.66259  0.34830  1.0000
  C   C2729     1.0  0.95705  0.64522  0.36070  1.0000
  C   C2730     1.0  0.94277  0.63450  0.34365  1.0000
  H   H2167     1.0  0.90746  0.63584  0.18899  1.0000
  H   H2168     1.0  0.95857  0.63631  0.25578  1.0000
  H   H2169     1.0  0.89974  0.63070  0.24302  1.0000
  H   H2170     1.0  0.89896  0.60069  0.34268  1.0000
  H   H2171     1.0  0.89125  0.56688  0.35600  1.0000
  H   H2172     1.0  0.90404  0.54935  0.32376  1.0000
  H   H2173     1.0  0.93245  0.59957  0.26402  1.0000
  H   H2174     1.0  0.92091  0.66404  0.30458  1.0000
  H   H2175     1.0  0.89398  0.67340  0.31892  1.0000
  H   H2176     1.0  0.86050  0.65018  0.32584  1.0000
  H   H2177     1.0  0.85347  0.61706  0.31753  1.0000
  H   H2178     1.0  0.87992  0.60738  0.30156  1.0000
  H   H2179     1.0  0.95571  0.66383  0.27925  1.0000
  H   H2180     1.0  0.68342  0.68178  0.12113  1.0000
  H   H2181     1.0  0.96022  0.61315  0.30565  1.0000
  H   H2182     1.0  0.95717  0.64021  0.38376  1.0000
  H   H2183     1.0  0.70059  0.66867  0.08639  1.0000
  C   C2731     1.0  0.88035  0.66573  0.23812  1.0000
  C   C2732     1.0  0.72857  0.60370  0.00220  1.0000
  H   H2184     1.0  0.85066  0.63790  0.38562  1.0000
  C   C2733     1.0  0.91865  0.65914  0.99208  1.0000
  H   H2185     1.0  0.72110  0.59924  0.13944  1.0000
  C   C2734     1.0  0.98531  0.63553  0.09280  1.0000
  H   H2186     1.0  0.70534  0.60455  0.09493  1.0000
  H   H2187     1.0  0.67758  0.64387  0.43517  1.0000
  C   C2735     1.0  0.71168  0.69312  0.05408  1.0000
  H   H2188     1.0  0.65425  0.73765  0.14848  1.0000
  C   C2736     1.0  0.94730  0.61653  0.01716  1.0000
  C   C2737     1.0  0.97829  0.64943  0.46517  1.0000
  C   C2738     1.0  0.94383  0.50530  0.42659  1.0000
  H   H2189     1.0  0.77611  0.71216  0.33932  1.0000
  H   H2190     1.0  0.82399  0.72256  0.43372  1.0000
  C   C2739     1.0  0.70160  0.60850  0.02622  1.0000
  C   C2740     1.0  0.95396  0.53972  0.22983  1.0000
  H   H2191     1.0  0.94143  0.59043  0.09624  1.0000
  H   H2192     1.0  0.70776  0.70198  0.06799  1.0000
  C   C2741     1.0  0.86313  0.65075  0.24865  1.0000
  H   H2193     1.0  0.86277  0.63653  0.25170  1.0000
  C   C2742     1.0  0.85396  0.73535  0.41541  1.0000
  H   H2194     1.0  0.73210  0.66451  0.09767  1.0000
  C   C2743     1.0  0.72921  0.65020  0.10675  1.0000
  H   H2195     1.0  0.67896  0.62450  0.11383  1.0000
  H   H2196     1.0  0.66394  0.72723  0.37008  1.0000
  Fe  Fe187     1.0  0.98296  0.70185  0.12918  1.0000
  C   C2744     1.0  0.90044  0.64722  0.46163  1.0000
  C   C2745     1.0  0.69062  0.64985  0.47584  1.0000
  H   H2197     1.0  0.97824  0.71322  0.01768  1.0000
  C   C2746     1.0  0.76314  0.70037  0.34826  1.0000
  C   C2747     1.0  0.77428  0.64314  0.07403  1.0000
  H   H2198     1.0  0.66609  0.55952  0.01082  1.0000
  C   C2748     1.0  0.69105  0.64797  0.44558  1.0000
  C   C2749     1.0  0.84685  0.67243  0.25205  1.0000
  C   C2750     1.0  0.84646  0.65412  0.25599  1.0000
  C   C2751     1.0  0.97079  0.56407  0.25989  1.0000
  H   H2199     1.0  0.90865  0.61264  0.01274  1.0000
  C   C2752     1.0  0.67997  0.62890  0.06584  1.0000
  C   C2753     1.0  0.92065  0.64318  0.00677  1.0000
  H   H2200     1.0  0.94433  0.65687  0.42450  1.0000
  H   H2201     1.0  0.83324  0.64257  0.26489  1.0000
  S   S369      1.0  0.97790  0.67187  0.14518  1.0000
  C   C2754     1.0  0.72531  0.62163  0.40126  1.0000
  H   H2202     1.0  0.96639  0.63413  0.13064  1.0000
  C   C2755     1.0  0.66877  0.62795  0.04151  1.0000
  C   C2756     1.0  0.92205  0.66576  0.40809  1.0000
  H   H2203     1.0  0.89792  0.60988  0.46587  1.0000
  H   H2204     1.0  0.83392  0.67501  0.25792  1.0000
  C   C2757     1.0  0.73410  0.63189  0.02556  1.0000
  H   H2205     1.0  0.68632  0.60300  0.03332  1.0000
  C   C2758     1.0  0.97447  0.61278  0.30195  1.0000
  H   H2206     1.0  0.67389  0.69337  0.22461  1.0000
  H   H2207     1.0  0.79554  0.62747  0.02073  1.0000
  C   C2759     1.0  0.67622  0.69117  0.20187  1.0000
  C   C2760     1.0  0.78037  0.63085  0.05968  1.0000
  C   C2761     1.0  0.79094  0.63698  0.03216  1.0000
  C   C2762     1.0  0.67438  0.70943  0.03152  1.0000
  S   S370      1.0  0.66529  0.55522  0.20324  1.0000
  H   H2208     1.0  0.83273  0.72138  0.34058  1.0000
  H   H2209     1.0  0.73979  0.66034  0.43185  1.0000
  P   P92       1.0  0.70982  0.64937  0.39005  1.0000
  Fe  Fe188     1.0  0.97979  0.73591  0.15178  1.0000
  C   C2763     1.0  0.85859  0.73374  0.36276  1.0000
  C   C2764     1.0  0.66895  0.74365  0.13832  1.0000
  H   H2210     1.0  0.76608  0.63831  0.09536  1.0000
  C   C2765     1.0  0.76685  0.71489  0.06776  1.0000
  H   H2211     1.0  0.66057  0.62462  0.23808  1.0000
  H   H2212     1.0  0.69988  0.67527  0.34744  1.0000
  C   C2766     1.0  0.74119  0.62094  0.00953  1.0000
  C   C2767     1.0  0.95538  0.51160  0.45001  1.0000
  H   H2213     1.0  0.92947  0.74340  0.20814  1.0000
  C   C2768     1.0  0.83859  0.72544  0.36137  1.0000
  C   C2769     1.0  0.96059  0.68367  0.02476  1.0000
  C   C2770     1.0  0.97276  0.53009  0.32589  1.0000
  H   H2214     1.0  0.90151  0.71999  0.09540  1.0000
  C   C2771     1.0  0.97713  0.66258  0.01751  1.0000
  C   C2772     1.0  0.72047  0.70586  0.46132  1.0000
  H   H2215     1.0  0.97875  0.62068  0.09083  1.0000
  H   H2216     1.0  0.67997  0.71993  0.01233  1.0000
  H   H2217     1.0  0.86817  0.73582  0.34316  1.0000
  H   H2218     1.0  0.98153  0.67116  0.36169  1.0000
  C   C2773     1.0  0.88477  0.70245  0.16709  1.0000
  C   C2774     1.0  0.66987  0.66111  0.34070  1.0000
  C   C2775     1.0  0.70949  0.60291  0.35319  1.0000
  H   H2219     1.0  0.87137  0.69374  0.17983  1.0000
  C   C2776     1.0  0.97814  0.63283  0.45506  1.0000
  H   H2220     1.0  0.81285  0.74031  0.08326  1.0000
  C   C2777     1.0  0.69472  0.71588  0.47669  1.0000
  C   C2778     1.0  0.72842  0.73653  0.47784  1.0000
  H   H2221     1.0  0.66948  0.58191  0.31219  1.0000
  H   H2222     1.0  0.86394  0.70210  0.02191  1.0000
  C   C2779     1.0  0.91890  0.72460  0.13259  1.0000
  H   H2223     1.0  0.94617  0.53899  0.27603  1.0000
  C   C2780     1.0  0.96701  0.54958  0.20560  1.0000
  C   C2781     1.0  0.72538  0.65894  0.47412  1.0000
  C   C2782     1.0  0.69605  0.74109  0.11059  1.0000
  C   C2783     1.0  0.86407  0.68792  0.46942  1.0000
  C   C2784     1.0  0.70877  0.59769  0.00994  1.0000
  H   H2224     1.0  0.97942  0.54490  0.40479  1.0000
  H   H2225     1.0  0.67081  0.62040  0.39686  1.0000
  C   C2785     1.0  0.72443  0.68873  0.00704  1.0000
  H   H2226     1.0  0.68191  0.73274  0.42529  1.0000
  H   H2227     1.0  0.67658  0.72983  0.06130  1.0000
  C   C2786     1.0  0.90159  0.71724  0.11920  1.0000
  H   H2228     1.0  0.67022  0.68613  0.00646  1.0000
  C   C2787     1.0  0.83293  0.63486  0.48852  1.0000
  C   C2788     1.0  0.97691  0.74541  0.25477  1.0000
  C   C2789     1.0  0.66624  0.73228  0.46649  1.0000
  C   C2790     1.0  0.78198  0.72802  0.08051  1.0000
  C   C2791     1.0  0.80111  0.73006  0.07348  1.0000
  S   S371      1.0  0.93644  0.73316  0.41031  1.0000
  C   C2792     1.0  0.97792  0.69909  0.01703  1.0000
  C   C2793     1.0  0.97484  0.54517  0.34217  1.0000
  H   H2229     1.0  0.73872  0.66320  0.48513  1.0000
  H   H2230     1.0  0.97753  0.64870  0.01842  1.0000
  H   H2231     1.0  0.67695  0.64702  0.48835  1.0000
  C   C2794     1.0  0.67158  0.69649  0.14968  1.0000
  C   C2795     1.0  0.67265  0.71499  0.05948  1.0000
  S   S372      1.0  0.98620  0.68698  0.46003  1.0000
  C   C2796     1.0  0.95588  0.54695  0.25697  1.0000
  C   C2797     1.0  0.66552  0.70145  0.08446  1.0000
  S   S373      1.0  0.97441  0.50532  0.23536  1.0000
  H   H2232     1.0  0.98330  0.62185  0.34425  1.0000
  C   C2798     1.0  0.98373  0.74038  0.28153  1.0000
  H   H2233     1.0  0.96610  0.54358  0.18489  1.0000
  H   H2234     1.0  0.88182  0.74468  0.39007  1.0000
  H   H2235     1.0  0.95498  0.59423  0.00280  1.0000
  S   S374      1.0  0.97290  0.74618  0.19453  1.0000
  C   C2799     1.0  0.65385  0.69070  0.46930  1.0000
  C   C2800     1.0  0.88861  0.60253  0.48554  1.0000
  H   H2236     1.0  0.94919  0.62380  0.99504  1.0000
  C   C2801     1.0  0.97846  0.64310  0.11539  1.0000
  C   C2802     1.0  0.92469  0.50419  0.42783  1.0000
  H   H2237     1.0  0.93054  0.72447  0.99539  1.0000
  C   C2803     1.0  0.98159  0.73977  0.22802  1.0000
  C   C2804     1.0  0.97963  0.60687  0.27595  1.0000
  H   H2238     1.0  0.98001  0.74475  0.30198  1.0000
  H   H2239     1.0  0.66236  0.70935  0.18441  1.0000
  H   H2240     1.0  0.92693  0.67306  0.99746  1.0000
  H   H2241     1.0  0.88940  0.57585  0.47730  1.0000
  H   H2242     1.0  0.73911  0.74963  0.48315  1.0000
  C   C2805     1.0  0.70873  0.73307  0.48241  1.0000
  H   H2243     1.0  0.90267  0.51014  0.45185  1.0000
  C   C2806     1.0  0.98177  0.56685  0.20829  1.0000
  S   S375      1.0  0.98519  0.61239  0.41371  1.0000
  H   H2244     1.0  0.73412  0.59501  0.99032  1.0000
  Fe  Fe189     1.0  0.91334  0.57882  0.72156  1.0000
  S   S376      1.0  0.93118  0.59387  0.67931  1.0000
  Fe  Fe190     1.0  0.89242  0.60569  0.72483  1.0000
  S   S377      1.0  0.90821  0.62260  0.68243  1.0000
  S   S378      1.0  0.87149  0.61676  0.74683  1.0000
  Fe  Fe191     1.0  0.90375  0.59560  0.66378  1.0000
  S   S379      1.0  0.89997  0.59884  0.61447  1.0000
  Fe  Fe192     1.0  0.93460  0.62000  0.69973  1.0000
  S   S380      1.0  0.96175  0.64543  0.68772  1.0000
  S   S381      1.0  0.88508  0.57848  0.70473  1.0000
  S   S382      1.0  0.91952  0.60512  0.74377  1.0000
  H   H2245     1.0  0.76687  0.72128  0.93892  1.0000
  Fe  Fe193     1.0  0.84642  0.68070  0.90456  1.0000
  S   S383      1.0  0.83238  0.67339  0.95050  1.0000
  S   S384      1.0  0.85002  0.70771  0.87658  1.0000
  Fe  Fe194     1.0  0.85380  0.64467  0.90585  1.0000
  S   S385      1.0  0.83958  0.63440  0.95228  1.0000
  S   S386      1.0  0.86835  0.62753  0.88377  1.0000
  Fe  Fe195     1.0  0.81667  0.64473  0.93653  1.0000
  S   S387      1.0  0.78427  0.63457  0.94916  1.0000
  Fe  Fe196     1.0  0.85653  0.66392  0.96252  1.0000
  H   H2246     1.0  0.93019  0.51083  0.62699  1.0000
  S   S388      1.0  0.82965  0.65279  0.88948  1.0000
  S   S389      1.0  0.87200  0.67346  0.91711  1.0000
  H   H2247     1.0  0.92155  0.63989  0.59000  1.0000
  S   S390      1.0  0.74567  0.72073  0.86641  1.0000
  C   C2807     1.0  0.82639  0.71259  0.97417  1.0000
  H   H2248     1.0  0.69257  0.71615  0.53628  1.0000
  S   S391      1.0  0.71018  0.73575  0.87753  1.0000
  Fe  Fe197     1.0  0.72418  0.71888  0.90366  1.0000
  S   S392      1.0  0.70791  0.69268  0.93467  1.0000
  Fe  Fe198     1.0  0.73359  0.74012  0.84141  1.0000
  C   C2808     1.0  0.89368  0.63950  0.96397  1.0000
  C   C2809     1.0  0.93373  0.57310  0.81286  1.0000
  C   C2810     1.0  0.94526  0.51442  0.83531  1.0000
  H   H2249     1.0  0.66691  0.71924  0.67508  1.0000
  S   S393      1.0  0.66727  0.57450  0.87331  1.0000
  C   C2811     1.0  0.93234  0.52553  0.62646  1.0000
  C   C2812     1.0  0.89504  0.62349  0.97916  1.0000
  Fe  Fe199     1.0  0.68043  0.57043  0.91577  1.0000
  S   S394      1.0  0.70974  0.56757  0.91633  1.0000
  C   C2813     1.0  0.74720  0.62529  0.78648  1.0000
  S   S395      1.0  0.67459  0.59327  0.93612  1.0000
  Fe  Fe200     1.0  0.75982  0.74192  0.63016  1.0000
  C   C2814     1.0  0.87143  0.57310  0.51664  1.0000
  Fe  Fe201     1.0  0.72477  0.71229  0.60922  1.0000
  S   S396      1.0  0.73528  0.71973  0.56108  1.0000
  S   S397      1.0  0.69688  0.69084  0.63139  1.0000
  Fe  Fe202     1.0  0.76415  0.72147  0.57643  1.0000
  S   S398      1.0  0.78454  0.70894  0.55654  1.0000
  S   S399      1.0  0.75277  0.71164  0.62413  1.0000
  C   C2815     1.0  0.68106  0.67577  0.60937  1.0000
  C   C2816     1.0  0.68743  0.67289  0.58170  1.0000
  H   H2250     1.0  0.65661  0.66959  0.64071  1.0000
  H   H2251     1.0  0.70256  0.67957  0.57387  1.0000
  C   C2817     1.0  0.94321  0.69923  0.65946  1.0000
  C   C2818     1.0  0.74474  0.62364  0.73367  1.0000
  H   H2252     1.0  0.95711  0.53902  0.67791  1.0000
  H   H2253     1.0  0.94454  0.63813  0.81890  1.0000
  C   C2819     1.0  0.77080  0.70440  0.50079  1.0000
  C   C2820     1.0  0.75987  0.74971  0.70552  1.0000
  H   H2254     1.0  0.93650  0.52143  0.82518  1.0000
  H   H2255     1.0  0.68672  0.61376  0.82164  1.0000
  C   C2821     1.0  0.69561  0.67334  0.91630  1.0000
  C   C2822     1.0  0.69671  0.67507  0.88543  1.0000
  C   C2823     1.0  0.68678  0.65946  0.87098  1.0000
  H   H2256     1.0  0.81631  0.71549  0.96000  1.0000
  C   C2824     1.0  0.67452  0.64045  0.91813  1.0000
  C   C2825     1.0  0.68463  0.65600  0.93268  1.0000
  H   H2257     1.0  0.70510  0.68846  0.87271  1.0000
  H   H2258     1.0  0.79642  0.72324  0.64884  1.0000
  H   H2259     1.0  0.68871  0.74448  0.61219  1.0000
  H   H2260     1.0  0.68379  0.65466  0.95660  1.0000
  C   C2826     1.0  0.76455  0.61620  0.93698  1.0000
  C   C2827     1.0  0.76553  0.59907  0.93121  1.0000
  C   C2828     1.0  0.74875  0.58434  0.92431  1.0000
  C   C2829     1.0  0.73087  0.58654  0.92350  1.0000
  C   C2830     1.0  0.73005  0.60368  0.92910  1.0000
  C   C2831     1.0  0.74676  0.61838  0.93567  1.0000
  H   H2261     1.0  0.77903  0.59700  0.93277  1.0000
  H   H2262     1.0  0.74952  0.57104  0.92025  1.0000
  H   H2263     1.0  0.71640  0.60547  0.92923  1.0000
  H   H2264     1.0  0.74568  0.63130  0.94084  1.0000
  C   C2832     1.0  0.83419  0.71943  0.88344  1.0000
  C   C2833     1.0  0.84218  0.73902  0.88194  1.0000
  C   C2834     1.0  0.86388  0.58241  0.53536  1.0000
  C   C2835     1.0  0.98011  0.60775  0.58182  1.0000
  C   C2836     1.0  0.80191  0.72041  0.89002  1.0000
  C   C2837     1.0  0.81398  0.71003  0.88810  1.0000
  H   H2265     1.0  0.85450  0.57464  0.55481  1.0000
  P   P93       1.0  0.97351  0.55023  0.83610  1.0000
  H   H2266     1.0  0.78637  0.71325  0.89239  1.0000
  H   H2267     1.0  0.80763  0.69487  0.88932  1.0000
  H   H2268     1.0  0.91100  0.64322  0.74349  1.0000
  C   C2838     1.0  0.79736  0.69451  0.51061  1.0000
  C   C2839     1.0  0.78406  0.70220  0.52022  1.0000
  H   H2269     1.0  0.73037  0.69423  0.98450  1.0000
  H   H2270     1.0  0.91231  0.64645  0.79665  1.0000
  H   H2271     1.0  0.80771  0.69281  0.52543  1.0000
  H   H2272     1.0  0.76049  0.71023  0.50792  1.0000
  H   H2273     1.0  0.70223  0.62617  0.89027  1.0000
  C   C2840     1.0  0.70110  0.56676  0.81810  1.0000
  C   C2841     1.0  0.93017  0.61765  0.85609  1.0000
  C   C2842     1.0  0.74702  0.61582  0.76161  1.0000
  C   C2843     1.0  0.83030  0.74919  0.88551  1.0000
  C   C2844     1.0  0.87099  0.61987  0.78487  1.0000
  C   C2845     1.0  0.86088  0.63053  0.79525  1.0000
  C   C2846     1.0  0.86009  0.63319  0.82538  1.0000
  C   C2847     1.0  0.86898  0.62478  0.84557  1.0000
  C   C2848     1.0  0.87906  0.61414  0.83515  1.0000
  C   C2849     1.0  0.88019  0.61178  0.80495  1.0000
  H   H2274     1.0  0.85365  0.63676  0.77989  1.0000
  H   H2275     1.0  0.85241  0.64154  0.83305  1.0000
  H   H2276     1.0  0.88591  0.60754  0.85056  1.0000
  H   H2277     1.0  0.88791  0.60346  0.79731  1.0000
  C   C2850     1.0  0.90576  0.58580  0.58833  1.0000
  C   C2851     1.0  0.89879  0.56615  0.59278  1.0000
  C   C2852     1.0  0.90124  0.55604  0.56983  1.0000
  C   C2853     1.0  0.91057  0.56546  0.54221  1.0000
  C   C2854     1.0  0.91807  0.58511  0.53813  1.0000
  C   C2855     1.0  0.91556  0.59520  0.56099  1.0000
  H   H2278     1.0  0.89085  0.55872  0.61348  1.0000
  H   H2279     1.0  0.89526  0.54084  0.57323  1.0000
  H   H2280     1.0  0.92536  0.59258  0.51711  1.0000
  H   H2281     1.0  0.92103  0.61035  0.55721  1.0000
  C   C2856     1.0  0.92250  0.54939  0.64449  1.0000
  H   H2282     1.0  0.90059  0.70202  0.97742  1.0000
  S   S400      1.0  0.96159  0.50572  0.70410  1.0000
  C   C2857     1.0  0.97793  0.60522  0.74991  1.0000
  C   C2858     1.0  0.66322  0.62054  0.74918  1.0000
  C   C2859     1.0  0.94650  0.53928  0.60650  1.0000
  H   H2283     1.0  0.87476  0.72206  0.97370  1.0000
  H   H2284     1.0  0.96869  0.58733  0.68455  1.0000
  C   C2860     1.0  0.66943  0.63521  0.76705  1.0000
  Fe  Fe203     1.0  0.76456  0.74650  0.88540  1.0000
  C   C2861     1.0  0.90471  0.64884  0.52404  1.0000
  C   C2862     1.0  0.89112  0.70917  0.49213  1.0000
  C   C2863     1.0  0.92016  0.64787  0.56986  1.0000
  C   C2864     1.0  0.93276  0.66655  0.56228  1.0000
  C   C2865     1.0  0.93125  0.67650  0.53582  1.0000
  C   C2866     1.0  0.91727  0.66773  0.51680  1.0000
  H   H2285     1.0  0.72996  0.67496  0.84443  1.0000
  H   H2286     1.0  0.90583  0.62505  0.91501  1.0000
  H   H2287     1.0  0.65856  0.65092  0.69515  1.0000
  P   P94       1.0  0.65995  0.75233  0.64816  1.0000
  H   H2288     1.0  0.68772  0.66076  0.84720  1.0000
  H   H2289     1.0  0.97823  0.67383  0.81102  1.0000
  C   C2867     1.0  0.96030  0.66679  0.94343  1.0000
  H   H2290     1.0  0.76911  0.66092  0.98305  1.0000
  H   H2291     1.0  0.65662  0.62207  0.72893  1.0000
  Fe  Fe204     1.0  0.65929  0.59560  0.89541  1.0000
  H   H2292     1.0  0.97552  0.64602  0.79166  1.0000
  H   H2293     1.0  0.82849  0.72772  0.78384  1.0000
  H   H2294     1.0  0.95578  0.62798  0.62240  1.0000
  C   C2868     1.0  0.66479  0.66845  0.78941  1.0000
  H   H2295     1.0  0.73245  0.73842  0.68722  1.0000
  C   C2869     1.0  0.81292  0.66302  0.81155  1.0000
  C   C2870     1.0  0.98482  0.70473  0.87496  1.0000
  H   H2296     1.0  0.98053  0.60315  0.56020  1.0000
  H   H2297     1.0  0.94397  0.67322  0.57654  1.0000
  H   H2298     1.0  0.94135  0.69084  0.52948  1.0000
  H   H2299     1.0  0.97850  0.62501  0.65848  1.0000
  H   H2300     1.0  0.66217  0.74503  0.71168  1.0000
  Fe  Fe205     1.0  0.74435  0.74972  0.57124  1.0000
  H   H2301     1.0  0.76461  0.68460  0.82835  1.0000
  H   H2302     1.0  0.92085  0.52886  0.56139  1.0000
  H   H2303     1.0  0.68233  0.71118  0.81565  1.0000
  H   H2304     1.0  0.94019  0.50303  0.76037  1.0000
  C   C2871     1.0  0.90353  0.67449  0.84076  1.0000
  C   C2872     1.0  0.84392  0.65116  0.53114  1.0000
  H   H2305     1.0  0.68433  0.69663  0.77102  1.0000
  C   C2873     1.0  0.91936  0.61392  0.88328  1.0000
  H   H2306     1.0  0.95195  0.71247  0.66695  1.0000
  C   C2874     1.0  0.98143  0.64983  0.76899  1.0000
  C   C2875     1.0  0.92355  0.68481  0.83653  1.0000
  C   C2876     1.0  0.73195  0.59045  0.82748  1.0000
  C   C2877     1.0  0.74199  0.62702  0.85007  1.0000
  C   C2878     1.0  0.72230  0.55816  0.85016  1.0000
  C   C2879     1.0  0.73969  0.74162  0.70722  1.0000
  H   H2307     1.0  0.91410  0.59993  0.89532  1.0000
  C   C2880     1.0  0.74239  0.64085  0.73041  1.0000
  C   C2881     1.0  0.74242  0.65027  0.75510  1.0000
  C   C2882     1.0  0.74496  0.64263  0.78293  1.0000
  H   H2308     1.0  0.74827  0.60221  0.76393  1.0000
  C   C2883     1.0  0.77293  0.61493  0.82791  1.0000
  C   C2884     1.0  0.77934  0.61496  0.85646  1.0000
  C   C2885     1.0  0.79693  0.61313  0.86143  1.0000
  C   C2886     1.0  0.80841  0.61139  0.83787  1.0000
  C   C2887     1.0  0.80237  0.61170  0.80923  1.0000
  C   C2888     1.0  0.78465  0.61337  0.80423  1.0000
  H   H2309     1.0  0.94749  0.66075  0.63442  1.0000
  C   C2889     1.0  0.73065  0.64778  0.88906  1.0000
  C   C2890     1.0  0.75000  0.65392  0.87793  1.0000
  C   C2891     1.0  0.75564  0.64369  0.85828  1.0000
  H   H2310     1.0  0.74036  0.64676  0.70880  1.0000
  H   H2311     1.0  0.74029  0.66344  0.75293  1.0000
  H   H2312     1.0  0.74472  0.65014  0.80163  1.0000
  H   H2313     1.0  0.80151  0.61276  0.88371  1.0000
  H   H2314     1.0  0.82186  0.60959  0.84195  1.0000
  H   H2315     1.0  0.81132  0.61026  0.79103  1.0000
  H   H2316     1.0  0.78008  0.61309  0.78204  1.0000
  C   C2892     1.0  0.88360  0.58313  0.49167  1.0000
  C   C2893     1.0  0.94072  0.67019  0.64085  1.0000
  H   H2317     1.0  0.77061  0.64880  0.84948  1.0000
  C   C2894     1.0  0.70185  0.70085  0.69811  1.0000
  C   C2895     1.0  0.71861  0.69696  0.69496  1.0000
  C   C2896     1.0  0.71940  0.68064  0.70990  1.0000
  C   C2897     1.0  0.70354  0.66835  0.72859  1.0000
  C   C2898     1.0  0.68667  0.67224  0.73191  1.0000
  C   C2899     1.0  0.68586  0.68846  0.71623  1.0000
  C   C2900     1.0  0.82956  0.64406  0.51179  1.0000
  C   C2901     1.0  0.79964  0.72766  0.79134  1.0000
  H   H2318     1.0  0.70113  0.71326  0.68575  1.0000
  H   H2319     1.0  0.73087  0.70650  0.68052  1.0000
  H   H2320     1.0  0.73236  0.67769  0.70689  1.0000
  H   H2321     1.0  0.70456  0.65594  0.74038  1.0000
  C   C2902     1.0  0.72886  0.73787  0.73469  1.0000
  H   H2322     1.0  0.91348  0.55260  0.88182  1.0000
  C   C2903     1.0  0.67855  0.63281  0.79265  1.0000
  H   H2323     1.0  0.87526  0.67551  0.84792  1.0000
  H   H2324     1.0  0.86806  0.55815  0.52157  1.0000
  C   C2904     1.0  0.72309  0.68686  0.80396  1.0000
  C   C2905     1.0  0.73022  0.69691  0.77615  1.0000
  C   C2906     1.0  0.74979  0.70248  0.76679  1.0000
  C   C2907     1.0  0.76232  0.69758  0.78507  1.0000
  C   C2908     1.0  0.73802  0.74264  0.76074  1.0000
  P   P95       1.0  0.78796  0.70646  0.77448  1.0000
  C   C2909     1.0  0.79756  0.68922  0.78863  1.0000
  C   C2910     1.0  0.96616  0.62183  0.61669  1.0000
  C   C2911     1.0  0.86863  0.60176  0.52915  1.0000
  C   C2912     1.0  0.86177  0.64929  0.52701  1.0000
  C   C2913     1.0  0.80677  0.66255  0.78294  1.0000
  C   C2914     1.0  0.79912  0.67559  0.77147  1.0000
  C   C2915     1.0  0.79179  0.71138  0.73455  1.0000
  C   C2916     1.0  0.92960  0.54144  0.73751  1.0000
  C   C2917     1.0  0.67220  0.70933  0.57369  1.0000
  H   H2325     1.0  0.86253  0.60873  0.54376  1.0000
  S   S401      1.0  0.91199  0.55225  0.51310  1.0000
  C   C2918     1.0  0.78112  0.69788  0.71671  1.0000
  H   H2326     1.0  0.94799  0.54800  0.52358  1.0000
  C   C2919     1.0  0.92999  0.52591  0.75587  1.0000
  H   H2327     1.0  0.72075  0.70124  0.76244  1.0000
  H   H2328     1.0  0.75515  0.71123  0.74581  1.0000
  S   S402      1.0  0.74392  0.74328  0.92456  1.0000
  H   H2329     1.0  0.97610  0.63929  0.87177  1.0000
  H   H2330     1.0  0.96611  0.62765  0.92423  1.0000
  H   H2331     1.0  0.80809  0.65215  0.76959  1.0000
  H   H2332     1.0  0.79463  0.67500  0.74925  1.0000
  H   H2333     1.0  0.68393  0.64399  0.80646  1.0000
  H   H2334     1.0  0.88775  0.71019  0.84649  1.0000
  H   H2335     1.0  0.81208  0.74021  0.73391  1.0000
  H   H2336     1.0  0.88584  0.68004  0.49000  1.0000
  H   H2337     1.0  0.77044  0.61585  0.87507  1.0000
  H   H2338     1.0  0.95403  0.69714  0.87708  1.0000
  C   C2920     1.0  0.95200  0.68731  0.65031  1.0000
  H   H2339     1.0  0.89690  0.62451  0.55720  1.0000
  H   H2340     1.0  0.93346  0.60659  0.84716  1.0000
  C   C2921     1.0  0.65340  0.65778  0.81498  1.0000
  C   C2922     1.0  0.92068  0.66492  0.64060  1.0000
  C   C2923     1.0  0.91167  0.67661  0.65026  1.0000
  C   C2924     1.0  0.92312  0.69391  0.65946  1.0000
  P   P96       1.0  0.88568  0.66973  0.65135  1.0000
  C   C2925     1.0  0.87413  0.64495  0.64778  1.0000
  C   C2926     1.0  0.87829  0.67456  0.68694  1.0000
  C   C2927     1.0  0.86610  0.68458  0.68950  1.0000
  C   C2928     1.0  0.86079  0.68823  0.71737  1.0000
  C   C2929     1.0  0.86769  0.68202  0.74277  1.0000
  C   C2930     1.0  0.88000  0.67224  0.74034  1.0000
  C   C2931     1.0  0.88531  0.66857  0.71257  1.0000
  C   C2932     1.0  0.87484  0.63867  0.61999  1.0000
  C   C2933     1.0  0.86683  0.61947  0.61712  1.0000
  C   C2934     1.0  0.85803  0.60640  0.64187  1.0000
  C   C2935     1.0  0.85684  0.61255  0.66944  1.0000
  C   C2936     1.0  0.86471  0.63174  0.67237  1.0000
  C   C2937     1.0  0.87901  0.68204  0.62054  1.0000
  C   C2938     1.0  0.85939  0.67708  0.61542  1.0000
  C   C2939     1.0  0.85401  0.68590  0.59095  1.0000
  C   C2940     1.0  0.86819  0.69946  0.57108  1.0000
  C   C2941     1.0  0.88776  0.70433  0.57584  1.0000
  C   C2942     1.0  0.89319  0.69566  0.60044  1.0000
  H   H2341     1.0  0.91230  0.65148  0.63359  1.0000
  H   H2342     1.0  0.91648  0.70319  0.66695  1.0000
  H   H2343     1.0  0.86075  0.68970  0.67017  1.0000
  H   H2344     1.0  0.85135  0.69593  0.71929  1.0000
  H   H2345     1.0  0.86355  0.68480  0.76436  1.0000
  H   H2346     1.0  0.88534  0.66733  0.75998  1.0000
  H   H2347     1.0  0.89465  0.66072  0.71112  1.0000
  H   H2348     1.0  0.88213  0.64854  0.60071  1.0000
  H   H2349     1.0  0.86813  0.61456  0.59599  1.0000
  H   H2350     1.0  0.85255  0.59148  0.63978  1.0000
  H   H2351     1.0  0.85029  0.60243  0.68880  1.0000
  H   H2352     1.0  0.86365  0.63599  0.69404  1.0000
  H   H2353     1.0  0.84825  0.66632  0.63033  1.0000
  H   H2354     1.0  0.83882  0.68216  0.58728  1.0000
  H   H2355     1.0  0.86400  0.70616  0.55197  1.0000
  H   H2356     1.0  0.89876  0.71483  0.56043  1.0000
  H   H2357     1.0  0.90845  0.69951  0.60341  1.0000
  C   C2943     1.0  0.66240  0.68559  0.84040  1.0000
  C   C2944     1.0  0.93744  0.66711  0.73070  1.0000
  C   C2945     1.0  0.92291  0.65449  0.75106  1.0000
  C   C2946     1.0  0.92385  0.65623  0.78123  1.0000
  C   C2947     1.0  0.94022  0.51514  0.74624  1.0000
  C   C2948     1.0  0.93634  0.63553  0.84007  1.0000
  H   H2358     1.0  0.66195  0.69209  0.86033  1.0000
  H   H2359     1.0  0.77098  0.68434  0.72665  1.0000
  C   C2949     1.0  0.94989  0.51972  0.71797  1.0000
  H   H2360     1.0  0.95369  0.63834  0.75120  1.0000
  C   C2950     1.0  0.96672  0.61569  0.58897  1.0000
  S   S403      1.0  0.73103  0.74201  0.61803  1.0000
  S   S404      1.0  0.66333  0.62291  0.86844  1.0000
  H   H2361     1.0  0.95663  0.52331  0.49155  1.0000
  H   H2362     1.0  0.69433  0.53894  0.84070  1.0000
  C   C2951     1.0  0.97184  0.55234  0.55143  1.0000
  H   H2363     1.0  0.85175  0.72919  0.51397  1.0000
  C   C2952     1.0  0.95287  0.68160  0.74049  1.0000
  C   C2953     1.0  0.88143  0.61207  0.50458  1.0000
  C   C2954     1.0  0.79547  0.71974  0.67264  1.0000
  H   H2364     1.0  0.92202  0.52196  0.77736  1.0000
  C   C2955     1.0  0.93680  0.56320  0.62515  1.0000
  P   P97       1.0  0.66635  0.65713  0.75681  1.0000
  H   H2365     1.0  0.77445  0.69175  0.67223  1.0000
  H   H2366     1.0  0.81631  0.67709  0.85080  1.0000
  C   C2956     1.0  0.93957  0.67041  0.79137  1.0000
  C   C2957     1.0  0.91481  0.62811  0.89450  1.0000
  H   H2367     1.0  0.87265  0.65478  0.54234  1.0000
  C   C2958     1.0  0.92286  0.51612  0.55712  1.0000
  P   P98       1.0  0.74889  0.61461  0.82285  1.0000
  C   C2959     1.0  0.72266  0.62087  0.86169  1.0000
  C   C2960     1.0  0.71707  0.63126  0.88097  1.0000
  C   C2961     1.0  0.67392  0.69631  0.81525  1.0000
  C   C2962     1.0  0.96912  0.64532  0.74609  1.0000
  H   H2368     1.0  0.71184  0.60796  0.85632  1.0000
  H   H2369     1.0  0.88313  0.63812  0.94772  1.0000
  P   P99       1.0  0.88796  0.63720  0.49784  1.0000
  C   C2963     1.0  0.78872  0.73693  0.80366  1.0000
  C   C2964     1.0  0.68131  0.75103  0.59760  1.0000
  H   H2370     1.0  0.76063  0.66659  0.88459  1.0000
  H   H2371     1.0  0.96995  0.53107  0.78235  1.0000
  H   H2372     1.0  0.65759  0.67180  0.50478  1.0000
  C   C2965     1.0  0.95383  0.68343  0.77072  1.0000
  H   H2373     1.0  0.94580  0.71287  0.82969  1.0000
  C   C2966     1.0  0.67410  0.66126  0.56417  1.0000
  H   H2374     1.0  0.67895  0.65893  0.54281  1.0000
  H   H2375     1.0  0.71324  0.73132  0.73575  1.0000
  C   C2967     1.0  0.92063  0.56756  0.83790  1.0000
  S   S405      1.0  0.91565  0.55392  0.74963  1.0000
  C   C2968     1.0  0.93165  0.64981  0.85111  1.0000
  C   C2969     1.0  0.65442  0.65300  0.57402  1.0000
  H   H2376     1.0  0.95251  0.58579  0.73344  1.0000
  C   C2970     1.0  0.92114  0.64609  0.87873  1.0000
  H   H2377     1.0  0.96748  0.69112  0.65102  1.0000
  C   C2971     1.0  0.85958  0.71646  0.98158  1.0000
  C   C2972     1.0  0.98121  0.62212  0.84107  1.0000
  H   H2378     1.0  0.74453  0.61622  0.71458  1.0000
  H   H2379     1.0  0.70744  0.65673  0.51354  1.0000
  C   C2973     1.0  0.98096  0.54503  0.77762  1.0000
  C   C2974     1.0  0.71452  0.58533  0.81362  1.0000
  H   H2380     1.0  0.70817  0.68345  0.81161  1.0000
  H   H2381     1.0  0.91738  0.65686  0.88782  1.0000
  C   C2975     1.0  0.93050  0.70452  0.83444  1.0000
  C   C2976     1.0  0.97983  0.68252  0.82871  1.0000
  P   P100      1.0  0.93982  0.67288  0.83033  1.0000
  C   C2977     1.0  0.66509  0.60343  0.75774  1.0000
  H   H2382     1.0  0.74863  0.58031  0.85774  1.0000
  H   H2383     1.0  0.71109  0.59576  0.79994  1.0000
  C   C2978     1.0  0.68040  0.61570  0.80114  1.0000
  C   C2979     1.0  0.73547  0.68217  0.82246  1.0000
  C   C2980     1.0  0.91764  0.71363  0.83822  1.0000
  C   C2981     1.0  0.90611  0.63908  0.55096  1.0000
  H   H2384     1.0  0.93823  0.57775  0.62419  1.0000
  C   C2982     1.0  0.73571  0.57671  0.84586  1.0000
  C   C2983     1.0  0.90548  0.65730  0.97044  1.0000
  H   H2385     1.0  0.82691  0.73343  0.54649  1.0000
  H   H2386     1.0  0.69782  0.74983  0.55864  1.0000
  C   C2984     1.0  0.77870  0.70799  0.97232  1.0000
  H   H2387     1.0  0.98330  0.69352  0.94531  1.0000
  C   C2985     1.0  0.77971  0.69106  0.98490  1.0000
  C   C2986     1.0  0.82957  0.73959  0.52355  1.0000
  H   H2388     1.0  0.93089  0.58059  0.79333  1.0000
  C   C2987     1.0  0.89774  0.70318  0.84331  1.0000
  C   C2988     1.0  0.96376  0.68499  0.84182  1.0000
  C   C2989     1.0  0.78300  0.70203  0.68591  1.0000
  H   H2389     1.0  0.85770  0.74642  0.87821  1.0000
  C   C2990     1.0  0.70497  0.55320  0.83645  1.0000
  C   C2991     1.0  0.96260  0.55684  0.52726  1.0000
  H   H2390     1.0  0.68748  0.56287  0.80799  1.0000
  C   C2992     1.0  0.66149  0.66712  0.61949  1.0000
  C   C2993     1.0  0.86543  0.64054  0.50310  1.0000
  C   C2994     1.0  0.89069  0.68363  0.84422  1.0000
  H   H2391     1.0  0.89782  0.65938  0.84131  1.0000
  C   C2995     1.0  0.81982  0.73483  0.79274  1.0000
  H   H2392     1.0  0.65973  0.59196  0.74437  1.0000
  C   C2996     1.0  0.92042  0.53060  0.64538  1.0000
  H   H2393     1.0  0.96574  0.69491  0.77784  1.0000
  P   P101      1.0  0.95915  0.53215  0.57837  1.0000
  C   C2997     1.0  0.94038  0.51399  0.56241  1.0000
  C   C2998     1.0  0.94005  0.55223  0.86216  1.0000
  C   C2999     1.0  0.81133  0.67647  0.82875  1.0000
  H   H2394     1.0  0.97052  0.60519  0.77077  1.0000
  H   H2395     1.0  0.72610  0.65568  0.90410  1.0000
  H   H2396     1.0  0.94055  0.63851  0.94086  1.0000
  C   C3000     1.0  0.93989  0.54641  0.70975  1.0000
  H   H2397     1.0  0.81900  0.65305  0.82042  1.0000
  C   C3001     1.0  0.67552  0.64222  0.88722  1.0000
  C   C3002     1.0  0.84606  0.72019  0.96434  1.0000
  H   H2398     1.0  0.95904  0.56905  0.59060  1.0000
  C   C3003     1.0  0.76702  0.70808  0.94913  1.0000
  H   H2399     1.0  0.93989  0.55849  0.69573  1.0000
  C   C3004     1.0  0.80425  0.72918  0.72096  1.0000
  H   H2400     1.0  0.74659  0.69134  0.92107  1.0000
  C   C3005     1.0  0.97524  0.51520  0.85490  1.0000
  H   H2401     1.0  0.68329  0.71230  0.58919  1.0000
  H   H2402     1.0  0.96428  0.51718  0.63873  1.0000
  H   H2403     1.0  0.90958  0.51997  0.66086  1.0000
  C   C3006     1.0  0.84354  0.73712  0.50496  1.0000
  C   C3007     1.0  0.97002  0.64215  0.92827  1.0000
  C   C3008     1.0  0.80359  0.68941  0.81747  1.0000
  H   H2404     1.0  0.95922  0.57168  0.79204  1.0000
  H   H2405     1.0  0.90777  0.57095  0.83780  1.0000
  H   H2406     1.0  0.96836  0.62072  0.82982  1.0000
  H   H2407     1.0  0.85075  0.72866  0.94300  1.0000
  H   H2408     1.0  0.77311  0.73153  0.80360  1.0000
  H   H2409     1.0  0.66573  0.62721  0.93085  1.0000
  C   C3009     1.0  0.67503  0.68786  0.78980  1.0000
  S   S406      1.0  0.72346  0.73685  0.79475  1.0000
  C   C3010     1.0  0.75583  0.69124  0.93882  1.0000
  H   H2410     1.0  0.91683  0.67555  0.49594  1.0000
  C   C3011     1.0  0.97683  0.65019  0.71667  1.0000
  C   C3012     1.0  0.76857  0.67420  0.97420  1.0000
  C   C3013     1.0  0.97700  0.59527  0.70109  1.0000
  H   H2411     1.0  0.74775  0.66127  0.94377  1.0000
  H   H2412     1.0  0.67427  0.58748  0.79111  1.0000
  H   H2413     1.0  0.89437  0.50378  0.54215  1.0000
  C   C3014     1.0  0.94989  0.56808  0.81226  1.0000
  H   H2414     1.0  0.95677  0.61710  0.57302  1.0000
  C   C3015     1.0  0.66312  0.70824  0.52316  1.0000
  C   C3016     1.0  0.75652  0.67432  0.95152  1.0000
  C   C3017     1.0  0.67741  0.71168  0.54341  1.0000
  C   C3018     1.0  0.95551  0.64821  0.93775  1.0000
  H   H2415     1.0  0.84117  0.65805  0.54937  1.0000
  C   C3019     1.0  0.94870  0.55819  0.60616  1.0000
  H   H2416     1.0  0.93688  0.66540  0.70740  1.0000
  H   H2417     1.0  0.72496  0.54782  0.86532  1.0000
  C   C3020     1.0  0.95328  0.55775  0.83704  1.0000
  H   H2418     1.0  0.67298  0.69168  0.71833  1.0000
  H   H2419     1.0  0.92304  0.72882  0.83711  1.0000
  C   C3021     1.0  0.94973  0.53542  0.69982  1.0000
  C   C3022     1.0  0.75507  0.68764  0.81320  1.0000
  H   H2420     1.0  0.94915  0.67159  0.95056  1.0000
  C   C3023     1.0  0.67342  0.60092  0.78394  1.0000
  C   C3024     1.0  0.96395  0.52483  0.84316  1.0000
  H   H2421     1.0  0.80251  0.69969  0.83131  1.0000
  H   H2422     1.0  0.94212  0.54376  0.88114  1.0000
  C   C3025     1.0  0.92383  0.55719  0.86261  1.0000
  C   C3026     1.0  0.96631  0.69575  0.86561  1.0000
  C   C3027     1.0  0.81013  0.74008  0.88900  1.0000
  H   H2423     1.0  0.91310  0.55326  0.65896  1.0000
  H   H2424     1.0  0.90380  0.66967  0.95959  1.0000
  C   C3028     1.0  0.96772  0.59449  0.72868  1.0000
  C   C3029     1.0  0.97959  0.67924  0.94015  1.0000
  C   C3030     1.0  0.80610  0.73327  0.69015  1.0000
  H   H2425     1.0  0.81575  0.64555  0.51485  1.0000
  H   H2426     1.0  0.81507  0.74727  0.67986  1.0000
  H   H2427     1.0  0.88542  0.60969  0.97474  1.0000
  H   H2428     1.0  0.96426  0.69120  0.72464  1.0000
  H   H2429     1.0  0.90419  0.71175  0.50349  1.0000
  H   H2430     1.0  0.97286  0.57335  0.88450  1.0000
  H   H2431     1.0  0.70445  0.74366  0.49117  1.0000
  C   C3031     1.0  0.97517  0.51631  0.62321  1.0000
  H   H2432     1.0  0.80714  0.75068  0.52675  1.0000
  C   C3032     1.0  0.98557  0.63240  0.86527  1.0000
  C   C3033     1.0  0.97644  0.52297  0.59311  1.0000
  H   H2433     1.0  0.78721  0.72123  0.98004  1.0000
  C   C3034     1.0  0.81837  0.74935  0.51240  1.0000
  C   C3035     1.0  0.97202  0.57328  0.50787  1.0000
  C   C3036     1.0  0.97893  0.61996  0.63727  1.0000
  C   C3037     1.0  0.70777  0.65530  0.49010  1.0000
  S   S407      1.0  0.77400  0.75204  0.58366  1.0000
  C   C3038     1.0  0.75821  0.75148  0.75894  1.0000
  C   C3039     1.0  0.82892  0.75108  0.80616  1.0000
  H   H2434     1.0  0.92314  0.52227  0.49239  1.0000
  C   C3040     1.0  0.98602  0.55713  0.79963  1.0000
  H   H2435     1.0  0.96464  0.57692  0.48968  1.0000
  H   H2436     1.0  0.77661  0.96584  0.12953  1.0000
  H   H2437     1.0  0.69570  0.88782  0.30061  1.0000
  H   H2438     1.0  0.74348  0.94396  0.14606  1.0000
  P   P102      1.0  0.65444  0.94449  0.47937  1.0000
  C   C3041     1.0  0.78332  0.89815  0.40992  1.0000
  Fe  Fe206     1.0  0.68560  0.83504  0.09179  1.0000
  S   S408      1.0  0.67824  0.82878  0.04578  1.0000
  S   S409      1.0  0.71052  0.85992  0.10485  1.0000
  H   H2439     1.0  0.73605  0.94488  0.29618  1.0000
  Fe  Fe207     1.0  0.67337  0.79872  0.06149  1.0000
  S   S410      1.0  0.68410  0.77794  0.04168  1.0000
  H   H2440     1.0  0.75355  0.90054  0.18578  1.0000
  S   S411      1.0  0.68339  0.80568  0.10634  1.0000
  C   C3042     1.0  0.71536  0.91633  0.30188  1.0000
  H   H2441     1.0  0.73192  0.82621  0.10121  1.0000
  Fe  Fe208     1.0  0.73819  0.97002  0.06550  1.0000
  S   S412      1.0  0.72996  0.97202  0.11258  1.0000
  S   S413      1.0  0.73199  0.94342  0.04297  1.0000
  S   S414      1.0  0.65524  0.82907  0.10980  1.0000
  H   H2442     1.0  0.83742  0.76042  0.44099  1.0000
  C   C3043     1.0  0.67062  0.94142  0.39347  1.0000
  C   C3044     1.0  0.69282  0.94899  0.48717  1.0000
  S   S415      1.0  0.72326  0.98850  0.04656  1.0000
  H   H2443     1.0  0.80236  0.99294  0.24057  1.0000
  Fe  Fe209     1.0  0.73768  0.96556  0.38761  1.0000
  S   S416      1.0  0.72624  0.96307  0.34250  1.0000
  S   S417      1.0  0.73184  0.94443  0.42926  1.0000
  H   H2444     1.0  0.80320  0.96955  0.16215  1.0000
  Fe  Fe210     1.0  0.75632  0.98263  0.32463  1.0000
  S   S418      1.0  0.77083  0.97673  0.28402  1.0000
  H   H2445     1.0  0.74844  0.86893  0.17287  1.0000
  S   S419      1.0  0.76842  0.98295  0.36959  1.0000
  C   C3045     1.0  0.69936  0.77042  0.12899  1.0000
  C   C3046     1.0  0.70722  0.75985  0.11342  1.0000
  H   H2446     1.0  0.67413  0.77048  0.15359  1.0000
  C   C3047     1.0  0.77172  0.98625  0.24656  1.0000
  C   C3048     1.0  0.70414  0.88188  0.19103  1.0000
  C   C3049     1.0  0.83539  0.75460  0.46404  1.0000
  H   H2447     1.0  0.67540  0.92079  0.23161  1.0000
  C   C3050     1.0  0.65557  0.93657  0.08124  1.0000
  C   C3051     1.0  0.73889  0.89047  0.18556  1.0000
  H   H2448     1.0  0.67923  0.76185  0.40184  1.0000
  C   C3052     1.0  0.67074  0.98528  0.08680  1.0000
  C   C3053     1.0  0.75651  0.99050  0.20097  1.0000
  H   H2449     1.0  0.67789  0.88689  0.41024  1.0000
  H   H2450     1.0  0.71520  0.84546  0.17109  1.0000
  H   H2451     1.0  0.90333  0.80869  0.44990  1.0000
  H   H2452     1.0  0.67711  0.98826  0.43641  1.0000
  C   C3054     1.0  0.73609  0.87248  0.17837  1.0000
  C   C3055     1.0  0.66798  0.88635  0.09991  1.0000
  H   H2453     1.0  0.66432  0.89877  0.19450  1.0000
  C   C3056     1.0  0.74336  0.84855  0.01906  1.0000
  C   C3057     1.0  0.71593  0.88301  0.08753  1.0000
  C   C3058     1.0  0.72503  0.89834  0.10320  1.0000
  C   C3059     1.0  0.72940  0.91691  0.09024  1.0000
  C   C3060     1.0  0.72529  0.92033  0.06109  1.0000
  C   C3061     1.0  0.71649  0.90500  0.04521  1.0000
  C   C3062     1.0  0.71153  0.88640  0.05850  1.0000
  H   H2454     1.0  0.72868  0.89584  0.12550  1.0000
  H   H2455     1.0  0.73649  0.92861  0.10239  1.0000
  H   H2456     1.0  0.71369  0.90757  0.02242  1.0000
  H   H2457     1.0  0.70470  0.87471  0.04612  1.0000
  C   C3063     1.0  0.70085  0.91258  0.41828  1.0000
  C   C3064     1.0  0.71333  0.92188  0.43876  1.0000
  C   C3065     1.0  0.72292  0.89537  0.19175  1.0000
  H   H2458     1.0  0.69378  0.96356  0.18487  1.0000
  C   C3066     1.0  0.68724  0.89414  0.42641  1.0000
  H   H2459     1.0  0.70132  0.88875  0.24690  1.0000
  H   H2460     1.0  0.79661  0.95081  0.21160  1.0000
  C   C3067     1.0  0.69791  0.89441  0.47585  1.0000
  C   C3068     1.0  0.75491  0.94501  0.16046  1.0000
  C   C3069     1.0  0.72824  0.93272  0.28534  1.0000
  C   C3070     1.0  0.73546  0.83228  0.07828  1.0000
  H   H2461     1.0  0.69165  0.88533  0.19580  1.0000
  H   H2462     1.0  0.68403  0.87428  0.12770  1.0000
  C   C3071     1.0  0.68107  0.94420  0.04207  1.0000
  S   S420      1.0  0.76690  0.99435  0.06322  1.0000
  H   H2463     1.0  0.70200  0.91941  0.39602  1.0000
  C   C3072     1.0  0.79101  0.99813  0.19940  1.0000
  C   C3073     1.0  0.66007  0.91277  0.23084  1.0000
  H   H2464     1.0  0.75484  0.85919  0.08859  1.0000
  C   C3074     1.0  0.92534  0.75665  0.24535  1.0000
  H   H2465     1.0  0.70883  0.85281  0.00271  1.0000
  C   C3075     1.0  0.73104  0.84707  0.47111  1.0000
  C   C3076     1.0  0.71241  0.84681  0.46717  1.0000
  C   C3077     1.0  0.69866  0.83165  0.45581  1.0000
  C   C3078     1.0  0.70331  0.81654  0.44877  1.0000
  C   C3079     1.0  0.72191  0.81679  0.45228  1.0000
  C   C3080     1.0  0.73585  0.83214  0.46297  1.0000
  C   C3081     1.0  0.77459  0.99684  0.18452  1.0000
  Fe  Fe211     1.0  0.71716  0.99229  0.09336  1.0000
  S   S421      1.0  0.73117  0.99112  0.39361  1.0000
  C   C3082     1.0  0.77332  0.90935  0.39952  1.0000
  H   H2466     1.0  0.72127  0.91987  0.48356  1.0000
  H   H2467     1.0  0.67716  0.94960  0.14205  1.0000
  H   H2468     1.0  0.96788  0.75360  0.25483  1.0000
  H   H2469     1.0  0.74372  0.98950  0.18974  1.0000
  C   C3083     1.0  0.75513  0.98549  0.23208  1.0000
  C   C3084     1.0  0.92043  0.77626  0.42896  1.0000
  H   H2470     1.0  0.67013  0.87023  0.01987  1.0000
  C   C3085     1.0  0.68530  0.99129  0.38999  1.0000
  H   H2471     1.0  0.70849  0.85837  0.47260  1.0000
  H   H2472     1.0  0.68431  0.83162  0.45272  1.0000
  H   H2473     1.0  0.69253  0.80470  0.44047  1.0000
  H   H2474     1.0  0.72557  0.80512  0.44670  1.0000
  H   H2475     1.0  0.75031  0.83230  0.46487  1.0000
  C   C3086     1.0  0.74851  0.89456  0.43976  1.0000
  C   C3087     1.0  0.65369  0.90016  0.20987  1.0000
  C   C3088     1.0  0.68026  0.76230  0.14151  1.0000
  C   C3089     1.0  0.66669  0.87891  0.00260  1.0000
  H   H2476     1.0  0.67744  0.88851  0.08017  1.0000
  S   S422      1.0  0.69636  0.99531  0.33157  1.0000
  C   C3090     1.0  0.73081  0.82972  0.02636  1.0000
  C   C3091     1.0  0.66735  0.93564  0.02241  1.0000
  H   H2477     1.0  0.68397  0.94585  0.37937  1.0000
  C   C3092     1.0  0.78954  0.99252  0.22987  1.0000
  H   H2478     1.0  0.79666  0.89937  0.39802  1.0000
  C   C3093     1.0  0.65400  0.94065  0.44081  1.0000
  C   C3094     1.0  0.75583  0.90743  0.41433  1.0000
  C   C3095     1.0  0.66358  0.76551  0.43987  1.0000
  C   C3096     1.0  0.88597  0.76159  0.44435  1.0000
  C   C3097     1.0  0.67652  0.99325  0.05742  1.0000
  C   C3098     1.0  0.75812  0.91340  0.99253  1.0000
  C   C3099     1.0  0.90329  0.79515  0.44538  1.0000
  C   C3100     1.0  0.67227  0.89822  0.00387  1.0000
  C   C3101     1.0  0.72690  0.82163  0.05585  1.0000
  H   H2479     1.0  0.68587  0.95190  0.08599  1.0000
  H   H2480     1.0  0.74792  0.91595  0.40611  1.0000
  H   H2481     1.0  0.73943  0.88606  0.01303  1.0000
  H   H2482     1.0  0.73468  0.89292  0.45045  1.0000
  H   H2483     1.0  0.78375  0.87647  0.44281  1.0000
  S   S423      1.0  0.66925  0.86130  0.46346  1.0000
  C   C3102     1.0  0.67295  0.75620  0.42420  1.0000
  C   C3103     1.0  0.68611  0.94333  0.15360  1.0000
  C   C3104     1.0  0.69541  0.95114  0.17792  1.0000
  C   C3105     1.0  0.91554  0.75447  0.27302  1.0000
  H   H2484     1.0  0.72399  0.82126  0.00931  1.0000
  H   H2485     1.0  0.72294  0.95313  0.48869  1.0000
  C   C3106     1.0  0.88611  0.77918  0.45016  1.0000
  S   S424      1.0  0.68766  0.98833  0.11346  1.0000
  C   C3107     1.0  0.92044  0.79369  0.43480  1.0000
  C   C3108     1.0  0.90331  0.76032  0.43367  1.0000
  C   C3109     1.0  0.70185  0.76623  0.99826  1.0000
  H   H2486     1.0  0.74121  0.98039  0.24463  1.0000
  H   H2487     1.0  0.68280  0.92269  0.12352  1.0000
  H   H2488     1.0  0.69635  0.95034  0.03517  1.0000
  C   C3110     1.0  0.75072  0.89373  0.99568  1.0000
  C   C3111     1.0  0.65905  0.87493  0.15175  1.0000
  C   C3112     1.0  0.70890  0.90119  0.25714  1.0000
  H   H2489     1.0  0.87307  0.78069  0.45840  1.0000
  C   C3113     1.0  0.75898  0.88400  0.45130  1.0000
  H   H2490     1.0  0.75278  0.92076  0.00764  1.0000
  C   C3114     1.0  0.72196  0.91765  0.24038  1.0000
  H   H2491     1.0  0.72195  0.76623  0.10349  1.0000
  H   H2492     1.0  0.93368  0.77497  0.42076  1.0000
  C   C3115     1.0  0.67517  0.94477  0.07129  1.0000
  C   C3116     1.0  0.75257  0.85894  0.04160  1.0000
  H   H2493     1.0  0.68021  0.90440  0.02212  1.0000
  C   C3117     1.0  0.67909  0.95742  0.48769  1.0000
  H   H2494     1.0  0.66721  0.99652  0.01374  1.0000
  C   C3118     1.0  0.68925  0.92817  0.14323  1.0000
  H   H2495     1.0  0.74148  0.94639  0.24255  1.0000
  H   H2496     1.0  0.71506  0.95016  0.21055  1.0000
  H   H2497     1.0  0.68693  0.85357  0.18273  1.0000
  H   H2498     1.0  0.81249  0.76432  0.47404  1.0000
  H   H2499     1.0  0.68511  0.95401  0.43001  1.0000
  C   C3119     1.0  0.77375  0.95733  0.15086  1.0000
  H   H2500     1.0  0.70120  0.75511  0.01513  1.0000
  H   H2501     1.0  0.71702  0.80713  0.06130  1.0000
  Fe  Fe212     1.0  0.72235  0.99011  0.34718  1.0000
  C   C3120     1.0  0.70139  0.86388  0.18393  1.0000
  P   P103      1.0  0.72651  0.91869  0.20080  1.0000
  C   C3121     1.0  0.67117  0.94613  0.42238  1.0000
  H   H2502     1.0  0.69162  0.98084  0.39214  1.0000
  C   C3122     1.0  0.68583  0.88489  0.45508  1.0000
  H   H2503     1.0  0.77897  0.91938  0.37981  1.0000
  C   C3123     1.0  0.70562  0.90058  0.28775  1.0000
  C   C3124     1.0  0.78877  0.95940  0.16925  1.0000
  H   H2504     1.0  0.71308  0.91587  0.32564  1.0000
  C   C3125     1.0  0.74839  0.85088  0.07113  1.0000
  C   C3126     1.0  0.71012  0.92780  0.18280  1.0000
  H   H2505     1.0  0.76361  0.92828  0.22827  1.0000
  H   H2506     1.0  0.70801  0.78495  0.13122  1.0000
  C   C3127     1.0  0.78502  0.94888  0.19712  1.0000
  C   C3128     1.0  0.68543  0.00060  0.36216  1.0000
  H   H2507     1.0  0.93652  0.77007  0.23676  1.0000
  C   C3129     1.0  0.76622  0.93632  0.20663  1.0000
  H   H2508     1.0  0.66245  0.77830  0.42965  1.0000
  C   C3130     1.0  0.69440  0.77973  0.00521  1.0000
  C   C3131     1.0  0.82133  0.75692  0.48268  1.0000
  P   P104      1.0  0.74906  0.86721  0.48392  1.0000
  C   C3132     1.0  0.67167  0.87834  0.12661  1.0000
  C   C3133     1.0  0.77607  0.88534  0.43553  1.0000
  C   C3134     1.0  0.70747  0.94351  0.19237  1.0000
  C   C3135     1.0  0.75095  0.93452  0.18852  1.0000
  C   C3136     1.0  0.73140  0.93347  0.25477  1.0000
  C   C3137     1.0  0.71736  0.85921  0.17754  1.0000
  C   C3138     1.0  0.70140  0.92059  0.15749  1.0000
  H   H2509     1.0  0.70431  0.90944  0.14820  1.0000
  C   C3139     1.0  0.66279  0.99008  0.03629  1.0000
  H   H2510     1.0  0.93376  0.80603  0.43112  1.0000
  C   C3140     1.0  0.71164  0.91278  0.46764  1.0000
  H   H2511     1.0  0.91900  0.76621  0.28591  1.0000
  H   H2512     1.0  0.66177  0.86802  0.17190  1.0000
  C   C3141     1.0  0.65569  0.75836  0.46883  1.0000
  H   H2513     1.0  0.76286  0.87326  0.03662  1.0000
  C   C3142     1.0  0.67694  0.99540  0.41495  1.0000
  H   H2514     1.0  0.68879  0.93467  0.48227  1.0000
  Fe  Fe213     1.0  0.75722  0.99782  0.10939  1.0000
  H   H2515     1.0  0.69149  0.00210  0.05106  1.0000
  H   H2516     1.0  0.66048  0.91020  0.46818  1.0000
  S   S425      1.0  0.72288  0.78372  0.91189  1.0000
  H   H2517     1.0  0.78998  0.92208  0.93243  1.0000
  C   C3143     1.0  0.71447  0.77362  0.67701  1.0000
  Fe  Fe214     1.0  0.67298  0.82437  0.56250  1.0000
  S   S426      1.0  0.66717  0.81684  0.51673  1.0000
  S   S427      1.0  0.69749  0.82130  0.58739  1.0000
  C   C3144     1.0  0.65335  0.78549  0.64813  1.0000
  Fe  Fe215     1.0  0.66154  0.84348  0.50856  1.0000
  S   S428      1.0  0.66995  0.85229  0.55310  1.0000
  H   H2518     1.0  0.78940  0.76029  0.82655  1.0000
  H   H2519     1.0  0.82488  0.77273  0.82899  1.0000
  H   H2520     1.0  0.83680  0.76433  0.88476  1.0000
  H   H2521     1.0  0.74154  0.93960  0.95781  1.0000
  C   C3145     1.0  0.76108  0.84319  0.52048  1.0000
  H   H2522     1.0  0.71194  0.93266  0.60291  1.0000
  C   C3146     1.0  0.67225  0.94079  0.68431  1.0000
  C   C3147     1.0  0.71028  0.80851  0.57256  1.0000
  C   C3148     1.0  0.70974  0.80525  0.54286  1.0000
  C   C3149     1.0  0.71947  0.79438  0.53206  1.0000
  C   C3150     1.0  0.72926  0.78620  0.55108  1.0000
  C   C3151     1.0  0.73034  0.78997  0.58051  1.0000
  C   C3152     1.0  0.72124  0.80145  0.59098  1.0000
  H   H2523     1.0  0.70185  0.81104  0.52817  1.0000
  H   H2524     1.0  0.71872  0.79166  0.50921  1.0000
  C   C3153     1.0  0.67035  0.89582  0.56747  1.0000
  H   H2525     1.0  0.72226  0.80446  0.61369  1.0000
  C   C3154     1.0  0.71150  0.78156  0.94775  1.0000
  C   C3155     1.0  0.70390  0.79499  0.95464  1.0000
  Fe  Fe216     1.0  0.73156  0.76057  0.89589  1.0000
  H   H2526     1.0  0.72182  0.84904  0.53536  1.0000
  C   C3156     1.0  0.69862  0.92475  0.56271  1.0000
  H   H2527     1.0  0.70464  0.80614  0.93776  1.0000
  C   C3157     1.0  0.68165  0.87736  0.66209  1.0000
  H   H2528     1.0  0.67476  0.94909  0.56708  1.0000
  C   C3158     1.0  0.66833  0.85125  0.70125  1.0000
  C   C3159     1.0  0.70855  0.85041  0.97969  1.0000
  C   C3160     1.0  0.71032  0.76710  0.96969  1.0000
  H   H2529     1.0  0.68077  0.76401  0.52429  1.0000
  C   C3161     1.0  0.68353  0.93231  0.67100  1.0000
  H   H2530     1.0  0.68440  0.83722  0.64041  1.0000
  C   C3162     1.0  0.69051  0.84258  0.93657  1.0000
  P   P105      1.0  0.66193  0.00192  0.60489  1.0000
  C   C3163     1.0  0.68587  0.86535  0.64408  1.0000
  H   H2531     1.0  0.67689  0.83843  0.92640  1.0000
  P   P106      1.0  0.68987  0.90221  0.64972  1.0000
  H   H2532     1.0  0.70203  0.77339  0.63551  1.0000
  C   C3164     1.0  0.71462  0.91183  0.65923  1.0000
  C   C3165     1.0  0.71879  0.91779  0.68723  1.0000
  C   C3166     1.0  0.73789  0.92452  0.69512  1.0000
  C   C3167     1.0  0.75291  0.92500  0.67538  1.0000
  C   C3168     1.0  0.74880  0.91858  0.64782  1.0000
  C   C3169     1.0  0.72971  0.91187  0.63985  1.0000
  H   H2533     1.0  0.67782  0.84340  0.97944  1.0000
  C   C3170     1.0  0.70760  0.84517  0.91985  1.0000
  C   C3171     1.0  0.68754  0.90600  0.61066  1.0000
  C   C3172     1.0  0.66806  0.94638  0.92798  1.0000
  C   C3173     1.0  0.67661  0.76164  0.54779  1.0000
  H   H2534     1.0  0.71598  0.89552  0.57299  1.0000
  C   C3174     1.0  0.66736  0.90945  0.98203  1.0000
  C   C3175     1.0  0.73232  0.94701  0.96323  1.0000
  C   C3176     1.0  0.67317  0.87023  0.69098  1.0000
  H   H2535     1.0  0.70727  0.91699  0.70316  1.0000
  H   H2536     1.0  0.74102  0.92915  0.71673  1.0000
  H   H2537     1.0  0.76769  0.93006  0.68164  1.0000
  H   H2538     1.0  0.76040  0.91854  0.63279  1.0000
  H   H2539     1.0  0.72674  0.90643  0.61884  1.0000
  C   C3177     1.0  0.77180  0.89446  0.95342  1.0000
  H   H2540     1.0  0.69865  0.94058  0.66446  1.0000
  C   C3178     1.0  0.76673  0.86083  0.50347  1.0000
  C   C3179     1.0  0.72562  0.86409  0.53444  1.0000
  C   C3180     1.0  0.74345  0.89593  0.51143  1.0000
  H   H2541     1.0  0.69299  0.87060  0.62209  1.0000
  H   H2542     1.0  0.67491  0.98309  0.65467  1.0000
  C   C3181     1.0  0.71821  0.97842  0.49475  1.0000
  H   H2543     1.0  0.71609  0.75668  0.96472  1.0000
  H   H2544     1.0  0.80375  0.84744  0.54902  1.0000
  H   H2545     1.0  0.73343  0.98667  0.49622  1.0000
  H   H2546     1.0  0.73815  0.78402  0.59523  1.0000
  H   H2547     1.0  0.67854  0.94086  0.92027  1.0000
  C   C3182     1.0  0.72514  0.85018  0.93311  1.0000
  C   C3183     1.0  0.69907  0.76873  0.65888  1.0000
  H   H2548     1.0  0.74027  0.82358  0.95443  1.0000
  S   S429      1.0  0.75411  0.76629  0.85783  1.0000
  S   S430      1.0  0.73931  0.77082  0.53766  1.0000
  C   C3184     1.0  0.72864  0.97585  0.97286  1.0000
  C   C3185     1.0  0.67531  0.91327  0.66647  1.0000
  C   C3186     1.0  0.77443  0.83833  0.53658  1.0000
  C   C3187     1.0  0.68111  0.84640  0.65447  1.0000
  P   P107      1.0  0.74808  0.85870  0.98080  1.0000
  H   H2549     1.0  0.75601  0.97382  0.96198  1.0000
  C   C3188     1.0  0.75579  0.83094  0.95396  1.0000
  C   C3189     1.0  0.76781  0.82262  0.94244  1.0000
  C   C3190     1.0  0.78789  0.83143  0.94242  1.0000
  C   C3191     1.0  0.69103  0.84535  0.96643  1.0000
  C   C3192     1.0  0.79595  0.84848  0.95426  1.0000
  H   H2550     1.0  0.70723  0.84304  0.89668  1.0000
  H   H2551     1.0  0.79007  0.88801  0.49271  1.0000
  H   H2552     1.0  0.70882  0.93700  0.54906  1.0000
  C   C3193     1.0  0.70044  0.92216  0.59314  1.0000
  H   H2553     1.0  0.78473  0.76139  0.73038  1.0000
  H   H2554     1.0  0.76538  0.75590  0.77861  1.0000
  C   C3194     1.0  0.66334  0.94531  0.95843  1.0000
  H   H2555     1.0  0.73824  0.85218  0.91981  1.0000
  C   C3195     1.0  0.72247  0.89033  0.55608  1.0000
  C   C3196     1.0  0.68371  0.91142  0.54984  1.0000
  C   C3197     1.0  0.65326  0.00167  0.70635  1.0000
  H   H2556     1.0  0.81151  0.85510  0.95474  1.0000
  C   C3198     1.0  0.65899  0.95422  0.90728  1.0000
  H   H2557     1.0  0.67924  0.98237  0.56670  1.0000
  C   C3199     1.0  0.72559  0.85220  0.96341  1.0000
  H   H2558     1.0  0.79716  0.82488  0.93355  1.0000
  C   C3200     1.0  0.66016  0.99865  0.73367  1.0000
  C   C3201     1.0  0.70039  0.94663  0.97685  1.0000
  C   C3202     1.0  0.74048  0.96630  0.96543  1.0000
  C   C3203     1.0  0.68630  0.75375  0.56718  1.0000
  H   H2559     1.0  0.67862  0.95534  0.68847  1.0000
  H   H2560     1.0  0.66230  0.95458  0.88380  1.0000
  H   H2561     1.0  0.67034  0.87929  0.70569  1.0000
  H   H2562     1.0  0.65864  0.97814  0.77027  1.0000
  C   C3204     1.0  0.66869  0.97201  0.58275  1.0000
  C   C3205     1.0  0.67215  0.89315  0.59776  1.0000
  C   C3206     1.0  0.73531  0.90280  0.53349  1.0000
  C   C3207     1.0  0.76375  0.84838  0.96497  1.0000
  H   H2563     1.0  0.68244  0.91307  0.52625  1.0000
  C   C3208     1.0  0.73824  0.87646  0.51135  1.0000
  C   C3209     1.0  0.77242  0.92360  0.96995  1.0000
  C   C3210     1.0  0.66625  0.95309  0.58293  1.0000
  H   H2564     1.0  0.72296  0.77220  0.72157  1.0000
  C   C3211     1.0  0.78392  0.85685  0.96577  1.0000
  H   H2565     1.0  0.72912  0.78158  0.66740  1.0000
  H   H2566     1.0  0.76145  0.80923  0.93370  1.0000
  H   H2567     1.0  0.73506  0.99074  0.97516  1.0000
  H   H2568     1.0  0.79035  0.86979  0.97556  1.0000
  H   H2569     1.0  0.69701  0.88744  0.49796  1.0000
  C   C3212     1.0  0.77912  0.91414  0.95024  1.0000
  H   H2570     1.0  0.81368  0.87918  0.52079  1.0000
  C   C3213     1.0  0.75794  0.88411  0.97673  1.0000
  H   H2571     1.0  0.73901  0.91779  0.53302  1.0000
  S   S431      1.0  0.79635  0.75427  0.89239  1.0000
  H   H2572     1.0  0.75377  0.90587  0.49461  1.0000
  H   H2573     1.0  0.70640  0.92222  0.96754  1.0000
  C   C3214     1.0  0.65774  0.97733  0.60330  1.0000
  H   H2574     1.0  0.68170  0.99427  0.96824  1.0000
  H   H2575     1.0  0.77684  0.88738  0.93756  1.0000
  C   C3215     1.0  0.68522  0.97653  0.49198  1.0000
  H   H2576     1.0  0.66151  0.84578  0.72341  1.0000
  H   H2577     1.0  0.65438  0.77294  0.54377  1.0000
  C   C3216     1.0  0.71801  0.87105  0.55691  1.0000
  C   C3217     1.0  0.78568  0.87395  0.50424  1.0000
  C   C3218     1.0  0.67233  0.83935  0.68306  1.0000
  H   H2578     1.0  0.69618  0.99536  0.69386  1.0000
  H   H2579     1.0  0.77818  0.93884  0.96767  1.0000
  C   C3219     1.0  0.70467  0.98692  0.49556  1.0000
  H   H2580     1.0  0.68957  0.80449  0.98817  1.0000
  P   P108      1.0  0.67460  0.93430  0.98470  1.0000
  C   C3220     1.0  0.71234  0.93717  0.96894  1.0000
  C   C3221     1.0  0.68238  0.99812  0.65389  1.0000
  H   H2581     1.0  0.70853  0.86139  0.57490  1.0000
  C   C3222     1.0  0.71100  0.76832  0.70751  1.0000
  C   C3223     1.0  0.69536  0.79409  0.98320  1.0000
  H   H2582     1.0  0.70937  0.00178  0.49772  1.0000
  C   C3224     1.0  0.65342  0.98053  0.74902  1.0000
  C   C3225     1.0  0.65635  0.90097  0.95927  1.0000
  C   C3226     1.0  0.65608  0.87066  0.97956  1.0000
  C   C3227     1.0  0.70864  0.96608  0.97835  1.0000
  C   C3228     1.0  0.71227  0.95946  0.49065  1.0000
  C   C3229     1.0  0.81796  0.76038  0.81795  1.0000
  H   H2583     1.0  0.67532  0.98382  0.49117  1.0000
  C   C3230     1.0  0.79345  0.85122  0.53641  1.0000
  C   C3231     1.0  0.79904  0.86907  0.52041  1.0000
  H   H2584     1.0  0.76990  0.82458  0.54941  1.0000
  H   H2585     1.0  0.84441  0.75630  0.80799  1.0000
  C   C3232     1.0  0.79790  0.75331  0.81666  1.0000
  C   C3233     1.0  0.66189  0.76682  0.55880  1.0000
  H   H2586     1.0  0.66672  0.79204  0.63399  1.0000
  H   H2587     1.0  0.66876  0.82469  0.69119  1.0000
  H   H2588     1.0  0.65864  0.88555  0.55771  1.0000
  C   C3234     1.0  0.68012  0.75814  0.67104  1.0000
  H   H2589     1.0  0.69967  0.97354  0.98477  1.0000
  H   H2590     1.0  0.66153  0.88093  0.61099  1.0000
  C   C3235     1.0  0.65544  0.90323  0.67366  1.0000
  C   C3236     1.0  0.65687  0.76419  0.58923  1.0000
  C   C3237     1.0  0.69216  0.75790  0.71990  1.0000
  S   S432      1.0  0.77381  0.75370  0.67129  1.0000
  H   H2591     1.0  0.74629  0.83319  0.52166  1.0000
  C   C3238     1.0  0.66689  0.75668  0.60895  1.0000
  C   C3239     1.0  0.76911  0.75479  0.73150  1.0000
  C   C3240     1.0  0.67674  0.75290  0.70176  1.0000
  H   H2592     1.0  0.68960  0.75375  0.74360  1.0000
