data_image0
_chemical_formula_structural       HSHCSHFeS2FeS2HSCFeS2FeSCFeS2CSC2SFeS2FeCHSFeSHFeS2FeSFeS3C6H5CH2C3H2C4FeH2C7H4C7H3C6H4C2HC3HFeHC7H2CH4C3PC8H2C4H2C4H11CH5C2H2C2H2FeHCHSFeHSHC2HC9PC18H11C2H9FeSH2CFeHCFeCH2CH3C5HC2SC2H3C2HCSCH3CH2C2H4C6H3C5HC3PC3H2C3HCHC7HC2H2C2H3C2H5PC2HC3HC10HC2H2CPCHC3H4CFeCSC2HC3HCH2CH4CHC2HC2H3CH3PHCH4C3HCSHC5HCFeS2C2HSFeS2HFeS2FeS2FeS2FeSFeS3FeSCFeS2C7H4C7H2SHC6H4CHC6H4CHC3HC2HC2HC2H3CH3CHCH2C6HC2HSCH3C2H4CH3FeC2H4C3H2C3H2C5PC4PCSHCHC8FeHCHCHCH2CH3CH8CHPC18H4C2H6CH6CH2C3H2CHC2H2CHC4H3CH3S2HC2HC2PC3H3C2SH3SPC2H3FeHC2HCH2C2H2SH2CH2C4HC9HCH2C6HSCHC3H4C3HC4SC3H6CHCH2C3HCH3CHC3HCHCHPFeCHC2H5CH3C3H3C5HCHCHC2H2CHC2H4C3H4PCSHSC3H4CHC3HCHCH4C2HCHCHCH2CHCHCSHCFeSCHS2H6SC6H3CHC2HCH2C6H4C6H2CHSPHSHCH2CH2C3H3CH3C4H3C2HFeHCSCHC6HSC2HCH4C7PC4H2CH2CPC2HC2HCH7CH2C11HC2HCFeC3SC2SCH2CH3CHC5H2CH2C2FeHCHC3SC3H3CHC4H2C6H5SH2SH3C2H2C2HSHCSCHC2H3C4H3C3HPHC3H2C5H2CHC2SCHC4HSCH2CFeHC2HPHC2HCHCHCH5CHC2HCH2CHCH4C2S2H2C2PH2CHCHSH2SC7H3CH2CHCHC8H4C6HC2HC2HC2H4CPCHC4HC3H3CSC7PC9H2C3H2FeCH10C3H3C3H2SHCHCH2CHCH2CH3C2HSHCH2CH2C3HC2H2C2HFeHCPCSH5CH3C2HCSH2CHC11FeCHCHC7FeH2CHCH2CHC2HC3HC3HC2FeS2FeSFeCS2H2CHCHFeS2FeS2FeS2FeS2CHSFeS2FeS2FeHFeS3FeS2HSC2HC5HC6H4C2HC2H3C6H4C6H3C7H4C6H4C6H3C2HCH2C2H2FeC3HC2PCHC10HC2H2FeHPHCH9C6PC2SCH3C7H7C2HC4H3C2H2C4H2C3HCS2CHC2H4C2H5C2H3CHC3PC8H10C7H2FeH2CH3C7PC2H2C3HC10HCH3C2H3CH2CH3PHC2HC6HCHFeC3H3SPH3FeHCHC2HCHC4H4CSCHC2HCH2CHCSC2HC2HC4H3SH4CH2CFeS2HSHCHCPH2FeHCFeS2FeS2FeS2HSCSFeS2FeS2FeSFeS3FeS2FeHS2C6H4CHC6H4C6H4CHC6H6C3P2C4H2C3H2C8H2C2HC2HC4FeH6C2SPCHC3PC2HCHC6HC2HC3HCH5C2HC2HC2HC8H11C3HCH2C2PHC2SC3H2C2HC3FeCH8CHCH3C3HCHC2H5C4H3CHC2HCHCHC3H3C2HCH2C4H2C4H4C4HC2H6C3HC2HCH2CHCH2C2HCH2C2H2SCH2CH3CH3C2H4CSHCSHCSHS2HC3HCHCSCH2C2H4C8H3C6H2C2FeCHCHCHCHC3HSC2HC3HPC4H2CHC5HCHCPH2CHC2H4CH4C4HC4H3C2H2CHC7HC5HCHC2HC3HCPH2CHSHSC3H6FeC2H2C3PH2CH2CHC2SH2CHFeH5SPS2C7H6C6H4CHPHC6FeC2HCH2CH2CH6CH2C3H2CHC5H4C5H2CHC2HCSC3HC6H4CH4SHCHC2H3C2H2C8HCHCFeHC2HC3HSCH3C2HCHC2HCH2C2HC2HC2HCH3C4PH3CFeS2FeS3FeS2FeS2FeSFeS3FeS2CFeS2CHCSFeS2C6H4C5H3C8H4C6H3CFeHCHC2H3C4HCHCHC5FeH9CFePCH7SCHCHCH2CH2C10PC16HCH17C4HC5HCH3C2HC3H2C4H5CH2CH2CHCH3CFeHC4HC4HCH2C4PHC2H4CHCH4SH3C2HC2PHC4H2CHCSH2CHCHCH3C3HCHC5HC2H2SHC2HCH2SHCSHFeSHFeS2FeS2FeS2FeSFeS4HCSHFeS2HCSCFeS2FeS2FeSFeS3C6H4C2FeC3FeC2HCH2C3HCH2C7H4C6H4C8H2C6H4C6H4C3H2C3PC2H2CHC12H2C2HPH3CH7C3H3CHC4H4CH2C5H6PHC5PC7HSC5HCH4CH3C2H3PSHC5FeH2CH2C5HCHCHSH3CHCH2C5FeCHC2H2CHC2HCHC4HCH2C3PHCHCH2C4H2CSCH4C2H2CHC2HFeC2H2C2H3C3HC3HC9PC2HCH2CH3CH3C3HCHFeHCHCH2S2H6C2HC2HCH2C2FeCHCH2CHC3HC2H2CHCH2C2SHFeS2FeS2FeS2FeSFeS3FeS2H3SFeS2FeS3CHC6H5C6HC6H5C7H4CHCH3C2PCHCH3SC2SC6HC3HCHCHCH2CH5CH6C2HCHC6HCH2C2HFeHC2HCH3C13SC3H2C3H2CH2CPC8H2C3H2C2H6PCH3CH4C4PC4H2C10HC2H5C2H9CHCHPH2C2HCSCSFe2CH2CPH2CH3CHCHC2HC4HCH2FeHCHCHC2HCH2FeH6CH3SC4HC5H2C2HCHC4H2FeHC8HPSHFeCH2S2FeSCFeS2FeS2FeSFeS3FeS2FeS2FeSFeS3FeSCFeS2C2H2C2PCH3CHCHSFeHCSHC6H4C6H4C6H4C4HCH3C7H3C7H4C6PC4H2C8HCHCH6SHC2H6CH4C2HCHC2HC4HC2SC7H2CSH3CHCHCFeSH2CHC7PCH4C7H4C3SH6C6HC3Fe2H3CHC2HC2HCHCHCH2C2H2C2H3CH2C4HC4SC3HCH6C3HC2HCHSHC3HCFeH2C3SCH3C3HC4HCH2CHCHCHPHCHC2HCH2CPC3H2CH3C2H2CH3C3HFeCHCPCH2CSC2SH2CHSCHSHCHC2SH2C4HC2HC3H2C6H4C6H4C2HCHC5FeHC7SHCH2SH2C2H2CPHC2HCH4C2HCHFeH2CHC4HSPCH3CH2C3H3CHFeCSHCH2S2CSC3HCH4C2HC6H4C4HCHC2HCH2C3H2CH4CHC4HC4HC2HC4HC2SCHC3PCH3CH2C6H2C2FeC2HCH6CHC6PC8H2C6H7CH2PC3H2C3PH3CH2C2H2C2H2CHCH5C3HCH5FeC2
_chemical_formula_sum              "H1728 S288 C2160 Fe144 P72"
_cell_length_a       51.6383
_cell_length_b       51.5211
_cell_length_c       51.4868
_cell_angle_alpha    89.7401
_cell_angle_beta     89.8353
_cell_angle_gamma    89.83

_space_group_name_H-M_alt    "P 1"
_space_group_IT_number       1

loop_
  _space_group_symop_operation_xyz
  'x, y, z'

loop_
  _atom_site_type_symbol
  _atom_site_label
  _atom_site_symmetry_multiplicity
  _atom_site_fract_x
  _atom_site_fract_y
  _atom_site_fract_z
  _atom_site_occupancy
  H   H1        1.0  0.40127  0.37427  0.07259  1.0000
  S   S1        1.0  0.25357  0.02711  0.11376  1.0000
  H   H2        1.0  0.32460  0.37586  0.24345  1.0000
  C   C1        1.0  0.37748  0.41999  0.21671  1.0000
  S   S2        1.0  0.19028  0.02745  0.11174  1.0000
  H   H3        1.0  0.37319  0.45335  0.17494  1.0000
  Fe  Fe1       1.0  0.22143  0.05290  0.12767  1.0000
  S   S3        1.0  0.22290  0.09666  0.12464  1.0000
  S   S4        1.0  0.21964  0.03576  0.16786  1.0000
  Fe  Fe2       1.0  0.14568  0.18254  0.02905  1.0000
  S   S5        1.0  0.10310  0.17832  0.03656  1.0000
  S   S6        1.0  0.16775  0.14471  0.02570  1.0000
  H   H4        1.0  0.35921  0.48856  0.14572  1.0000
  S   S7        1.0  0.09961  0.24164  0.03178  1.0000
  C   C2        1.0  0.25922  0.33384  0.23653  1.0000
  Fe  Fe3       1.0  0.10819  0.21239  0.06300  1.0000
  S   S8        1.0  0.09198  0.21623  0.10372  1.0000
  S   S9        1.0  0.15145  0.21446  0.05812  1.0000
  Fe  Fe4       1.0  0.04982  0.08554  0.22938  1.0000
  S   S10       1.0  0.05378  0.12635  0.21443  1.0000
  C   C3        1.0  0.14140  0.02407  0.05232  1.0000
  Fe  Fe5       1.0  0.02295  0.11510  0.18615  1.0000
  S   S11       1.0  0.02212  0.12340  0.14325  1.0000
  S   S12       1.0  0.02172  0.07323  0.19852  1.0000
  C   C4        1.0  0.10316  0.36412  0.14864  1.0000
  S   S13       1.0  0.42852  0.06723  0.22663  1.0000
  C   C5        1.0  0.38425  0.43256  0.23986  1.0000
  C   C6        1.0  0.13565  0.34674  0.05387  1.0000
  S   S14       1.0  0.45641  0.13692  0.20699  1.0000
  Fe  Fe6       1.0  0.44587  0.32944  0.15098  1.0000
  S   S15       1.0  0.44959  0.32895  0.19452  1.0000
  S   S16       1.0  0.40769  0.32610  0.12982  1.0000
  Fe  Fe7       1.0  0.47773  0.29588  0.18780  1.0000
  C   C7        1.0  0.14945  0.43862  0.22140  1.0000
  H   H5        1.0  0.14959  0.03193  0.03460  1.0000
  S   S17       1.0  0.47252  0.29539  0.14451  1.0000
  Fe  Fe8       1.0  0.25674  0.43918  0.05973  1.0000
  S   S18       1.0  0.27977  0.40222  0.06536  1.0000
  H   H6        1.0  0.24905  0.44422  0.24149  1.0000
  Fe  Fe9       1.0  0.23986  0.43957  0.11942  1.0000
  S   S19       1.0  0.26254  0.40327  0.12721  1.0000
  S   S20       1.0  0.21557  0.45924  0.15211  1.0000
  Fe  Fe10      1.0  0.29375  0.42037  0.10222  1.0000
  S   S21       1.0  0.33551  0.42434  0.11468  1.0000
  Fe  Fe11      1.0  0.24594  0.38834  0.08958  1.0000
  S   S22       1.0  0.23121  0.34676  0.09391  1.0000
  S   S23       1.0  0.27232  0.45789  0.09629  1.0000
  S   S24       1.0  0.22169  0.42415  0.08236  1.0000
  C   C8        1.0  0.38846  0.35382  0.12449  1.0000
  C   C9        1.0  0.36446  0.35114  0.11206  1.0000
  C   C10       1.0  0.34818  0.37275  0.10844  1.0000
  C   C11       1.0  0.35592  0.39712  0.11723  1.0000
  C   C12       1.0  0.38035  0.40000  0.12870  1.0000
  C   C13       1.0  0.39658  0.37837  0.13243  1.0000
  H   H7        1.0  0.35824  0.33220  0.10564  1.0000
  H   H8        1.0  0.32949  0.37048  0.09930  1.0000
  H   H9        1.0  0.38649  0.41893  0.13521  1.0000
  H   H10       1.0  0.41520  0.38060  0.14173  1.0000
  H   H11       1.0  0.09868  0.36070  0.12841  1.0000
  C   C14       1.0  0.15004  0.43673  0.24848  1.0000
  H   H12       1.0  0.17230  0.38113  0.15237  1.0000
  H   H13       1.0  0.21719  0.39219  0.16348  1.0000
  C   C15       1.0  0.21615  0.46272  0.18695  1.0000
  C   C16       1.0  0.23468  0.45043  0.20256  1.0000
  C   C17       1.0  0.23449  0.45381  0.22988  1.0000
  H   H14       1.0  0.24900  0.43817  0.19352  1.0000
  H   H15       1.0  0.39038  0.31171  0.24236  1.0000
  C   C18       1.0  0.46166  0.17125  0.20959  1.0000
  C   C19       1.0  0.45825  0.18740  0.18764  1.0000
  C   C20       1.0  0.46290  0.21448  0.18883  1.0000
  C   C21       1.0  0.47146  0.22584  0.21196  1.0000
  Fe  Fe12      1.0  0.44393  0.10686  0.23809  1.0000
  H   H16       1.0  0.36952  0.44546  0.06565  1.0000
  H   H17       1.0  0.45190  0.17897  0.16957  1.0000
  C   C22       1.0  0.09241  0.38534  0.18924  1.0000
  C   C23       1.0  0.07158  0.19103  0.11444  1.0000
  C   C24       1.0  0.06163  0.17290  0.09701  1.0000
  C   C25       1.0  0.04654  0.15217  0.10612  1.0000
  C   C26       1.0  0.04107  0.14962  0.13262  1.0000
  C   C27       1.0  0.05065  0.16791  0.15009  1.0000
  C   C28       1.0  0.06583  0.18865  0.14098  1.0000
  H   H18       1.0  0.06549  0.17485  0.07651  1.0000
  H   H19       1.0  0.03915  0.13802  0.09265  1.0000
  H   H20       1.0  0.04605  0.16624  0.17052  1.0000
  H   H21       1.0  0.07316  0.20286  0.15445  1.0000
  C   C29       1.0  0.18189  0.29817  0.03771  1.0000
  C   C30       1.0  0.19254  0.32194  0.02944  1.0000
  C   C31       1.0  0.20773  0.33707  0.04632  1.0000
  C   C32       1.0  0.21248  0.32849  0.07167  1.0000
  C   C33       1.0  0.20213  0.30456  0.07984  1.0000
  C   C34       1.0  0.18682  0.28951  0.06302  1.0000
  C   C35       1.0  0.23622  0.38253  0.22972  1.0000
  H   H22       1.0  0.21565  0.35536  0.03974  1.0000
  H   H23       1.0  0.20595  0.29767  0.09930  1.0000
  H   H24       1.0  0.17889  0.27121  0.06952  1.0000
  C   C36       1.0  0.18335  0.13200  0.05336  1.0000
  C   C37       1.0  0.19128  0.14792  0.07380  1.0000
  C   C38       1.0  0.20392  0.13697  0.09542  1.0000
  C   C39       1.0  0.20839  0.11012  0.09679  1.0000
  C   C40       1.0  0.20056  0.09427  0.07633  1.0000
  C   C41       1.0  0.18807  0.10523  0.05471  1.0000
  H   H25       1.0  0.18769  0.16858  0.07292  1.0000
  H   H26       1.0  0.20989  0.14925  0.11126  1.0000
  H   H27       1.0  0.20391  0.07357  0.07725  1.0000
  H   H28       1.0  0.18151  0.09289  0.03922  1.0000
  C   C42       1.0  0.10444  0.04556  0.22150  1.0000
  C   C43       1.0  0.09211  0.03211  0.20155  1.0000
  H   H29       1.0  0.13869  0.13899  0.22341  1.0000
  C   C44       1.0  0.13362  0.01387  0.18769  1.0000
  C   C45       1.0  0.14585  0.02690  0.20799  1.0000
  C   C46       1.0  0.13110  0.04206  0.22526  1.0000
  H   H30       1.0  0.07145  0.03413  0.19904  1.0000
  Fe  Fe13      1.0  0.19084  0.00797  0.15086  1.0000
  H   H31       1.0  0.16654  0.02494  0.21058  1.0000
  C   C47       1.0  0.10732  0.20687  0.21950  1.0000
  C   C48       1.0  0.33474  0.05623  0.22124  1.0000
  C   C49       1.0  0.30884  0.06145  0.21482  1.0000
  C   C50       1.0  0.29426  0.04375  0.20016  1.0000
  C   C51       1.0  0.30539  0.02037  0.19212  1.0000
  C   C52       1.0  0.33130  0.01499  0.19872  1.0000
  C   C53       1.0  0.34602  0.03294  0.21305  1.0000
  H   H32       1.0  0.18196  0.49304  0.23580  1.0000
  H   H33       1.0  0.27433  0.04802  0.19535  1.0000
  C   C54       1.0  0.03335  0.09417  0.04978  1.0000
  H   H34       1.0  0.36597  0.02870  0.21785  1.0000
  H   H35       1.0  0.46878  0.45070  0.11806  1.0000
  H   H36       1.0  0.18494  0.38520  0.20636  1.0000
  H   H37       1.0  0.11718  0.30483  0.18327  1.0000
  C   C55       1.0  0.47019  0.18263  0.23262  1.0000
  C   C56       1.0  0.11008  0.02678  0.08755  1.0000
  C   C57       1.0  0.41035  0.43539  0.24661  1.0000
  P   P1        1.0  0.08350  0.04300  0.10374  1.0000
  C   C58       1.0  0.06350  0.01873  0.11935  1.0000
  C   C59       1.0  0.09570  0.06455  0.12831  1.0000
  C   C60       1.0  0.08071  0.08591  0.13612  1.0000
  C   C61       1.0  0.08810  0.10073  0.15744  1.0000
  C   C62       1.0  0.11029  0.09417  0.17137  1.0000
  C   C63       1.0  0.12593  0.07366  0.16308  1.0000
  C   C64       1.0  0.11876  0.05890  0.14154  1.0000
  C   C65       1.0  0.34376  0.47652  0.07473  1.0000
  H   H38       1.0  0.15958  0.28439  0.11385  1.0000
  H   H39       1.0  0.19342  0.29999  0.14997  1.0000
  C   C66       1.0  0.05296  0.02315  0.14411  1.0000
  C   C67       1.0  0.06422  0.06202  0.08131  1.0000
  C   C68       1.0  0.07389  0.08564  0.07173  1.0000
  C   C69       1.0  0.05862  0.10153  0.05585  1.0000
  H   H40       1.0  0.21062  0.21962  0.12245  1.0000
  H   H41       1.0  0.27949  0.47132  0.16243  1.0000
  C   C70       1.0  0.03887  0.05463  0.07491  1.0000
  C   C71       1.0  0.13967  0.29808  0.14828  1.0000
  C   C72       1.0  0.12606  0.24579  0.15557  1.0000
  C   C73       1.0  0.42322  0.41340  0.20720  1.0000
  H   H42       1.0  0.11278  0.05396  0.05535  1.0000
  H   H43       1.0  0.06279  0.09064  0.12634  1.0000
  H   H44       1.0  0.07618  0.11691  0.16344  1.0000
  H   H45       1.0  0.11523  0.10484  0.18866  1.0000
  H   H46       1.0  0.14338  0.06882  0.17366  1.0000
  H   H47       1.0  0.13075  0.04255  0.13606  1.0000
  H   H48       1.0  0.32166  0.47404  0.00297  1.0000
  H   H49       1.0  0.05602  0.04137  0.15400  1.0000
  H   H50       1.0  0.09306  0.09202  0.07706  1.0000
  H   H51       1.0  0.34927  0.47668  0.09501  1.0000
  H   H52       1.0  0.10762  0.31597  0.05548  1.0000
  C   C74       1.0  0.21219  0.20416  0.13675  1.0000
  H   H53       1.0  0.03073  0.03679  0.08232  1.0000
  H   H54       1.0  0.18772  0.32633  0.22532  1.0000
  H   H55       1.0  0.23829  0.31153  0.16076  1.0000
  H   H56       1.0  0.36511  0.39906  0.05350  1.0000
  H   H57       1.0  0.26999  0.39207  0.20702  1.0000
  C   C75       1.0  0.35460  0.36375  0.19872  1.0000
  C   C76       1.0  0.16220  0.42008  0.20628  1.0000
  H   H58       1.0  0.36424  0.32382  0.19063  1.0000
  H   H59       1.0  0.09438  0.21830  0.23155  1.0000
  C   C77       1.0  0.15206  0.00168  0.06345  1.0000
  C   C78       1.0  0.32328  0.41729  0.23614  1.0000
  H   H60       1.0  0.14169  0.22711  0.23135  1.0000
  H   H61       1.0  0.18197  0.07160  0.24524  1.0000
  Fe  Fe14      1.0  0.25026  0.00843  0.15312  1.0000
  H   H62       1.0  0.00599  0.05011  0.14516  1.0000
  C   C79       1.0  0.43382  0.40387  0.02317  1.0000
  H   H63       1.0  0.21430  0.02712  0.02707  1.0000
  S   S25       1.0  0.25996  0.46510  0.02244  1.0000
  Fe  Fe15      1.0  0.09797  0.20751  0.00450  1.0000
  H   H64       1.0  0.11983  0.22581  0.15761  1.0000
  S   S26       1.0  0.47656  0.35980  0.14515  1.0000
  H   H65       1.0  0.30844  0.39842  0.16624  1.0000
  C   C80       1.0  0.48858  0.13976  0.14522  1.0000
  C   C81       1.0  0.33420  0.44219  0.18595  1.0000
  H   H66       1.0  0.39247  0.40118  0.18229  1.0000
  C   C82       1.0  0.32824  0.47471  0.02289  1.0000
  C   C83       1.0  0.38852  0.41703  0.02334  1.0000
  C   C84       1.0  0.47644  0.24287  0.09666  1.0000
  C   C85       1.0  0.31808  0.06290  0.08366  1.0000
  C   C86       1.0  0.31952  0.04041  0.09888  1.0000
  C   C87       1.0  0.32104  0.04232  0.12587  1.0000
  C   C88       1.0  0.32066  0.06667  0.13774  1.0000
  C   C89       1.0  0.31841  0.08932  0.12266  1.0000
  C   C90       1.0  0.31789  0.08732  0.09546  1.0000
  P   P2        1.0  0.31912  0.12061  0.13821  1.0000
  C   C91       1.0  0.29948  0.12028  0.16712  1.0000
  C   C92       1.0  0.35275  0.12625  0.14570  1.0000
  C   C93       1.0  0.36353  0.11569  0.16847  1.0000
  C   C94       1.0  0.38977  0.11929  0.17399  1.0000
  C   C95       1.0  0.40549  0.13311  0.15671  1.0000
  C   C96       1.0  0.39509  0.14300  0.13366  1.0000
  C   C97       1.0  0.36889  0.13927  0.12796  1.0000
  C   C98       1.0  0.30516  0.13683  0.18792  1.0000
  C   C99       1.0  0.28912  0.13728  0.20988  1.0000
  C   C100      1.0  0.26707  0.12161  0.21092  1.0000
  C   C101      1.0  0.26110  0.10557  0.18997  1.0000
  C   C102      1.0  0.27716  0.10493  0.16816  1.0000
  C   C103      1.0  0.30414  0.14547  0.11842  1.0000
  C   C104      1.0  0.28167  0.13974  0.10423  1.0000
  C   C105      1.0  0.26961  0.15895  0.08926  1.0000
  C   C106      1.0  0.27943  0.18418  0.08885  1.0000
  C   C107      1.0  0.30114  0.19032  0.10376  1.0000
  C   C108      1.0  0.31330  0.17111  0.11874  1.0000
  H   H67       1.0  0.31705  0.06139  0.06271  1.0000
  H   H68       1.0  0.36949  0.36547  0.21337  1.0000
  H   H69       1.0  0.32227  0.02487  0.13767  1.0000
  H   H70       1.0  0.32212  0.06777  0.15868  1.0000
  H   H71       1.0  0.31727  0.10450  0.08333  1.0000
  H   H72       1.0  0.35180  0.10442  0.18190  1.0000
  H   H73       1.0  0.39801  0.11125  0.19168  1.0000
  H   H74       1.0  0.42581  0.13586  0.16107  1.0000
  H   H75       1.0  0.40744  0.15337  0.12012  1.0000
  H   H76       1.0  0.36136  0.14629  0.10963  1.0000
  H   H77       1.0  0.32198  0.14930  0.18719  1.0000
  C   C109      1.0  0.32012  0.38222  0.17265  1.0000
  C   C110      1.0  0.17650  0.39778  0.24541  1.0000
  H   H78       1.0  0.24437  0.09309  0.19058  1.0000
  H   H79       1.0  0.27212  0.09234  0.15214  1.0000
  H   H80       1.0  0.27333  0.12044  0.10479  1.0000
  H   H81       1.0  0.25255  0.15424  0.07799  1.0000
  H   H82       1.0  0.27002  0.19900  0.07715  1.0000
  H   H83       1.0  0.30853  0.20999  0.10370  1.0000
  H   H84       1.0  0.32968  0.17638  0.13066  1.0000
  H   H85       1.0  0.29399  0.14950  0.22619  1.0000
  H   H86       1.0  0.10532  0.25889  0.18934  1.0000
  Fe  Fe16      1.0  0.14264  0.24157  0.02489  1.0000
  S   S27       1.0  0.35189  0.07946  0.23963  1.0000
  H   H87       1.0  0.44330  0.26830  0.09437  1.0000
  H   H88       1.0  0.11198  0.30909  0.10261  1.0000
  C   C111      1.0  0.30779  0.44766  0.18228  1.0000
  Fe  Fe17      1.0  0.48296  0.35695  0.18818  1.0000
  H   H89       1.0  0.99808  0.01157  0.11729  1.0000
  C   C112      1.0  0.42949  0.38820  0.04498  1.0000
  Fe  Fe18      1.0  0.02120  0.13581  0.24175  1.0000
  C   C113      1.0  0.14141  0.25304  0.13439  1.0000
  H   H90       1.0  0.40114  0.16614  0.20820  1.0000
  H   H91       1.0  0.07666  0.18302  0.20455  1.0000
  C   C114      1.0  0.34486  0.47733  0.15616  1.0000
  H   H92       1.0  0.19922  0.06804  0.00628  1.0000
  H   H93       1.0  0.22788  0.18443  0.22449  1.0000
  H   H94       1.0  0.22791  0.40165  0.22742  1.0000
  C   C115      1.0  0.31850  0.48238  0.15241  1.0000
  C   C116      1.0  0.12493  0.35259  0.16025  1.0000
  C   C117      1.0  0.11779  0.26451  0.17335  1.0000
  C   C118      1.0  0.21543  0.46900  0.24238  1.0000
  C   C119      1.0  0.19203  0.04953  0.99952  1.0000
  H   H95       1.0  0.47646  0.17512  0.09075  1.0000
  C   C120      1.0  0.02346  0.07075  0.05933  1.0000
  C   C121      1.0  0.33236  0.33715  0.16724  1.0000
  S   S28       1.0  0.47794  0.25993  0.21499  1.0000
  C   C122      1.0  0.12088  0.32785  0.06652  1.0000
  C   C123      1.0  0.39720  0.41067  0.20033  1.0000
  H   H96       1.0  0.15572  0.29093  0.22330  1.0000
  H   H97       1.0  0.06620  0.11990  0.04881  1.0000
  H   H98       1.0  0.45993  0.22655  0.17185  1.0000
  C   C124      1.0  0.45557  0.25469  0.08397  1.0000
  C   C125      1.0  0.31700  0.49268  0.03980  1.0000
  H   H99       1.0  0.45474  0.41036  0.09608  1.0000
  C   C126      1.0  0.23652  0.19607  0.14541  1.0000
  S   S29       1.0  0.16254  0.28010  0.01582  1.0000
  C   C127      1.0  0.21616  0.16360  0.17280  1.0000
  H   H100      1.0  0.10574  0.15604  0.17772  1.0000
  H   H101      1.0  0.14692  0.23870  0.12001  1.0000
  H   H102      1.0  0.14686  0.34883  0.19582  1.0000
  C   C128      1.0  0.17537  0.39954  0.21824  1.0000
  H   H103      1.0  0.07034  0.38951  0.15401  1.0000
  H   H104      1.0  0.31875  0.45918  0.23564  1.0000
  C   C129      1.0  0.46659  0.23170  0.04457  1.0000
  C   C130      1.0  0.45073  0.24922  0.05789  1.0000
  H   H105      1.0  0.07997  0.39816  0.20036  1.0000
  H   H106      1.0  0.11820  0.37767  0.22120  1.0000
  H   H107      1.0  0.30238  0.35631  0.14528  1.0000
  H   H108      1.0  0.25741  0.16924  0.16979  1.0000
  C   C131      1.0  0.47504  0.20961  0.23378  1.0000
  C   C132      1.0  0.19719  0.47813  0.19937  1.0000
  C   C133      1.0  0.23850  0.17585  0.16347  1.0000
  C   C134      1.0  0.15886  0.10540  0.23663  1.0000
  C   C135      1.0  0.08700  0.38047  0.16312  1.0000
  C   C136      1.0  0.36726  0.15686  0.23103  1.0000
  H   H109      1.0  0.48730  0.37657  0.08468  1.0000
  H   H110      1.0  0.46297  0.22757  0.02429  1.0000
  H   H111      1.0  0.33050  0.31896  0.15693  1.0000
  C   C137      1.0  0.10660  0.01572  0.18515  1.0000
  C   C138      1.0  0.13014  0.35747  0.18655  1.0000
  C   C139      1.0  0.22324  0.36342  0.24419  1.0000
  C   C140      1.0  0.19220  0.08859  0.20844  1.0000
  C   C141      1.0  0.17827  0.08726  0.23159  1.0000
  H   H112      1.0  0.26831  0.31508  0.23942  1.0000
  C   C142      1.0  0.15401  0.12544  0.21890  1.0000
  C   C143      1.0  0.16844  0.12744  0.19571  1.0000
  C   C144      1.0  0.18733  0.10848  0.19051  1.0000
  P   P3        1.0  0.16243  0.15394  0.17303  1.0000
  C   C145      1.0  0.14064  0.17642  0.18889  1.0000
  C   C146      1.0  0.19160  0.17113  0.16368  1.0000
  C   C147      1.0  0.14218  0.33794  0.10734  1.0000
  H   H113      1.0  0.25045  0.35748  0.16713  1.0000
  H   H114      1.0  0.16504  0.37598  0.05802  1.0000
  C   C148      1.0  0.12377  0.32375  0.09323  1.0000
  C   C149      1.0  0.18985  0.19179  0.14584  1.0000
  C   C150      1.0  0.15055  0.19662  0.20413  1.0000
  H   H115      1.0  0.43475  0.25865  0.04800  1.0000
  C   C151      1.0  0.27164  0.35276  0.22149  1.0000
  H   H116      1.0  0.16224  0.42197  0.18529  1.0000
  C   C152      1.0  0.11384  0.17179  0.18895  1.0000
  C   C153      1.0  0.14832  0.14305  0.14283  1.0000
  C   C154      1.0  0.15408  0.11840  0.13277  1.0000
  C   C155      1.0  0.14502  0.11110  0.10831  1.0000
  C   C156      1.0  0.13130  0.12881  0.09308  1.0000
  C   C157      1.0  0.12562  0.15335  0.10279  1.0000
  C   C158      1.0  0.13363  0.16036  0.12767  1.0000
  H   H117      1.0  0.20651  0.07384  0.20436  1.0000
  C   C159      1.0  0.31655  0.35820  0.16066  1.0000
  C   C160      1.0  0.20075  0.02652  0.01099  1.0000
  H   H118      1.0  0.31937  0.02146  0.08983  1.0000
  H   H119      1.0  0.19850  0.10909  0.17270  1.0000
  C   C161      1.0  0.31367  0.44114  0.24525  1.0000
  C   C162      1.0  0.15322  0.36165  0.06793  1.0000
  H   H120      1.0  0.17127  0.19801  0.13840  1.0000
  H   H121      1.0  0.17115  0.20025  0.20467  1.0000
  H   H122      1.0  0.29023  0.34863  0.21257  1.0000
  C   C163      1.0  0.12135  0.00461  0.09891  1.0000
  C   C164      1.0  0.48747  0.21984  0.05724  1.0000
  H   H123      1.0  0.16603  0.10479  0.14324  1.0000
  H   H124      1.0  0.14987  0.09215  0.10066  1.0000
  H   H125      1.0  0.12596  0.12398  0.07336  1.0000
  H   H126      1.0  0.11556  0.16724  0.09073  1.0000
  H   H127      1.0  0.12899  0.17965  0.13451  1.0000
  P   P4        1.0  0.14639  0.33196  0.14175  1.0000
  C   C165      1.0  0.14832  0.27902  0.13082  1.0000
  C   C166      1.0  0.12452  0.29059  0.16975  1.0000
  H   H128      1.0  0.13968  0.45484  0.21215  1.0000
  C   C167      1.0  0.19673  0.48117  0.22679  1.0000
  C   C168      1.0  0.29996  0.46757  0.16552  1.0000
  C   C169      1.0  0.09730  0.18695  0.20425  1.0000
  H   H129      1.0  0.17111  0.36839  0.10459  1.0000
  C   C170      1.0  0.40472  0.38660  0.05580  1.0000
  C   C171      1.0  0.15663  0.35720  0.09451  1.0000
  C   C172      1.0  0.17925  0.33962  0.15088  1.0000
  C   C173      1.0  0.18631  0.36562  0.15488  1.0000
  C   C174      1.0  0.21179  0.37198  0.16121  1.0000
  C   C175      1.0  0.23046  0.35244  0.16352  1.0000
  C   C176      1.0  0.22358  0.32651  0.15989  1.0000
  C   C177      1.0  0.19807  0.32007  0.15358  1.0000
  C   C178      1.0  0.11393  0.37376  0.20098  1.0000
  C   C179      1.0  0.35140  0.33993  0.18622  1.0000
  H   H130      1.0  0.47974  0.24719  0.11688  1.0000
  C   C180      1.0  0.26022  0.37718  0.21828  1.0000
  C   C181      1.0  0.17237  0.32551  0.23968  1.0000
  H   H131      1.0  0.21840  0.14811  0.18672  1.0000
  H   H132      1.0  0.25385  0.20525  0.13788  1.0000
  C   C182      1.0  0.19177  0.00264  0.00202  1.0000
  P   P5        1.0  0.34387  0.41621  0.20766  1.0000
  C   C183      1.0  0.48299  0.43628  0.11239  1.0000
  H   H133      1.0  0.45975  0.13742  0.11527  1.0000
  C   C184      1.0  0.13393  0.21179  0.21935  1.0000
  C   C185      1.0  0.33923  0.38526  0.19177  1.0000
  C   C186      1.0  0.34710  0.45717  0.03184  1.0000
  H   H134      1.0  0.09709  0.00510  0.16989  1.0000
  H   H135      1.0  0.25492  0.12147  0.22809  1.0000
  H   H136      1.0  0.13395  0.34938  0.03305  1.0000
  H   H137      1.0  0.02136  0.10680  0.03795  1.0000
  C   C187      1.0  0.49339  0.39465  0.09342  1.0000
  Fe  Fe19      1.0  0.22216  0.99947  0.10144  1.0000
  C   C188      1.0  0.15410  0.30554  0.23829  1.0000
  S   S30       1.0  0.08729  0.06664  0.24236  1.0000
  C   C189      1.0  0.38429  0.40076  0.04494  1.0000
  C   C190      1.0  0.12048  0.03658  0.06426  1.0000
  H   H138      1.0  0.00370  0.06531  0.05502  1.0000
  C   C191      1.0  0.35272  0.45724  0.17278  1.0000
  C   C192      1.0  0.35504  0.45846  0.05789  1.0000
  C   C193      1.0  0.47656  0.14775  0.12224  1.0000
  H   H139      1.0  0.43040  0.28580  0.23587  1.0000
  C   C194      1.0  0.47510  0.41359  0.09995  1.0000
  H   H140      1.0  0.43842  0.40588  0.19469  1.0000
  H   H141      1.0  0.30001  0.07926  0.22139  1.0000
  C   C195      1.0  0.41500  0.27850  0.24827  1.0000
  H   H142      1.0  0.29325  0.43627  0.19219  1.0000
  H   H143      1.0  0.41877  0.19654  0.24034  1.0000
  H   H144      1.0  0.44523  0.37705  0.05343  1.0000
  H   H145      1.0  0.21365  0.22640  0.24320  1.0000
  C   C196      1.0  0.39048  0.16985  0.22598  1.0000
  H   H146      1.0  0.36005  0.14268  0.21744  1.0000
  C   C197      1.0  0.40067  0.18680  0.24443  1.0000
  C   C198      1.0  0.42981  0.42575  0.23034  1.0000
  H   H147      1.0  0.48278  0.42947  0.17296  1.0000
  C   C199      1.0  0.03884  0.00371  0.15678  1.0000
  C   C200      1.0  0.32461  0.49348  0.06576  1.0000
  H   H148      1.0  0.00149  0.16366  0.07572  1.0000
  H   H149      1.0  0.18265  0.48778  0.18769  1.0000
  H   H150      1.0  0.30522  0.42637  0.01877  1.0000
  C   C201      1.0  0.41337  0.41803  0.01216  1.0000
  H   H151      1.0  0.03131  0.00714  0.17616  1.0000
  H   H152      1.0  0.45006  0.42778  0.23558  1.0000
  H   H153      1.0  0.14030  0.05129  0.24154  1.0000
  P   P6        1.0  0.36134  0.43433  0.00932  1.0000
  H   H154      1.0  0.49329  0.47647  0.16878  1.0000
  C   C202      1.0  0.21325  0.18478  0.23963  1.0000
  H   H155      1.0  0.45302  0.40490  0.01472  1.0000
  H   H156      1.0  0.18889  0.32876  0.00989  1.0000
  H   H157      1.0  0.20881  0.14319  0.24072  1.0000
  H   H158      1.0  0.31239  0.49751  0.13908  1.0000
  C   C203      1.0  0.49499  0.43867  0.18721  1.0000
  C   C204      1.0  0.31278  0.41020  0.00771  1.0000
  C   C205      1.0  0.48608  0.16917  0.10845  1.0000
  H   H159      1.0  0.27585  0.39086  0.00700  1.0000
  C   C206      1.0  0.49286  0.22574  0.08329  1.0000
  S   S31       1.0  0.49360  0.39143  0.21467  1.0000
  H   H160      1.0  0.48088  0.12353  0.15627  1.0000
  C   C207      1.0  0.29597  0.39010  0.00095  1.0000
  C   C208      1.0  0.20258  0.16159  0.24879  1.0000
  C   C209      1.0  0.23526  0.33925  0.24812  1.0000
  C   C210      1.0  0.33891  0.40913  0.00035  1.0000
  C   C211      1.0  0.01675  0.21747  0.40074  1.0000
  H   H161      1.0  0.26834  0.48586  0.39941  1.0000
  C   C212      1.0  0.18396  0.16202  0.26857  1.0000
  Fe  Fe20      1.0  0.42857  0.09822  0.29533  1.0000
  S   S32       1.0  0.46486  0.08993  0.27264  1.0000
  S   S33       1.0  0.43379  0.12077  0.33264  1.0000
  C   C213      1.0  0.42904  0.01628  0.36275  1.0000
  C   C214      1.0  0.00529  0.29924  0.36621  1.0000
  H   H162      1.0  0.24296  0.20841  0.49434  1.0000
  S   S34       1.0  0.41066  0.05923  0.28834  1.0000
  Fe  Fe21      1.0  0.31568  0.18840  0.47315  1.0000
  S   S35       1.0  0.31282  0.14493  0.47586  1.0000
  S   S36       1.0  0.28205  0.21006  0.45178  1.0000
  H   H163      1.0  0.48580  0.11975  0.45663  1.0000
  Fe  Fe22      1.0  0.35306  0.14410  0.45921  1.0000
  S   S37       1.0  0.35848  0.11176  0.42982  1.0000
  S   S38       1.0  0.35589  0.18752  0.45459  1.0000
  Fe  Fe23      1.0  0.08768  0.22884  0.39051  1.0000
  S   S39       1.0  0.08663  0.22984  0.43432  1.0000
  S   S40       1.0  0.08083  0.19015  0.37053  1.0000
  Fe  Fe24      1.0  0.10432  0.28542  0.38687  1.0000
  S   S41       1.0  0.10453  0.28998  0.43031  1.0000
  S   S42       1.0  0.11149  0.31626  0.35584  1.0000
  Fe  Fe25      1.0  0.12511  0.25085  0.43091  1.0000
  S   S43       1.0  0.15963  0.23843  0.45726  1.0000
  Fe  Fe26      1.0  0.06599  0.26853  0.42980  1.0000
  S   S44       1.0  0.03069  0.28662  0.45202  1.0000
  S   S45       1.0  0.12672  0.24788  0.38743  1.0000
  S   S46       1.0  0.06540  0.26600  0.38605  1.0000
  Fe  Fe27      1.0  0.19147  0.48539  0.31266  1.0000
  S   S47       1.0  0.15211  0.46802  0.32126  1.0000
  C   C215      1.0  0.01180  0.19550  0.38580  1.0000
  Fe  Fe28      1.0  0.16834  0.45793  0.36057  1.0000
  S   S48       1.0  0.16700  0.42176  0.38577  1.0000
  S   S49       1.0  0.20799  0.47307  0.35157  1.0000
  C   C216      1.0  0.18554  0.35589  0.45956  1.0000
  C   C217      1.0  0.12637  0.34577  0.36451  1.0000
  C   C218      1.0  0.12691  0.36640  0.34657  1.0000
  C   C219      1.0  0.13912  0.38997  0.35278  1.0000
  C   C220      1.0  0.15086  0.39297  0.37703  1.0000
  C   C221      1.0  0.15031  0.37233  0.39490  1.0000
  C   C222      1.0  0.13807  0.34883  0.38873  1.0000
  H   H164      1.0  0.11760  0.36424  0.32794  1.0000
  H   H165      1.0  0.13948  0.40578  0.33888  1.0000
  H   H166      1.0  0.15939  0.37457  0.41362  1.0000
  H   H167      1.0  0.13785  0.33305  0.40265  1.0000
  C   C223      1.0  0.24778  0.21703  0.45371  1.0000
  C   C224      1.0  0.23339  0.21460  0.47673  1.0000
  C   C225      1.0  0.20667  0.22110  0.47730  1.0000
  C   C226      1.0  0.19354  0.22997  0.45491  1.0000
  C   C227      1.0  0.20784  0.23214  0.43180  1.0000
  C   C228      1.0  0.23465  0.22586  0.43128  1.0000
  C   C229      1.0  0.21537  0.39508  0.34370  1.0000
  H   H168      1.0  0.19835  0.23905  0.41439  1.0000
  H   H169      1.0  0.24536  0.22804  0.41334  1.0000
  S   S50       1.0  0.21647  0.47223  0.27725  1.0000
  H   H170      1.0  0.25784  0.16240  0.48657  1.0000
  C   C230      1.0  0.41220  0.11838  0.35911  1.0000
  C   C231      1.0  0.41464  0.13586  0.37981  1.0000
  C   C232      1.0  0.39804  0.13432  0.40147  1.0000
  C   C233      1.0  0.37916  0.11498  0.40270  1.0000
  C   C234      1.0  0.37694  0.09727  0.38215  1.0000
  C   C235      1.0  0.39325  0.09909  0.36030  1.0000
  H   H171      1.0  0.42930  0.15082  0.37897  1.0000
  H   H172      1.0  0.39993  0.14800  0.41723  1.0000
  H   H173      1.0  0.36244  0.08219  0.38307  1.0000
  H   H174      1.0  0.39143  0.08539  0.34455  1.0000
  C   C236      1.0  0.42868  0.02805  0.38736  1.0000
  H   H175      1.0  0.23454  0.16345  0.44060  1.0000
  C   C237      1.0  0.03777  0.17847  0.29334  1.0000
  C   C238      1.0  0.04836  0.15740  0.30683  1.0000
  C   C239      1.0  0.06098  0.16133  0.33070  1.0000
  C   C240      1.0  0.06346  0.18631  0.34117  1.0000
  C   C241      1.0  0.05236  0.20736  0.32799  1.0000
  C   C242      1.0  0.03957  0.20340  0.30416  1.0000
  H   H176      1.0  0.04678  0.13807  0.29890  1.0000
  H   H177      1.0  0.06891  0.14490  0.34112  1.0000
  H   H178      1.0  0.05378  0.22664  0.33610  1.0000
  H   H179      1.0  0.24064  0.47776  0.47734  1.0000
  C   C243      1.0  0.30014  0.39522  0.27100  1.0000
  H   H180      1.0  0.27674  0.41960  0.29574  1.0000
  C   C244      1.0  0.20521  0.20843  0.25016  1.0000
  C   C245      1.0  0.45247  0.22396  0.30512  1.0000
  C   C246      1.0  0.38779  0.19082  0.26810  1.0000
  H   H181      1.0  0.24446  0.44622  0.38660  1.0000
  C   C247      1.0  0.46849  0.17216  0.30290  1.0000
  C   C248      1.0  0.46052  0.13534  0.48601  1.0000
  H   H182      1.0  0.02138  0.29821  0.32724  1.0000
  C   C249      1.0  0.48612  0.19143  0.30981  1.0000
  C   C250      1.0  0.43972  0.05256  0.39086  1.0000
  H   H183      1.0  0.44644  0.24403  0.30670  1.0000
  C   C251      1.0  0.18461  0.38242  0.46524  1.0000
  C   C252      1.0  0.39820  0.24471  0.27677  1.0000
  H   H184      1.0  0.47447  0.15197  0.30244  1.0000
  H   H185      1.0  0.38721  0.16766  0.32288  1.0000
  H   H186      1.0  0.35926  0.25130  0.29100  1.0000
  C   C253      1.0  0.38645  0.20979  0.32306  1.0000
  H   H187      1.0  0.05680  0.32858  0.33655  1.0000
  H   H188      1.0  0.18733  0.34487  0.31214  1.0000
  H   H189      1.0  0.16365  0.41536  0.28151  1.0000
  C   C254      1.0  0.45180  0.06518  0.37008  1.0000
  H   H190      1.0  0.20986  0.32324  0.45002  1.0000
  C   C255      1.0  0.36384  0.17866  0.27250  1.0000
  H   H191      1.0  0.36665  0.16306  0.36587  1.0000
  H   H192      1.0  0.16780  0.34469  0.45883  1.0000
  C   C256      1.0  0.29695  0.44189  0.26667  1.0000
  C   C257      1.0  0.28999  0.41893  0.27938  1.0000
  C   C258      1.0  0.37240  0.28318  0.26740  1.0000
  C   C259      1.0  0.18221  0.13656  0.44131  1.0000
  C   C260      1.0  0.28548  0.13121  0.41406  1.0000
  C   C261      1.0  0.26756  0.15105  0.41859  1.0000
  H   H193      1.0  0.41977  0.01864  0.40388  1.0000
  C   C262      1.0  0.20221  0.37960  0.29327  1.0000
  C   C263      1.0  0.44193  0.02884  0.34222  1.0000
  H   H194      1.0  0.10194  0.46351  0.46216  1.0000
  S   S51       1.0  0.47193  0.01559  0.27430  1.0000
  C   C264      1.0  0.35389  0.16136  0.25421  1.0000
  H   H195      1.0  0.30167  0.13438  0.40096  1.0000
  H   H196      1.0  0.26987  0.16975  0.40913  1.0000
  H   H197      1.0  0.15196  0.14852  0.41497  1.0000
  C   C265      1.0  0.48407  0.12556  0.47677  1.0000
  C   C266      1.0  0.38185  0.18498  0.33354  1.0000
  H   H198      1.0  0.36639  0.24586  0.37489  1.0000
  H   H199      1.0  0.43844  0.06209  0.40954  1.0000
  H   H200      1.0  0.21941  0.40157  0.36327  1.0000
  H   H201      1.0  0.02909  0.21600  0.41768  1.0000
  C   C267      1.0  0.20925  0.34380  0.45447  1.0000
  H   H202      1.0  0.44317  0.02011  0.32321  1.0000
  H   H203      1.0  0.15238  0.18667  0.48885  1.0000
  H   H204      1.0  0.16470  0.23753  0.32507  1.0000
  Fe  Fe29      1.0  0.39420  0.07723  0.25182  1.0000
  C   C268      1.0  0.20301  0.37133  0.33976  1.0000
  C   C269      1.0  0.44298  0.17878  0.29667  1.0000
  H   H205      1.0  0.28897  0.46028  0.27316  1.0000
  H   H206      1.0  0.35473  0.29427  0.26989  1.0000
  H   H207      1.0  0.12301  0.16700  0.26092  1.0000
  H   H208      1.0  0.17467  0.08908  0.46191  1.0000
  C   C270      1.0  0.24752  0.14741  0.43656  1.0000
  C   C271      1.0  0.22191  0.41070  0.32243  1.0000
  C   C272      1.0  0.04290  0.32368  0.35158  1.0000
  H   H209      1.0  0.16595  0.39132  0.46874  1.0000
  H   H210      1.0  0.35470  0.00202  0.26468  1.0000
  C   C273      1.0  0.04581  0.33405  0.37641  1.0000
  C   C274      1.0  0.37050  0.18226  0.35809  1.0000
  C   C275      1.0  0.28325  0.10762  0.42734  1.0000
  H   H211      1.0  0.23147  0.42913  0.32533  1.0000
  H   H212      1.0  0.42956  0.16351  0.29167  1.0000
  C   C276      1.0  0.41782  0.25438  0.26046  1.0000
  C   C277      1.0  0.02836  0.32737  0.39607  1.0000
  C   C278      1.0  0.37029  0.22892  0.36309  1.0000
  C   C279      1.0  0.17039  0.34449  0.25911  1.0000
  C   C280      1.0  0.23211  0.35824  0.45502  1.0000
  P   P7        1.0  0.40145  0.21295  0.29143  1.0000
  C   C281      1.0  0.10425  0.13196  0.27327  1.0000
  C   C282      1.0  0.16040  0.15099  0.43404  1.0000
  C   C283      1.0  0.20751  0.39709  0.46584  1.0000
  C   C284      1.0  0.23127  0.38477  0.46068  1.0000
  P   P8        1.0  0.20687  0.43131  0.47366  1.0000
  C   C285      1.0  0.17415  0.44338  0.47055  1.0000
  S   S52       1.0  0.40895  0.11699  0.26151  1.0000
  H   H213      1.0  0.18077  0.22743  0.27792  1.0000
  C   C286      1.0  0.25638  0.48357  0.43944  1.0000
  H   H214      1.0  0.02066  0.17708  0.39092  1.0000
  C   C287      1.0  0.16549  0.45436  0.44711  1.0000
  C   C288      1.0  0.13957  0.46169  0.44424  1.0000
  C   C289      1.0  0.12211  0.45824  0.46470  1.0000
  C   C290      1.0  0.02278  0.30631  0.34645  1.0000
  C   C291      1.0  0.25744  0.47496  0.41378  1.0000
  C   C292      1.0  0.22733  0.44816  0.45058  1.0000
  C   C293      1.0  0.22864  0.43955  0.42474  1.0000
  C   C294      1.0  0.24381  0.45279  0.40652  1.0000
  Fe  Fe30      1.0  0.44619  0.05112  0.26385  1.0000
  H   H215      1.0  0.00648  0.25309  0.31565  1.0000
  C   C295      1.0  0.24144  0.47024  0.45781  1.0000
  H   H216      1.0  0.33301  0.00444  0.30754  1.0000
  C   C296      1.0  0.00647  0.24154  0.39343  1.0000
  H   H217      1.0  0.49406  0.21669  0.47587  1.0000
  C   C297      1.0  0.19673  0.36340  0.31461  1.0000
  H   H218      1.0  0.34641  0.99923  0.42501  1.0000
  H   H219      1.0  0.22617  0.32467  0.26030  1.0000
  C   C298      1.0  0.13056  0.44733  0.48809  1.0000
  H   H220      1.0  0.17842  0.45672  0.43070  1.0000
  H   H221      1.0  0.13294  0.46926  0.42575  1.0000
  H   H222      1.0  0.46216  0.06320  0.32962  1.0000
  C   C299      1.0  0.21537  0.40301  0.29733  1.0000
  H   H223      1.0  0.37320  0.01251  0.38753  1.0000
  H   H224      1.0  0.21738  0.42301  0.41845  1.0000
  H   H225      1.0  0.09546  0.12834  0.25456  1.0000
  H   H226      1.0  0.26251  0.08580  0.45598  1.0000
  H   H227      1.0  0.22006  0.41567  0.28111  1.0000
  H   H228      1.0  0.35623  0.20199  0.39206  1.0000
  H   H229      1.0  0.48184  0.21795  0.25174  1.0000
  H   H230      1.0  0.14023  0.27850  0.32677  1.0000
  C   C300      1.0  0.17548  0.18572  0.27903  1.0000
  H   H231      1.0  0.19767  0.35941  0.35633  1.0000
  P   P9        1.0  0.15238  0.18592  0.30551  1.0000
  C   C301      1.0  0.16928  0.18365  0.33617  1.0000
  C   C302      1.0  0.13453  0.21621  0.30522  1.0000
  C   C303      1.0  0.10952  0.21798  0.29466  1.0000
  C   C304      1.0  0.09592  0.24151  0.29540  1.0000
  C   C305      1.0  0.10690  0.26323  0.30712  1.0000
  C   C306      1.0  0.13187  0.26174  0.31732  1.0000
  C   C307      1.0  0.14563  0.23839  0.31639  1.0000
  C   C308      1.0  0.19502  0.17479  0.33743  1.0000
  C   C309      1.0  0.20816  0.17443  0.36121  1.0000
  C   C310      1.0  0.19578  0.18306  0.38377  1.0000
  C   C311      1.0  0.17015  0.19169  0.38267  1.0000
  C   C312      1.0  0.15680  0.19160  0.35907  1.0000
  C   C313      1.0  0.13090  0.15860  0.30139  1.0000
  C   C314      1.0  0.11976  0.15382  0.27701  1.0000
  C   C315      1.0  0.45311  0.05322  0.34585  1.0000
  C   C316      1.0  0.10007  0.11451  0.29366  1.0000
  C   C317      1.0  0.11110  0.11908  0.31795  1.0000
  C   C318      1.0  0.12627  0.14115  0.32192  1.0000
  H   H232      1.0  0.38636  0.25097  0.33156  1.0000
  H   H233      1.0  0.09994  0.20118  0.28670  1.0000
  H   H234      1.0  0.07639  0.24257  0.28786  1.0000
  H   H235      1.0  0.09587  0.28108  0.30896  1.0000
  C   C319      1.0  0.18645  0.20894  0.26984  1.0000
  C   C320      1.0  0.13118  0.32377  0.27506  1.0000
  H   H236      1.0  0.20507  0.16831  0.32017  1.0000
  H   H237      1.0  0.22805  0.16773  0.36216  1.0000
  H   H238      1.0  0.20602  0.18316  0.40213  1.0000
  H   H239      1.0  0.16063  0.19865  0.40015  1.0000
  H   H240      1.0  0.13680  0.19806  0.35863  1.0000
  H   H241      1.0  0.44399  0.13709  0.47314  1.0000
  C   C321      1.0  0.37515  0.25897  0.27958  1.0000
  H   H242      1.0  0.08799  0.09759  0.29068  1.0000
  H   H243      1.0  0.10739  0.10577  0.33387  1.0000
  H   H244      1.0  0.13416  0.14451  0.34105  1.0000
  H   H245      1.0  0.19063  0.12300  0.42764  1.0000
  H   H246      1.0  0.29486  0.37747  0.28101  1.0000
  H   H247      1.0  0.43529  0.24326  0.25684  1.0000
  C   C322      1.0  0.36466  0.20420  0.37285  1.0000
  H   H248      1.0  0.01085  0.25833  0.40512  1.0000
  H   H249      1.0  0.45968  0.08451  0.37252  1.0000
  C   C323      1.0  0.22940  0.07023  0.49383  1.0000
  C   C324      1.0  0.47810  0.21733  0.31096  1.0000
  C   C325      1.0  0.45648  0.21095  0.49372  1.0000
  H   H250      1.0  0.17634  0.14380  0.27585  1.0000
  H   H251      1.0  0.14668  0.35898  0.29065  1.0000
  C   C326      1.0  0.39789  0.08304  0.49013  1.0000
  H   H252      1.0  0.03128  0.21972  0.29388  1.0000
  C   C327      1.0  0.21238  0.08671  0.48031  1.0000
  C   C328      1.0  0.16343  0.41635  0.26049  1.0000
  H   H253      1.0  0.35295  0.18210  0.29011  1.0000
  H   H254      1.0  0.40583  0.09241  0.47298  1.0000
  C   C329      1.0  0.18192  0.15747  0.48340  1.0000
  H   H255      1.0  0.11529  0.32319  0.28891  1.0000
  C   C330      1.0  0.24529  0.12386  0.45026  1.0000
  C   C331      1.0  0.26327  0.10392  0.44540  1.0000
  C   C332      1.0  0.43487  0.20476  0.29741  1.0000
  C   C333      1.0  0.19302  0.13956  0.46613  1.0000
  H   H256      1.0  0.16341  0.04353  0.47043  1.0000
  H   H257      1.0  0.06197  0.34678  0.38052  1.0000
  H   H258      1.0  0.36456  0.06857  0.46983  1.0000
  C   C334      1.0  0.38135  0.23174  0.33837  1.0000
  H   H259      1.0  0.44721  0.20540  0.47578  1.0000
  H   H260      1.0  0.19382  0.01480  0.49449  1.0000
  H   H261      1.0  0.29772  0.09263  0.42437  1.0000
  S   S53       1.0  0.15550  0.49506  0.37917  1.0000
  S   S54       1.0  0.02220  0.17456  0.26298  1.0000
  H   H262      1.0  0.11956  0.28902  0.25521  1.0000
  C   C335      1.0  0.00814  0.31014  0.39100  1.0000
  C   C336      1.0  0.15651  0.44007  0.49110  1.0000
  H   H263      1.0  0.33620  0.15083  0.25827  1.0000
  C   C337      1.0  0.13364  0.30454  0.25613  1.0000
  C   C338      1.0  0.18849  0.07687  0.47189  1.0000
  P   P10       1.0  0.22092  0.12045  0.47538  1.0000
  C   C339      1.0  0.14922  0.34389  0.27626  1.0000
  C   C340      1.0  0.19901  0.03476  0.49033  1.0000
  C   C341      1.0  0.37452  0.06961  0.48833  1.0000
  H   H264      1.0  0.41557  0.44508  0.26448  1.0000
  H   H265      1.0  0.03091  0.33486  0.41554  1.0000
  H   H266      1.0  0.24916  0.39572  0.46105  1.0000
  C   C342      1.0  0.48319  0.21740  0.49384  1.0000
  C   C343      1.0  0.18192  0.05096  0.47681  1.0000
  S   S55       1.0  0.37242  0.14356  0.49820  1.0000
  H   H267      1.0  0.19610  0.21947  0.49540  1.0000
  H   H268      1.0  0.14721  0.10353  0.25408  1.0000
  H   H269      1.0  0.25049  0.34883  0.45103  1.0000
  S   S56       1.0  0.01874  0.09557  0.25859  1.0000
  P   P11       1.0  0.19320  0.37092  0.26063  1.0000
  C   C344      1.0  0.14965  0.16899  0.45122  1.0000
  C   C345      1.0  0.16040  0.17219  0.47585  1.0000
  H   H270      1.0  0.14058  0.45142  0.26021  1.0000
  H   H271      1.0  0.13323  0.18082  0.44537  1.0000
  H   H272      1.0  0.49170  0.23226  0.31651  1.0000
  Fe  Fe31      1.0  0.37317  0.18717  0.49535  1.0000
  H   H273      1.0  0.36951  0.44024  0.25269  1.0000
  C   C346      1.0  0.39239  0.29300  0.25186  1.0000
  C   C347      1.0  0.35336  0.99933  0.30647  1.0000
  H   H274      1.0  0.47354  0.17049  0.24942  1.0000
  C   C348      1.0  0.31692  0.39439  0.24960  1.0000
  H   H275      1.0  0.45005  0.05636  0.53079  1.0000
  H   H276      1.0  0.49242  0.05806  0.61718  1.0000
  C   C349      1.0  0.44914  0.49286  0.69821  1.0000
  C   C350      1.0  0.47214  0.26033  0.66717  1.0000
  H   H277      1.0  0.07318  0.47743  0.67960  1.0000
  H   H278      1.0  0.09903  0.47692  0.53565  1.0000
  S   S57       1.0  0.32153  0.12671  0.55169  1.0000
  H   H279      1.0  0.24910  0.40614  0.55655  1.0000
  H   H280      1.0  0.44041  0.15214  0.51860  1.0000
  C   C351      1.0  0.48406  0.04714  0.55265  1.0000
  H   H281      1.0  0.40078  0.27600  0.55021  1.0000
  H   H282      1.0  0.27797  0.17725  0.52700  1.0000
  C   C352      1.0  0.13834  0.48817  0.54369  1.0000
  C   C353      1.0  0.06822  0.49699  0.68544  1.0000
  C   C354      1.0  0.45446  0.22015  0.53952  1.0000
  C   C355      1.0  0.48131  0.22576  0.53978  1.0000
  H   H283      1.0  0.49411  0.03892  0.53611  1.0000
  C   C356      1.0  0.23442  0.13281  0.50526  1.0000
  C   C357      1.0  0.48052  0.26593  0.64178  1.0000
  C   C358      1.0  0.04490  0.45571  0.61153  1.0000
  C   C359      1.0  0.28344  0.04608  0.55360  1.0000
  C   C360      1.0  0.28895  0.05818  0.52968  1.0000
  C   C361      1.0  0.30072  0.08282  0.52871  1.0000
  C   C362      1.0  0.30713  0.09555  0.55174  1.0000
  C   C363      1.0  0.30197  0.08330  0.57562  1.0000
  C   C364      1.0  0.29041  0.05858  0.57658  1.0000
  H   H284      1.0  0.05437  0.36211  0.56127  1.0000
  C   C365      1.0  0.35506  0.06849  0.62103  1.0000
  H   H285      1.0  0.30665  0.09313  0.59349  1.0000
  H   H286      1.0  0.28635  0.04949  0.59511  1.0000
  C   C366      1.0  0.48544  0.30206  0.59805  1.0000
  C   C367      1.0  0.23918  0.42138  0.54590  1.0000
  C   C368      1.0  0.35558  0.46656  0.72455  1.0000
  C   C369      1.0  0.33900  0.00075  0.54522  1.0000
  C   C370      1.0  0.43659  0.27291  0.60583  1.0000
  C   C371      1.0  0.44164  0.21279  0.51649  1.0000
  H   H287      1.0  0.23580  0.03201  0.50979  1.0000
  S   S58       1.0  0.33314  0.19168  0.51340  1.0000
  C   C372      1.0  0.04007  0.47040  0.63394  1.0000
  H   H288      1.0  0.01743  0.39865  0.63032  1.0000
  C   C373      1.0  0.36220  0.04490  0.63243  1.0000
  C   C374      1.0  0.02006  0.35348  0.58356  1.0000
  C   C375      1.0  0.02375  0.41860  0.63130  1.0000
  H   H289      1.0  0.47961  0.23895  0.70242  1.0000
  H   H290      1.0  0.44820  0.07581  0.61230  1.0000
  H   H291      1.0  0.37615  0.16841  0.55642  1.0000
  H   H292      1.0  0.32449  0.01531  0.54096  1.0000
  C   C376      1.0  0.25234  0.15322  0.50469  1.0000
  C   C377      1.0  0.34148  0.44492  0.73285  1.0000
  C   C378      1.0  0.25741  0.15019  0.55134  1.0000
  H   H293      1.0  0.02120  0.47043  0.67164  1.0000
  C   C379      1.0  0.21371  0.46073  0.51848  1.0000
  C   C380      1.0  0.40735  0.26924  0.56906  1.0000
  C   C381      1.0  0.39258  0.15742  0.56369  1.0000
  C   C382      1.0  0.41389  0.17031  0.57396  1.0000
  S   S59       1.0  0.26777  0.01549  0.55387  1.0000
  C   C383      1.0  0.40498  0.23804  0.60422  1.0000
  C   C384      1.0  0.44591  0.06797  0.57105  1.0000
  C   C385      1.0  0.03689  0.42981  0.61031  1.0000
  H   H294      1.0  0.24294  0.44948  0.57661  1.0000
  H   H295      1.0  0.40557  0.48571  0.74723  1.0000
  H   H296      1.0  0.33734  0.07805  0.62709  1.0000
  H   H297      1.0  0.26706  0.15627  0.56895  1.0000
  H   H298      1.0  0.00729  0.35658  0.56715  1.0000
  H   H299      1.0  0.00779  0.42484  0.66960  1.0000
  C   C386      1.0  0.23904  0.13037  0.55222  1.0000
  H   H300      1.0  0.43518  0.29973  0.57325  1.0000
  C   C387      1.0  0.45812  0.06800  0.59544  1.0000
  H   H301      1.0  0.32740  0.49769  0.68763  1.0000
  H   H302      1.0  0.39947  0.35614  0.64923  1.0000
  C   C388      1.0  0.43294  0.35549  0.67409  1.0000
  C   C389      1.0  0.05355  0.34719  0.62573  1.0000
  C   C390      1.0  0.37573  0.06089  0.53460  1.0000
  H   H303      1.0  0.36623  0.05296  0.55161  1.0000
  C   C391      1.0  0.45690  0.34389  0.67907  1.0000
  H   H304      1.0  0.36430  0.09768  0.59286  1.0000
  H   H305      1.0  0.48457  0.31522  0.66724  1.0000
  H   H306      1.0  0.16266  0.43115  0.50915  1.0000
  C   C392      1.0  0.43530  0.12907  0.58143  1.0000
  H   H307      1.0  0.06650  0.34495  0.64212  1.0000
  C   C393      1.0  0.41005  0.08573  0.51422  1.0000
  C   C394      1.0  0.39918  0.07450  0.53664  1.0000
  C   C395      1.0  0.42502  0.25090  0.61707  1.0000
  H   H308      1.0  0.42603  0.37105  0.68647  1.0000
  C   C396      1.0  0.42700  0.32695  0.63720  1.0000
  H   H309      1.0  0.41521  0.32077  0.62105  1.0000
  C   C397      1.0  0.06347  0.35369  0.60127  1.0000
  H   H310      1.0  0.21301  0.10664  0.53051  1.0000
  P   P12       1.0  0.41338  0.08093  0.56806  1.0000
  Fe  Fe32      1.0  0.33234  0.14795  0.51442  1.0000
  C   C398      1.0  0.39340  0.06711  0.59350  1.0000
  H   H311      1.0  0.20408  0.47628  0.50811  1.0000
  C   C399      1.0  0.43523  0.15620  0.58288  1.0000
  C   C400      1.0  0.45903  0.05724  0.54969  1.0000
  H   H312      1.0  0.43151  0.24347  0.63561  1.0000
  H   H313      1.0  0.46859  0.35039  0.69527  1.0000
  H   H314      1.0  0.45515  0.26982  0.67514  1.0000
  H   H315      1.0  0.08415  0.35623  0.59864  1.0000
  H   H316      1.0  0.03740  0.03478  0.73933  1.0000
  C   C401      1.0  0.37056  0.07962  0.60164  1.0000
  H   H317      1.0  0.37606  0.12083  0.55364  1.0000
  H   H318      1.0  0.46817  0.48610  0.69237  1.0000
  H   H319      1.0  0.34601  0.42590  0.72516  1.0000
  C   C402      1.0  0.39640  0.24700  0.58005  1.0000
  C   C403      1.0  0.48312  0.05794  0.59831  1.0000
  C   C404      1.0  0.02691  0.34355  0.62908  1.0000
  H   H320      1.0  0.38144  0.23659  0.56965  1.0000
  H   H321      1.0  0.47797  0.14991  0.54754  1.0000
  H   H322      1.0  0.45223  0.11874  0.58808  1.0000
  C   C405      1.0  0.46591  0.32387  0.66318  1.0000
  C   C406      1.0  0.39263  0.13040  0.56211  1.0000
  C   C407      1.0  0.01006  0.34594  0.60783  1.0000
  C   C408      1.0  0.02621  0.45919  0.65462  1.0000
  C   C409      1.0  0.45102  0.31513  0.64222  1.0000
  H   H323      1.0  0.35004  0.03610  0.64726  1.0000
  C   C410      1.0  0.04672  0.35697  0.58023  1.0000
  H   H324      1.0  0.42746  0.09726  0.51553  1.0000
  C   C411      1.0  0.41394  0.11592  0.57092  1.0000
  H   H325      1.0  0.49071  0.23103  0.55768  1.0000
  C   C412      1.0  0.22291  0.46538  0.54354  1.0000
  C   C413      1.0  0.23563  0.44572  0.55726  1.0000
  H   H326      1.0  0.45188  0.16640  0.59045  1.0000
  H   H327      1.0  0.05462  0.46433  0.59497  1.0000
  C   C414      1.0  0.22729  0.12194  0.52933  1.0000
  H   H328      1.0  0.41396  0.19128  0.57444  1.0000
  C   C415      1.0  0.41801  0.34705  0.65313  1.0000
  C   C416      1.0  0.26376  0.16185  0.52765  1.0000
  H   H329      1.0  0.30468  0.09204  0.51021  1.0000
  H   H330      1.0  0.28412  0.04842  0.51180  1.0000
  H   H331      1.0  0.22065  0.48446  0.55210  1.0000
  H   H332      1.0  0.00845  0.48709  0.71663  1.0000
  C   C417      1.0  0.01836  0.43331  0.65341  1.0000
  C   C418      1.0  0.38475  0.03227  0.62432  1.0000
  C   C419      1.0  0.40005  0.04305  0.60466  1.0000
  H   H333      1.0  0.39626  0.22093  0.61282  1.0000
  H   H334      1.0  0.09560  0.47201  0.62554  1.0000
  H   H335      1.0  0.44352  0.22186  0.55732  1.0000
  H   H336      1.0  0.41689  0.03240  0.59817  1.0000
  P   P13       1.0  0.46307  0.28918  0.62193  1.0000
  C   C420      1.0  0.43832  0.48417  0.72155  1.0000
  S   S60       1.0  0.27613  0.00088  0.63069  1.0000
  H   H337      1.0  0.23425  0.12124  0.57060  1.0000
  S   S61       1.0  0.40713  0.20735  0.51724  1.0000
  C   C421      1.0  0.48589  0.24272  0.68267  1.0000
  C   C422      1.0  0.48928  0.28910  0.57439  1.0000
  C   C423      1.0  0.42705  0.28243  0.58206  1.0000
  H   H338      1.0  0.14345  0.46993  0.55291  1.0000
  H   H339      1.0  0.39004  0.01382  0.63305  1.0000
  H   H340      1.0  0.11689  0.44395  0.50368  1.0000
  H   H341      1.0  0.01949  0.33905  0.64829  1.0000
  C   C424      1.0  0.47991  0.14227  0.52815  1.0000
  H   H342      1.0  0.37062  0.46397  0.71010  1.0000
  C   C425      1.0  0.23033  0.41678  0.52067  1.0000
  C   C426      1.0  0.11340  0.49209  0.53389  1.0000
  C   C427      1.0  0.35006  0.49129  0.73466  1.0000
  H   H343      1.0  0.23352  0.39784  0.51229  1.0000
  C   C428      1.0  0.41371  0.49268  0.72909  1.0000
  H   H344      1.0  0.34495  0.04881  0.50925  1.0000
  C   C429      1.0  0.49582  0.22525  0.51678  1.0000
  H   H345      1.0  0.19004  0.16055  0.50249  1.0000
  H   H346      1.0  0.08551  0.49248  0.72324  1.0000
  H   H347      1.0  0.44888  0.47054  0.73368  1.0000
  H   H348      1.0  0.47830  0.27193  0.56985  1.0000
  C   C430      1.0  0.21773  0.43654  0.50663  1.0000
  C   C431      1.0  0.36349  0.05849  0.51053  1.0000
  H   H349      1.0  0.04063  0.41846  0.59304  1.0000
  C   C432      1.0  0.49612  0.04756  0.57692  1.0000
  H   H350      1.0  0.34596  0.01484  0.58386  1.0000
  C   C433      1.0  0.45846  0.14370  0.51169  1.0000
  H   H351      1.0  0.45750  0.00090  0.60243  1.0000
  C   C434      1.0  0.09918  0.49134  0.61808  1.0000
  H   H352      1.0  0.24764  0.07757  0.50099  1.0000
  H   H353      1.0  0.13905  0.48281  0.60857  1.0000
  C   C435      1.0  0.35126  0.00058  0.56933  1.0000
  H   H354      1.0  0.99996  0.29441  0.63007  1.0000
  C   C436      1.0  0.12392  0.49743  0.60871  1.0000
  H   H355      1.0  0.49667  0.13774  0.62819  1.0000
  C   C437      1.0  0.22272  0.04442  0.49887  1.0000
  S   S62       1.0  0.31234  0.48767  0.82744  1.0000
  H   H356      1.0  0.43865  0.32171  0.83264  1.0000
  C   C438      1.0  0.41383  0.39267  0.82748  1.0000
  Fe  Fe33      1.0  0.00323  0.10495  0.80239  1.0000
  S   S63       1.0  0.06345  0.20344  0.97718  1.0000
  C   C439      1.0  0.36894  0.45318  0.98061  1.0000
  H   H357      1.0  0.47633  0.38257  0.87912  1.0000
  S   S64       1.0  0.02814  0.14106  0.79989  1.0000
  S   S65       1.0  0.06263  0.14597  0.86760  1.0000
  H   H358      1.0  0.41703  0.42934  0.99484  1.0000
  H   H359      1.0  0.46496  0.41792  0.84133  1.0000
  H   H360      1.0  0.38358  0.42630  0.76517  1.0000
  H   H361      1.0  0.48723  0.36144  0.95890  1.0000
  H   H362      1.0  0.44412  0.37990  0.96997  1.0000
  H   H363      1.0  0.03525  0.28968  0.84111  1.0000
  S   S66       1.0  0.28379  0.46684  0.89867  1.0000
  C   C440      1.0  0.26743  0.46474  0.98810  1.0000
  C   C441      1.0  0.26455  0.44263  0.97262  1.0000
  C   C442      1.0  0.26994  0.44359  0.94558  1.0000
  C   C443      1.0  0.27838  0.46663  0.93332  1.0000
  C   C444      1.0  0.43559  0.39162  0.93065  1.0000
  C   C445      1.0  0.44823  0.48040  0.87982  1.0000
  H   H364      1.0  0.25722  0.42499  0.98125  1.0000
  H   H365      1.0  0.26702  0.42640  0.93398  1.0000
  H   H366      1.0  0.14871  0.06647  0.82565  1.0000
  C   C446      1.0  0.30501  0.36901  0.98655  1.0000
  H   H367      1.0  0.05064  0.23935  0.93435  1.0000
  C   C447      1.0  0.02162  0.03512  0.77814  1.0000
  C   C448      1.0  0.46026  0.43520  0.85234  1.0000
  H   H368      1.0  0.40481  0.38336  0.78776  1.0000
  C   C449      1.0  0.07747  0.26851  0.94627  1.0000
  H   H369      1.0  0.16323  0.06270  0.92082  1.0000
  H   H370      1.0  0.10639  0.10528  0.84410  1.0000
  C   C450      1.0  0.06376  0.18664  0.94714  1.0000
  C   C451      1.0  0.04037  0.18373  0.93355  1.0000
  C   C452      1.0  0.03972  0.17118  0.90930  1.0000
  C   C453      1.0  0.06253  0.16143  0.89833  1.0000
  C   C454      1.0  0.08593  0.16423  0.91193  1.0000
  C   C455      1.0  0.08658  0.17677  0.93623  1.0000
  H   H371      1.0  0.02267  0.19130  0.94185  1.0000
  H   H372      1.0  0.02161  0.16909  0.89906  1.0000
  H   H373      1.0  0.10369  0.15679  0.90358  1.0000
  H   H374      1.0  0.10473  0.17897  0.94642  1.0000
  C   C456      1.0  0.42348  0.43559  0.77291  1.0000
  C   C457      1.0  0.03948  0.05795  0.91494  1.0000
  C   C458      1.0  0.38640  0.45690  0.79361  1.0000
  C   C459      1.0  0.40321  0.47270  0.80771  1.0000
  C   C460      1.0  0.42995  0.47048  0.80363  1.0000
  C   C461      1.0  0.44012  0.45166  0.78678  1.0000
  H   H375      1.0  0.38641  0.44415  0.86225  1.0000
  H   H376      1.0  0.36569  0.45865  0.79637  1.0000
  C   C462      1.0  0.04324  0.07799  0.89700  1.0000
  H   H377      1.0  0.46083  0.44999  0.78409  1.0000
  S   S67       1.0  0.01355  0.06927  0.77657  1.0000
  P   P14       1.0  0.10033  0.04897  0.84960  1.0000
  H   H378      1.0  0.09137  0.19821  0.85771  1.0000
  S   S68       1.0  0.00285  0.10477  0.84606  1.0000
  H   H379      1.0  0.38687  0.37503  0.90998  1.0000
  C   C463      1.0  0.17363  0.04867  0.97969  1.0000
  H   H380      1.0  0.10292  0.30063  0.95361  1.0000
  H   H381      1.0  0.42100  0.33827  0.79091  1.0000
  C   C464      1.0  0.46902  0.38218  0.89890  1.0000
  H   H382      1.0  0.02553  0.06033  0.93051  1.0000
  H   H383      1.0  0.14996  0.02461  0.95575  1.0000
  C   C465      1.0  0.47545  0.37042  0.94397  1.0000
  C   C466      1.0  0.01627  0.01946  0.79985  1.0000
  C   C467      1.0  0.43132  0.34139  0.83130  1.0000
  H   H384      1.0  0.41712  0.40003  0.93592  1.0000
  H   H385      1.0  0.34038  0.38178  0.91962  1.0000
  H   H386      1.0  0.31691  0.41930  0.90050  1.0000
  C   C468      1.0  0.43213  0.35756  0.85301  1.0000
  H   H387      1.0  0.08310  0.01441  0.89160  1.0000
  H   H388      1.0  0.00359  0.26492  0.94144  1.0000
  H   H389      1.0  0.40704  0.41250  0.82567  1.0000
  C   C469      1.0  0.28166  0.48866  0.94882  1.0000
  C   C470      1.0  0.39656  0.43857  0.77600  1.0000
  C   C471      1.0  0.07843  0.30778  0.92036  1.0000
  C   C472      1.0  0.31571  0.47237  0.76083  1.0000
  H   H390      1.0  0.05087  0.01942  0.92670  1.0000
  H   H391      1.0  0.33991  0.44991  0.87145  1.0000
  H   H392      1.0  0.08473  0.25695  0.96238  1.0000
  C   C473      1.0  0.08769  0.29310  0.94130  1.0000
  C   C474      1.0  0.42148  0.35071  0.80780  1.0000
  H   H393      1.0  0.03240  0.09600  0.89868  1.0000
  Fe  Fe34      1.0  0.02590  0.14165  0.84361  1.0000
  H   H394      1.0  0.49026  0.28370  0.81133  1.0000
  C   C475      1.0  0.07575  0.05218  0.87455  1.0000
  S   S69       1.0  0.14037  0.20962  0.99493  1.0000
  C   C476      1.0  0.01685  0.29623  0.84888  1.0000
  H   H395      1.0  0.19125  0.07822  0.84371  1.0000
  C   C477      1.0  0.17584  0.07195  0.85662  1.0000
  C   C478      1.0  0.37721  0.48682  0.93826  1.0000
  C   C479      1.0  0.06110  0.07506  0.87678  1.0000
  C   C480      1.0  0.35244  0.45259  0.95893  1.0000
  C   C481      1.0  0.45109  0.38068  0.95013  1.0000
  C   C482      1.0  0.15168  0.06533  0.84646  1.0000
  H   H396      1.0  0.40080  0.47356  0.99847  1.0000
  S   S70       1.0  0.47780  0.35242  0.76769  1.0000
  C   C483      1.0  0.09897  0.09776  0.82596  1.0000
  C   C484      1.0  0.05804  0.25858  0.93035  1.0000
  H   H397      1.0  0.14206  0.01674  0.82713  1.0000
  C   C485      1.0  0.13588  0.05637  0.88995  1.0000
  H   H398      1.0  0.08650  0.32679  0.91645  1.0000
  H   H399      1.0  0.41940  0.45758  0.89939  1.0000
  H   H400      1.0  0.43942  0.34964  0.87104  1.0000
  H   H401      1.0  0.06337  0.09084  0.86312  1.0000
  C   C486      1.0  0.18003  0.07089  0.88340  1.0000
  C   C487      1.0  0.03906  0.21750  0.82260  1.0000
  C   C488      1.0  0.06213  0.20469  0.82867  1.0000
  C   C489      1.0  0.07394  0.20884  0.85266  1.0000
  C   C490      1.0  0.06261  0.22560  0.87072  1.0000
  C   C491      1.0  0.03958  0.23883  0.86466  1.0000
  C   C492      1.0  0.02773  0.23437  0.84056  1.0000
  P   P15       1.0  0.02405  0.25953  0.88837  1.0000
  C   C493      1.0  0.07861  0.00117  0.83680  1.0000
  C   C494      1.0  0.04857  0.27314  0.90928  1.0000
  C   C495      1.0  0.05897  0.29786  0.90435  1.0000
  C   C496      1.0  0.07860  0.07955  0.77928  1.0000
  H   H402      1.0  0.12067  0.05070  0.90327  1.0000
  H   H403      1.0  0.07839  0.04196  0.79708  1.0000
  C   C497      1.0  0.41251  0.37623  0.80599  1.0000
  H   H404      1.0  0.00956  0.24362  0.83571  1.0000
  H   H405      1.0  0.19866  0.07643  0.89128  1.0000
  C   C498      1.0  0.44406  0.39153  0.90470  1.0000
  P   P16       1.0  0.42434  0.40477  0.87886  1.0000
  C   C499      1.0  0.39071  0.41024  0.88716  1.0000
  C   C500      1.0  0.09364  0.07117  0.82318  1.0000
  H   H406      1.0  0.09721  0.13565  0.80827  1.0000
  C   C501      1.0  0.37693  0.43080  0.87552  1.0000
  C   C502      1.0  0.08329  0.06220  0.79970  1.0000
  H   H407      1.0  0.33571  0.43995  0.95844  1.0000
  C   C503      1.0  0.16473  0.02473  0.97056  1.0000
  H   H408      1.0  0.02969  0.21400  0.80413  1.0000
  H   H409      1.0  0.07053  0.19103  0.81508  1.0000
  H   H410      1.0  0.16617  0.06667  0.97163  1.0000
  H   H411      1.0  0.07169  0.22763  0.88950  1.0000
  H   H412      1.0  0.29979  0.47477  0.77435  1.0000
  H   H413      1.0  0.05229  0.30944  0.88813  1.0000
  H   H414      1.0  0.44287  0.48346  0.81359  1.0000
  C   C504      1.0  0.13144  0.05760  0.86305  1.0000
  H   H415      1.0  0.01043  0.32319  0.81731  1.0000
  H   H416      1.0  0.31047  0.43111  0.75733  1.0000
  C   C505      1.0  0.48458  0.37159  0.91843  1.0000
  C   C506      1.0  0.43457  0.45751  0.88483  1.0000
  C   C507      1.0  0.16007  0.06308  0.90004  1.0000
  C   C508      1.0  0.10132  0.01608  0.83750  1.0000
  C   C509      1.0  0.44031  0.43483  0.87088  1.0000
  C   C510      1.0  0.42385  0.38352  0.85111  1.0000
  C   C511      1.0  0.35046  0.43400  0.88042  1.0000
  C   C512      1.0  0.33744  0.41663  0.89671  1.0000
  C   C513      1.0  0.35075  0.39561  0.90761  1.0000
  C   C514      1.0  0.37716  0.39210  0.90243  1.0000
  C   C515      1.0  0.47435  0.45794  0.84787  1.0000
  H   H417      1.0  0.06023  0.00927  0.84305  1.0000
  C   C516      1.0  0.46825  0.48057  0.86149  1.0000
  C   C517      1.0  0.12446  0.00547  0.82769  1.0000
  H   H418      1.0  0.44301  0.49810  0.88985  1.0000
  C   C518      1.0  0.07191  0.03213  0.89274  1.0000
  Fe  Fe35      1.0  0.47563  0.39522  0.75934  1.0000
  C   C519      1.0  0.00675  0.28531  0.87182  1.0000
  C   C520      1.0  0.03316  0.02314  0.75634  1.0000
  C   C521      1.0  0.32154  0.44782  0.75100  1.0000
  S   S71       1.0  0.39223  0.49481  0.83142  1.0000
  C   C522      1.0  0.00159  0.24040  0.90742  1.0000
  C   C523      1.0  0.27592  0.48780  0.97581  1.0000
  S   S72       1.0  0.43589  0.41233  0.75102  1.0000
  C   C524      1.0  0.08380  0.10595  0.78224  1.0000
  H   H419      1.0  0.16934  0.99865  0.92064  1.0000
  H   H420      1.0  0.48946  0.45819  0.83320  1.0000
  C   C525      1.0  0.09390  0.11507  0.80562  1.0000
  H   H421      1.0  0.33797  0.35152  0.96783  1.0000
  H   H422      1.0  0.34315  0.46938  0.92176  1.0000
  H   H423      1.0  0.29185  0.35350  0.98146  1.0000
  C   C526      1.0  0.38899  0.47153  0.98124  1.0000
  H   H424      1.0  0.47862  0.49837  0.85735  1.0000
  C   C527      1.0  0.33003  0.49401  0.75290  1.0000
  C   C528      1.0  0.34787  0.38794  0.98573  1.0000
  C   C529      1.0  0.33096  0.36795  0.97889  1.0000
  C   C530      1.0  0.35655  0.46940  0.93795  1.0000
  C   C531      1.0  0.17457  0.00144  0.98100  1.0000
  H   H425      1.0  0.36796  0.38681  0.97976  1.0000
  H   H426      1.0  0.00756  0.02807  0.81689  1.0000
  C   C532      1.0  0.00300  0.31539  0.83546  1.0000
  H   H427      1.0  0.07934  0.11941  0.76664  1.0000
  H   H428      1.0  0.07003  0.07262  0.76141  1.0000
  C   C533      1.0  0.39341  0.48794  0.95993  1.0000
  C   C534      1.0  0.05377  0.03497  0.91277  1.0000
  Fe  Fe36      1.0  0.30007  0.49687  0.86916  1.0000
  H   H429      1.0  0.27428  0.96030  0.04153  1.0000
  C   C535      1.0  0.00242  0.78285  0.01381  1.0000
  H   H430      1.0  0.47248  0.66362  0.10055  1.0000
  C   C536      1.0  0.02273  0.75952  0.16008  1.0000
  C   C537      1.0  0.03825  0.77565  0.20129  1.0000
  C   C538      1.0  0.00692  0.80864  0.10454  1.0000
  S   S73       1.0  0.17335  0.86684  0.05011  1.0000
  C   C539      1.0  0.11458  0.93747  0.03730  1.0000
  C   C540      1.0  0.47769  0.65348  0.04308  1.0000
  C   C541      1.0  0.04406  0.76156  0.02205  1.0000
  H   H431      1.0  0.00656  0.74626  0.03356  1.0000
  H   H432      1.0  0.01647  0.74034  0.19686  1.0000
  H   H433      1.0  0.11461  0.99733  0.11754  1.0000
  C   C542      1.0  0.48843  0.65213  0.10802  1.0000
  H   H434      1.0  0.44436  0.92755  0.24626  1.0000
  C   C543      1.0  0.27226  0.91931  0.04931  1.0000
  C   C544      1.0  0.27051  0.83545  0.02023  1.0000
  C   C545      1.0  0.01669  0.76217  0.02432  1.0000
  C   C546      1.0  0.28545  0.93770  0.00808  1.0000
  H   H435      1.0  0.40924  0.65362  0.01160  1.0000
  H   H436      1.0  0.01238  0.74462  0.14966  1.0000
  C   C547      1.0  0.20934  0.94795  0.05882  1.0000
  C   C548      1.0  0.19655  0.93596  0.07957  1.0000
  C   C549      1.0  0.18573  0.91113  0.07652  1.0000
  C   C550      1.0  0.18741  0.89806  0.05269  1.0000
  C   C551      1.0  0.20023  0.91000  0.03186  1.0000
  C   C552      1.0  0.21105  0.93489  0.03492  1.0000
  H   H437      1.0  0.19508  0.94573  0.09806  1.0000
  H   H438      1.0  0.17596  0.90200  0.09277  1.0000
  H   H439      1.0  0.05995  0.81125  0.19966  1.0000
  H   H440      1.0  0.22121  0.94381  0.01885  1.0000
  H   H441      1.0  0.12492  0.99324  0.00353  1.0000
  S   S74       1.0  0.09251  0.77920  0.00666  1.0000
  H   H442      1.0  0.02423  0.96469  0.15474  1.0000
  H   H443      1.0  0.05627  0.81595  0.15204  1.0000
  S   S75       1.0  0.28750  0.99739  0.17407  1.0000
  H   H444      1.0  0.14510  0.56380  0.22889  1.0000
  H   H445      1.0  0.08543  0.77683  0.12813  1.0000
  H   H446      1.0  0.16848  0.99212  0.05442  1.0000
  C   C553      1.0  0.48816  0.64450  0.13413  1.0000
  C   C554      1.0  0.12812  0.59741  0.24708  1.0000
  H   H447      1.0  0.01045  0.83004  0.14055  1.0000
  H   H448      1.0  0.19834  0.98503  0.01150  1.0000
  C   C555      1.0  0.03487  0.97983  0.14471  1.0000
  C   C556      1.0  0.00771  0.70573  0.07698  1.0000
  H   H449      1.0  0.12739  0.81519  0.06701  1.0000
  S   S76       1.0  0.15134  0.99497  0.16527  1.0000
  H   H450      1.0  0.00205  0.68727  0.06878  1.0000
  C   C557      1.0  0.32268  0.85032  0.00240  1.0000
  S   S77       1.0  0.22347  0.97911  0.06216  1.0000
  C   C558      1.0  0.03389  0.78083  0.14710  1.0000
  H   H451      1.0  0.48830  0.67849  0.01090  1.0000
  C   C559      1.0  0.06225  0.80824  0.07454  1.0000
  C   C560      1.0  0.08586  0.81570  0.06347  1.0000
  H   H452      1.0  0.34004  0.99692  0.19256  1.0000
  H   H453      1.0  0.13341  0.90094  0.02990  1.0000
  H   H454      1.0  0.20994  0.82618  0.04519  1.0000
  C   C561      1.0  0.47132  0.58022  0.00409  1.0000
  C   C562      1.0  0.42840  0.65321  0.02012  1.0000
  C   C563      1.0  0.05893  0.99488  0.10709  1.0000
  C   C564      1.0  0.11217  0.96342  0.02973  1.0000
  H   H455      1.0  0.46120  0.62612  0.07061  1.0000
  H   H456      1.0  0.04000  0.77347  0.22217  1.0000
  H   H457      1.0  0.04179  0.95691  0.11049  1.0000
  C   C565      1.0  0.47303  0.66739  0.02003  1.0000
  C   C566      1.0  0.04362  0.80274  0.99972  1.0000
  C   C567      1.0  0.27562  0.89433  0.03934  1.0000
  H   H458      1.0  0.20195  0.90004  0.01350  1.0000
  P   P17       1.0  0.28867  0.85845  0.00076  1.0000
  H   H459      1.0  0.12692  0.79056  0.10853  1.0000
  C   C568      1.0  0.24419  0.83999  0.02561  1.0000
  C   C569      1.0  0.28353  0.89079  0.01343  1.0000
  C   C570      1.0  0.04736  0.79945  0.16161  1.0000
  H   H460      1.0  0.26549  0.92197  0.06910  1.0000
  H   H461      1.0  0.33183  0.87826  0.03235  1.0000
  C   C571      1.0  0.14436  0.57568  0.24620  1.0000
  C   C572      1.0  0.27717  0.94098  0.03371  1.0000
  C   C573      1.0  0.24229  0.80056  0.05133  1.0000
  C   C574      1.0  0.03342  0.71399  0.07531  1.0000
  C   C575      1.0  0.04065  0.73790  0.08581  1.0000
  H   H462      1.0  0.37810  0.86635  0.03440  1.0000
  H   H463      1.0  0.06063  0.74398  0.08411  1.0000
  C   C576      1.0  0.28263  0.81344  0.03098  1.0000
  H   H464      1.0  0.04460  0.81251  0.06407  1.0000
  C   C577      1.0  0.04946  0.79688  0.18859  1.0000
  C   C578      1.0  0.33917  0.86316  0.01973  1.0000
  S   S78       1.0  0.22128  0.97860  0.13971  1.0000
  C   C579      1.0  0.26852  0.79604  0.04637  1.0000
  H   H465      1.0  0.27202  0.87792  0.05203  1.0000
  C   C580      1.0  0.10912  0.80958  0.07585  1.0000
  C   C581      1.0  0.02494  0.75699  0.18703  1.0000
  C   C582      1.0  0.13148  0.92106  0.02393  1.0000
  C   C583      1.0  0.44843  0.66751  0.00877  1.0000
  H   H466      1.0  0.10358  0.93005  0.05366  1.0000
  S   S79       1.0  0.16569  0.80201  0.01177  1.0000
  C   C584      1.0  0.10881  0.79572  0.09925  1.0000
  H   H467      1.0  0.47127  0.58556  0.02442  1.0000
  H   H468      1.0  0.15086  0.97509  0.09582  1.0000
  C   C585      1.0  0.14643  0.93062  0.00334  1.0000
  Fe  Fe37      1.0  0.16511  0.84584  0.01238  1.0000
  H   H469      1.0  0.08618  0.82557  0.04483  1.0000
  C   C586      1.0  0.43320  0.63818  0.04230  1.0000
  C   C587      1.0  0.45783  0.63808  0.05362  1.0000
  H   H470      1.0  0.30289  0.80940  0.02744  1.0000
  P   P18       1.0  0.03120  0.78438  0.11218  1.0000
  H   H471      1.0  0.27791  0.77893  0.05428  1.0000
  C   C588      1.0  0.02212  0.75371  0.09805  1.0000
  C   C589      1.0  0.23020  0.82257  0.04105  1.0000
  H   H472      1.0  0.23445  0.85709  0.01805  1.0000
  C   C590      1.0  0.06170  0.79491  0.09840  1.0000
  H   H473      1.0  0.23130  0.78705  0.06317  1.0000
  C   C591      1.0  0.04475  0.97548  0.11979  1.0000
  H   H474      1.0  0.47202  0.64973  0.14658  1.0000
  C   C592      1.0  0.01621  0.80309  0.00153  1.0000
  H   H475      1.0  0.11607  0.60226  0.23052  1.0000
  H   H476      1.0  0.04774  0.70198  0.06568  1.0000
  H   H477      1.0  0.09926  0.97624  0.04026  1.0000
  H   H478      1.0  0.41774  0.62677  0.05084  1.0000
  H   H479      1.0  0.48963  0.68598  0.22112  1.0000
  C   C593      1.0  0.36541  0.85640  0.02102  1.0000
  H   H480      1.0  0.44221  0.97581  0.24560  1.0000
  C   C594      1.0  0.08522  0.78816  0.11038  1.0000
  C   C595      1.0  0.37529  0.83672  0.00517  1.0000
  H   H481      1.0  0.31521  0.50677  0.07904  1.0000
  C   C596      1.0  0.00100  0.82876  0.12194  1.0000
  H   H482      1.0  0.39558  0.83139  0.00621  1.0000
  H   H483      1.0  0.99828  0.79259  0.06679  1.0000
  C   C597      1.0  0.12693  0.97303  0.00901  1.0000
  H   H484      1.0  0.30159  0.50528  0.03296  1.0000
  C   C598      1.0  0.05784  0.78176  0.00971  1.0000
  H   H485      1.0  0.48382  0.70602  0.05764  1.0000
  H   H486      1.0  0.05467  0.74512  0.02970  1.0000
  H   H487      1.0  0.06679  0.99111  0.08794  1.0000
  H   H488      1.0  0.48685  0.73086  0.23751  1.0000
  C   C599      1.0  0.14199  0.99194  0.08671  1.0000
  C   C600      1.0  0.07044  0.63321  0.43208  1.0000
  S   S80       1.0  0.41773  0.77193  0.43527  1.0000
  S   S81       1.0  0.35766  0.78816  0.47549  1.0000
  H   H489      1.0  0.44741  0.90208  0.32368  1.0000
  H   H490      1.0  0.16951  0.57835  0.30694  1.0000
  C   C601      1.0  0.43307  0.93894  0.33739  1.0000
  C   C602      1.0  0.11369  0.53647  0.45761  1.0000
  P   P19       1.0  0.41340  0.98537  0.35721  1.0000
  H   H491      1.0  0.16539  0.65058  0.27583  1.0000
  H   H492      1.0  0.41364  0.66501  0.43479  1.0000
  C   C603      1.0  0.12670  0.61242  0.26960  1.0000
  H   H493      1.0  0.46929  0.80546  0.36261  1.0000
  C   C604      1.0  0.37548  0.99312  0.39552  1.0000
  H   H494      1.0  0.49614  0.91479  0.45766  1.0000
  S   S82       1.0  0.21805  0.53372  0.39912  1.0000
  H   H495      1.0  0.10924  0.58897  0.35211  1.0000
  H   H496      1.0  0.18434  0.50959  0.43910  1.0000
  S   S83       1.0  0.18144  0.52524  0.32904  1.0000
  C   C605      1.0  0.21753  0.53764  0.48965  1.0000
  C   C606      1.0  0.42810  0.78481  0.31585  1.0000
  C   C607      1.0  0.17187  0.65990  0.29344  1.0000
  C   C608      1.0  0.21664  0.53536  0.43400  1.0000
  C   C609      1.0  0.23472  0.55088  0.44727  1.0000
  C   C610      1.0  0.23517  0.55206  0.47477  1.0000
  C   C611      1.0  0.10776  0.63842  0.32501  1.0000
  H   H497      1.0  0.21087  0.62209  0.48882  1.0000
  H   H498      1.0  0.24888  0.56174  0.43620  1.0000
  H   H499      1.0  0.24966  0.56361  0.48447  1.0000
  C   C612      1.0  0.08180  0.54360  0.42388  1.0000
  H   H500      1.0  0.19962  0.58472  0.38419  1.0000
  H   H501      1.0  0.19649  0.68653  0.27258  1.0000
  C   C613      1.0  0.47555  0.92527  0.27393  1.0000
  H   H502      1.0  0.43520  0.63965  0.39994  1.0000
  C   C614      1.0  0.43527  0.74295  0.33665  1.0000
  H   H503      1.0  0.11199  0.51480  0.42186  1.0000
  C   C615      1.0  0.19825  0.69280  0.31388  1.0000
  C   C616      1.0  0.39165  0.76040  0.33248  1.0000
  C   C617      1.0  0.05849  0.56918  0.27583  1.0000
  C   C618      1.0  0.04890  0.56835  0.30126  1.0000
  C   C619      1.0  0.06298  0.55550  0.32091  1.0000
  C   C620      1.0  0.08671  0.54323  0.31538  1.0000
  C   C621      1.0  0.09614  0.54372  0.28990  1.0000
  C   C622      1.0  0.18386  0.59554  0.47146  1.0000
  H   H504      1.0  0.03062  0.57758  0.30579  1.0000
  H   H505      1.0  0.05539  0.55504  0.34051  1.0000
  H   H506      1.0  0.11427  0.53420  0.28534  1.0000
  H   H507      1.0  0.38404  0.92474  0.42623  1.0000
  C   C623      1.0  0.44402  0.78952  0.42201  1.0000
  C   C624      1.0  0.44659  0.79116  0.39488  1.0000
  C   C625      1.0  0.46758  0.80434  0.38350  1.0000
  C   C626      1.0  0.48642  0.81573  0.39916  1.0000
  C   C627      1.0  0.48408  0.81379  0.42631  1.0000
  C   C628      1.0  0.46289  0.80084  0.43772  1.0000
  H   H508      1.0  0.43229  0.78224  0.38254  1.0000
  C   C629      1.0  0.36846  0.78481  0.39270  1.0000
  C   C630      1.0  0.36554  0.99793  0.28228  1.0000
  H   H509      1.0  0.46118  0.79946  0.45861  1.0000
  C   C631      1.0  0.02420  0.64244  0.43353  1.0000
  C   C632      1.0  0.36752  0.99488  0.32922  1.0000
  H   H510      1.0  0.11387  0.62909  0.26991  1.0000
  C   C633      1.0  0.19846  0.52155  0.44882  1.0000
  C   C634      1.0  0.00062  0.65002  0.48585  1.0000
  H   H511      1.0  0.31639  0.83822  0.40253  1.0000
  H   H512      1.0  0.37099  0.75852  0.33566  1.0000
  H   H513      1.0  0.08905  0.63208  0.44169  1.0000
  H   H514      1.0  0.12060  0.55960  0.38792  1.0000
  C   C635      1.0  0.30175  0.90595  0.41374  1.0000
  P   P20       1.0  0.45700  0.71738  0.34708  1.0000
  C   C636      1.0  0.05755  0.65870  0.33114  1.0000
  H   H515      1.0  0.40136  0.99110  0.26203  1.0000
  C   C637      1.0  0.40149  0.78254  0.32022  1.0000
  C   C638      1.0  0.33116  0.82363  0.39950  1.0000
  C   C639      1.0  0.02258  0.63627  0.40703  1.0000
  C   C640      1.0  0.32413  0.79746  0.40117  1.0000
  H   H516      1.0  0.33751  0.75781  0.39991  1.0000
  C   C641      1.0  0.17156  0.66442  0.34028  1.0000
  C   C642      1.0  0.48037  0.94294  0.36328  1.0000
  C   C643      1.0  0.44495  0.76507  0.32393  1.0000
  H   H517      1.0  0.42772  0.70604  0.29932  1.0000
  H   H518      1.0  0.13053  0.52590  0.46457  1.0000
  H   H519      1.0  0.07395  0.53870  0.40497  1.0000
  C   C644      1.0  0.43095  0.71462  0.39459  1.0000
  S   S84       1.0  0.48989  0.82397  0.31112  1.0000
  C   C645      1.0  0.46207  0.96295  0.36524  1.0000
  C   C646      1.0  0.36823  0.91143  0.32980  1.0000
  C   C647      1.0  0.37689  0.89469  0.31032  1.0000
  C   C648      1.0  0.38200  0.86867  0.31617  1.0000
  C   C649      1.0  0.37816  0.85925  0.34142  1.0000
  C   C650      1.0  0.36917  0.87585  0.36108  1.0000
  C   C651      1.0  0.36491  0.90221  0.35519  1.0000
  P   P21       1.0  0.36680  0.86430  0.39426  1.0000
  C   C652      1.0  0.35705  0.83059  0.39470  1.0000
  C   C653      1.0  0.39845  0.86631  0.40905  1.0000
  C   C654      1.0  0.40352  0.85287  0.43230  1.0000
  C   C655      1.0  0.42822  0.85342  0.44323  1.0000
  C   C656      1.0  0.44826  0.86670  0.43072  1.0000
  C   C657      1.0  0.44353  0.87985  0.40745  1.0000
  C   C658      1.0  0.41871  0.87979  0.39666  1.0000
  C   C659      1.0  0.45127  0.91888  0.33569  1.0000
  C   C660      1.0  0.08124  0.57020  0.46263  1.0000
  H   H520      1.0  0.28964  0.91955  0.45145  1.0000
  H   H521      1.0  0.04290  0.62336  0.37294  1.0000
  C   C661      1.0  0.37562  0.81092  0.39120  1.0000
  C   C662      1.0  0.34288  0.88274  0.41231  1.0000
  C   C663      1.0  0.32068  0.89240  0.39975  1.0000
  H   H522      1.0  0.46548  0.76712  0.32005  1.0000
  H   H523      1.0  0.40381  0.88616  0.48393  1.0000
  Fe  Fe38      1.0  0.19434  0.51077  0.36879  1.0000
  C   C664      1.0  0.34531  0.88617  0.43925  1.0000
  H   H524      1.0  0.36452  0.93168  0.32525  1.0000
  H   H525      1.0  0.37994  0.90195  0.29073  1.0000
  H   H526      1.0  0.38919  0.85586  0.30111  1.0000
  H   H527      1.0  0.38265  0.83915  0.34559  1.0000
  H   H528      1.0  0.35914  0.91574  0.37015  1.0000
  H   H529      1.0  0.38857  0.84141  0.44172  1.0000
  H   H530      1.0  0.43205  0.84263  0.46093  1.0000
  H   H531      1.0  0.46765  0.86602  0.43865  1.0000
  H   H532      1.0  0.45932  0.88938  0.39733  1.0000
  H   H533      1.0  0.41575  0.88962  0.37831  1.0000
  C   C665      1.0  0.39361  0.97578  0.38478  1.0000
  C   C666      1.0  0.10397  0.66314  0.33588  1.0000
  C   C667      1.0  0.47243  0.98074  0.27376  1.0000
  H   H534      1.0  0.00518  0.68599  0.40601  1.0000
  H   H535      1.0  0.39579  0.81567  0.38796  1.0000
  H   H536      1.0  0.16469  0.65855  0.35931  1.0000
  C   C668      1.0  0.07078  0.56362  0.43847  1.0000
  C   C669      1.0  0.07895  0.67319  0.33891  1.0000
  C   C670      1.0  0.08196  0.55646  0.27020  1.0000
  H   H537      1.0  0.36151  0.87819  0.44986  1.0000
  H   H538      1.0  0.12016  0.67486  0.34186  1.0000
  S   S85       1.0  0.01453  0.65314  0.27297  1.0000
  H   H539      1.0  0.05022  0.64555  0.46635  1.0000
  C   C671      1.0  0.45727  0.93857  0.25847  1.0000
  H   H540      1.0  0.25642  0.82141  0.49865  1.0000
  C   C672      1.0  0.42035  0.70186  0.41612  1.0000
  H   H541      1.0  0.19531  0.59297  0.45397  1.0000
  H   H542      1.0  0.32801  0.90146  0.47407  1.0000
  C   C673      1.0  0.08608  0.62386  0.31766  1.0000
  H   H543      1.0  0.16561  0.55766  0.40459  1.0000
  C   C674      1.0  0.17355  0.60297  0.35696  1.0000
  H   H544      1.0  0.35755  0.99653  0.34754  1.0000
  H   H545      1.0  0.21199  0.70860  0.31232  1.0000
  C   C675      1.0  0.38148  0.94375  0.41752  1.0000
  H   H546      1.0  0.05419  0.57414  0.43093  1.0000
  H   H547      1.0  0.08847  0.60472  0.30938  1.0000
  H   H548      1.0  0.38305  0.76977  0.39079  1.0000
  C   C676      1.0  0.34280  0.77807  0.39789  1.0000
  C   C677      1.0  0.18925  0.68485  0.33826  1.0000
  H   H549      1.0  0.07607  0.69233  0.34707  1.0000
  S   S86       1.0  0.04199  0.58620  0.25075  1.0000
  H   H550      1.0  0.46648  0.97979  0.37690  1.0000
  C   C678      1.0  0.06112  0.63401  0.32064  1.0000
  H   H551      1.0  0.41504  0.93715  0.32700  1.0000
  H   H552      1.0  0.04446  0.62280  0.31462  1.0000
  C   C679      1.0  0.47490  0.92086  0.34863  1.0000
  H   H553      1.0  0.41047  0.93731  0.38854  1.0000
  H   H554      1.0  0.03815  0.66656  0.33321  1.0000
  C   C680      1.0  0.10325  0.53006  0.43344  1.0000
  C   C681      1.0  0.04458  0.62834  0.39331  1.0000
  C   C682      1.0  0.06854  0.62688  0.40576  1.0000
  H   H555      1.0  0.42956  0.73555  0.39349  1.0000
  C   C683      1.0  0.32623  0.89950  0.45320  1.0000
  C   C684      1.0  0.10280  0.55666  0.47240  1.0000
  H   H556      1.0  0.40041  0.72342  0.34967  1.0000
  H   H557      1.0  0.01890  0.68778  0.48762  1.0000
  C   C685      1.0  0.15787  0.58394  0.29040  1.0000
  C   C686      1.0  0.43404  0.66061  0.39843  1.0000
  H   H558      1.0  0.31770  0.88906  0.37922  1.0000
  Fe  Fe39      1.0  0.00740  0.61229  0.25953  1.0000
  H   H559      1.0  0.15491  0.56867  0.45951  1.0000
  C   C687      1.0  0.19265  0.61192  0.49109  1.0000
  P   P22       1.0  0.13999  0.62524  0.32055  1.0000
  C   C688      1.0  0.16082  0.58169  0.47475  1.0000
  S   S87       1.0  0.47655  0.89045  0.27327  1.0000
  H   H560      1.0  0.42649  0.98302  0.30185  1.0000
  H   H561      1.0  0.30430  0.79219  0.40556  1.0000
  H   H562      1.0  0.44787  0.90228  0.47284  1.0000
  H   H563      1.0  0.45405  0.66190  0.36197  1.0000
  H   H564      1.0  0.00423  0.63744  0.39691  1.0000
  C   C689      1.0  0.42187  0.67486  0.41805  1.0000
  H   H565      1.0  0.08557  0.62082  0.39497  1.0000
  H   H566      1.0  0.38848  0.79779  0.31381  1.0000
  H   H567      1.0  0.19602  0.69448  0.35563  1.0000
  C   C690      1.0  0.14145  0.60568  0.29152  1.0000
  C   C691      1.0  0.16282  0.65169  0.31788  1.0000
  H   H568      1.0  0.18899  0.61363  0.34753  1.0000
  C   C692      1.0  0.30453  0.90951  0.44047  1.0000
  S   S88       1.0  0.10369  0.52773  0.34105  1.0000
  H   H569      1.0  0.48917  0.90549  0.34673  1.0000
  H   H570      1.0  0.28467  0.91329  0.40394  1.0000
  C   C693      1.0  0.40843  0.74060  0.34053  1.0000
  H   H571      1.0  0.07237  0.58578  0.47350  1.0000
  C   C694      1.0  0.49045  0.96738  0.28943  1.0000
  C   C695      1.0  0.17974  0.58643  0.37764  1.0000
  C   C696      1.0  0.16056  0.57117  0.38919  1.0000
  C   C697      1.0  0.13517  0.57245  0.38002  1.0000
  C   C698      1.0  0.12882  0.58921  0.35957  1.0000
  C   C699      1.0  0.14787  0.60499  0.34818  1.0000
  C   C700      1.0  0.04835  0.64088  0.44598  1.0000
  C   C701      1.0  0.39412  0.98901  0.32797  1.0000
  C   C702      1.0  0.48735  0.73237  0.35582  1.0000
  C   C703      1.0  0.43831  0.96115  0.35216  1.0000
  C   C704      1.0  0.39653  0.95104  0.39607  1.0000
  Fe  Fe40      1.0  0.40001  0.77793  0.47532  1.0000
  C   C705      1.0  0.18953  0.68036  0.29150  1.0000
  H   H572      1.0  0.43574  0.80178  0.30598  1.0000
  C   C706      1.0  0.19895  0.52267  0.47633  1.0000
  H   H573      1.0  0.41105  0.71302  0.43139  1.0000
  C   C707      1.0  0.49217  0.93997  0.28942  1.0000
  C   C708      1.0  0.45585  0.96604  0.25819  1.0000
  C   C709      1.0  0.44475  0.67336  0.37687  1.0000
  C   C710      1.0  0.44330  0.70053  0.37480  1.0000
  C   C711      1.0  0.44472  0.69374  0.29983  1.0000
  C   C712      1.0  0.43843  0.90864  0.49049  1.0000
  C   C713      1.0  0.39183  0.99174  0.28079  1.0000
  Fe  Fe41      1.0  0.14284  0.50712  0.33904  1.0000
  H   H574      1.0  0.26653  0.50108  0.44493  1.0000
  H   H575      1.0  0.17166  0.55196  0.26727  1.0000
  C   C714      1.0  0.15926  0.56898  0.26784  1.0000
  H   H576      1.0  0.47649  0.74052  0.39573  1.0000
  C   C715      1.0  0.36034  0.98571  0.41687  1.0000
  H   H577      1.0  0.18487  0.51168  0.48731  1.0000
  H   H578      1.0  0.43574  0.67583  0.26317  1.0000
  C   C716      1.0  0.40603  0.98726  0.30347  1.0000
  H   H579      1.0  0.48567  0.77983  0.49532  1.0000
  C   C717      1.0  0.46238  0.69516  0.32048  1.0000
  C   C718      1.0  0.44912  0.67656  0.27930  1.0000
  H   H580      1.0  0.35159  0.95530  0.44441  1.0000
  C   C719      1.0  0.36329  0.96101  0.42783  1.0000
  C   C720      1.0  0.47104  0.66059  0.27931  1.0000
  C   C721      1.0  0.48419  0.67875  0.32050  1.0000
  H   H581      1.0  0.47476  0.64763  0.26315  1.0000
  C   C722      1.0  0.41365  0.89965  0.49662  1.0000
  C   C723      1.0  0.48857  0.66172  0.29986  1.0000
  C   C724      1.0  0.49129  0.74209  0.38094  1.0000
  H   H582      1.0  0.08925  0.55657  0.25051  1.0000
  C   C725      1.0  0.01274  0.67081  0.49848  1.0000
  C   C726      1.0  0.14636  0.58418  0.49778  1.0000
  Fe  Fe42      1.0  0.27261  0.93078  0.60310  1.0000
  S   S89       1.0  0.28040  0.93837  0.64527  1.0000
  S   S90       1.0  0.27076  0.88874  0.59047  1.0000
  Fe  Fe43      1.0  0.30671  0.96984  0.63094  1.0000
  S   S91       1.0  0.34839  0.97750  0.64057  1.0000
  Fe  Fe44      1.0  0.24882  0.96823  0.64147  1.0000
  C   C727      1.0  0.05538  0.51387  0.66825  1.0000
  S   S92       1.0  0.30161  0.95980  0.58910  1.0000
  S   S93       1.0  0.23926  0.95877  0.59995  1.0000
  H   H583      1.0  0.27355  0.58694  0.73882  1.0000
  H   H584      1.0  0.00965  0.64882  0.56078  1.0000
  C   C728      1.0  0.34475  0.98162  0.52698  1.0000
  H   H585      1.0  0.30748  0.80722  0.61750  1.0000
  C   C729      1.0  0.49377  0.79800  0.55810  1.0000
  H   H586      1.0  0.07406  0.96161  0.68010  1.0000
  Fe  Fe45      1.0  0.40209  0.77776  0.53433  1.0000
  S   S94       1.0  0.42503  0.77055  0.57087  1.0000
  S   S95       1.0  0.36018  0.78813  0.53902  1.0000
  Fe  Fe46      1.0  0.44166  0.89725  0.71926  1.0000
  S   S96       1.0  0.43546  0.85827  0.70137  1.0000
  S   S97       1.0  0.40515  0.91787  0.73163  1.0000
  Fe  Fe47      1.0  0.46714  0.86971  0.67375  1.0000
  S   S98       1.0  0.46570  0.86974  0.62985  1.0000
  S   S99       1.0  0.47080  0.91003  0.68962  1.0000
  Fe  Fe48      1.0  0.03809  0.61724  0.65324  1.0000
  S   S100      1.0  0.02323  0.62271  0.69385  1.0000
  S   S101      1.0  0.07582  0.59546  0.64914  1.0000
  C   C730      1.0  0.15672  0.50791  0.54173  1.0000
  H   H587      1.0  0.18523  0.62706  0.52938  1.0000
  S   S102      1.0  0.02495  0.65608  0.63836  1.0000
  Fe  Fe49      1.0  0.20995  0.60668  0.58969  1.0000
  S   S103      1.0  0.20818  0.56332  0.59343  1.0000
  S   S104      1.0  0.17524  0.63359  0.58784  1.0000
  Fe  Fe50      1.0  0.26775  0.60659  0.58042  1.0000
  S   S105      1.0  0.26984  0.56271  0.58267  1.0000
  S   S106      1.0  0.30391  0.63168  0.57748  1.0000
  Fe  Fe51      1.0  0.23366  0.56306  0.55749  1.0000
  H   H588      1.0  0.36639  0.94719  0.51871  1.0000
  Fe  Fe52      1.0  0.24430  0.56680  0.61843  1.0000
  S   S107      1.0  0.25175  0.54181  0.65578  1.0000
  S   S108      1.0  0.23388  0.60650  0.55319  1.0000
  S   S109      1.0  0.24382  0.61053  0.61682  1.0000
  Fe  Fe53      1.0  0.10529  0.88481  0.73004  1.0000
  S   S110      1.0  0.06410  0.89424  0.71854  1.0000
  S   S111      1.0  0.13989  0.88283  0.70242  1.0000
  H   H589      1.0  0.47175  0.90310  0.58007  1.0000
  S   S112      1.0  0.03154  0.82311  0.70973  1.0000
  C   C731      1.0  0.26099  0.54415  0.68969  1.0000
  C   C732      1.0  0.09238  0.93732  0.53525  1.0000
  H   H590      1.0  0.33367  0.90738  0.52115  1.0000
  C   C733      1.0  0.41058  0.51847  0.68976  1.0000
  C   C734      1.0  0.27120  0.56842  0.72935  1.0000
  C   C735      1.0  0.26450  0.56785  0.70256  1.0000
  C   C736      1.0  0.34549  0.79110  0.61472  1.0000
  C   C737      1.0  0.36281  0.96219  0.53284  1.0000
  H   H591      1.0  0.26178  0.58579  0.69193  1.0000
  C   C738      1.0  0.14762  0.62349  0.60524  1.0000
  C   C739      1.0  0.14905  0.60258  0.62253  1.0000
  C   C740      1.0  0.12692  0.59464  0.63622  1.0000
  C   C741      1.0  0.10317  0.60736  0.63258  1.0000
  C   C742      1.0  0.10165  0.62838  0.61537  1.0000
  C   C743      1.0  0.12390  0.63647  0.60175  1.0000
  H   H592      1.0  0.16728  0.59262  0.62553  1.0000
  H   H593      1.0  0.12818  0.57836  0.64954  1.0000
  H   H594      1.0  0.08335  0.63820  0.61242  1.0000
  H   H595      1.0  0.12270  0.65264  0.58835  1.0000
  C   C744      1.0  0.02268  0.73267  0.70461  1.0000
  C   C745      1.0  0.26478  0.52116  0.70428  1.0000
  H   H596      1.0  0.06134  0.58275  0.57984  1.0000
  C   C746      1.0  0.02883  0.78813  0.70835  1.0000
  C   C747      1.0  0.01509  0.77666  0.68768  1.0000
  H   H597      1.0  0.07683  0.53790  0.73631  1.0000
  H   H598      1.0  0.00654  0.71450  0.62486  1.0000
  H   H599      1.0  0.23428  0.74376  0.55992  1.0000
  C   C748      1.0  0.43510  0.79835  0.58771  1.0000
  C   C749      1.0  0.43383  0.82290  0.57610  1.0000
  C   C750      1.0  0.44364  0.84460  0.58913  1.0000
  C   C751      1.0  0.45408  0.84200  0.61409  1.0000
  C   C752      1.0  0.45517  0.81753  0.62587  1.0000
  C   C753      1.0  0.44577  0.79571  0.61263  1.0000
  H   H600      1.0  0.42578  0.82509  0.55688  1.0000
  H   H601      1.0  0.44295  0.86347  0.57993  1.0000
  H   H602      1.0  0.46327  0.81543  0.64514  1.0000
  H   H603      1.0  0.44690  0.77673  0.62164  1.0000
  C   C754      1.0  0.31390  0.70532  0.52730  1.0000
  C   C755      1.0  0.33380  0.69664  0.54356  1.0000
  C   C756      1.0  0.33032  0.67421  0.55895  1.0000
  C   C757      1.0  0.30703  0.66013  0.55813  1.0000
  C   C758      1.0  0.28709  0.66891  0.54195  1.0000
  C   C759      1.0  0.30660  0.76875  0.60051  1.0000
  H   H604      1.0  0.35194  0.70705  0.54411  1.0000
  H   H605      1.0  0.34588  0.66752  0.57133  1.0000
  H   H606      1.0  0.26913  0.65822  0.54106  1.0000
  C   C760      1.0  0.40137  0.90795  0.51932  1.0000
  C   C761      1.0  0.29305  0.88035  0.56584  1.0000
  C   C762      1.0  0.29889  0.85416  0.56139  1.0000
  C   C763      1.0  0.31755  0.84717  0.54278  1.0000
  C   C764      1.0  0.33032  0.86626  0.52830  1.0000
  C   C765      1.0  0.32403  0.89243  0.53227  1.0000
  C   C766      1.0  0.30543  0.89943  0.55093  1.0000
  H   H607      1.0  0.28931  0.83924  0.57253  1.0000
  H   H608      1.0  0.32191  0.82698  0.53959  1.0000
  H   H609      1.0  0.07010  0.96537  0.55682  1.0000
  H   H610      1.0  0.30060  0.91958  0.55361  1.0000
  C   C767      1.0  0.36347  0.95984  0.66551  1.0000
  C   C768      1.0  0.34925  0.94913  0.68605  1.0000
  C   C769      1.0  0.36221  0.93655  0.70655  1.0000
  C   C770      1.0  0.38925  0.93385  0.70602  1.0000
  C   C771      1.0  0.40333  0.94411  0.68516  1.0000
  C   C772      1.0  0.39049  0.95740  0.66514  1.0000
  H   H611      1.0  0.32840  0.95120  0.68652  1.0000
  H   H612      1.0  0.35129  0.92873  0.72273  1.0000
  H   H613      1.0  0.42417  0.94237  0.68478  1.0000
  H   H614      1.0  0.40154  0.96574  0.64932  1.0000
  C   C773      1.0  0.19790  0.94733  0.68241  1.0000
  C   C774      1.0  0.17935  0.95128  0.70207  1.0000
  C   C775      1.0  0.16146  0.93169  0.70862  1.0000
  C   C776      1.0  0.16237  0.90784  0.69584  1.0000
  C   C777      1.0  0.18165  0.90351  0.67703  1.0000
  C   C778      1.0  0.19918  0.92323  0.67010  1.0000
  H   H615      1.0  0.14678  0.93520  0.72322  1.0000
  H   H616      1.0  0.18279  0.88495  0.66749  1.0000
  H   H617      1.0  0.21343  0.91994  0.65501  1.0000
  C   C779      1.0  0.11042  0.54185  0.60163  1.0000
  C   C780      1.0  0.09299  0.93707  0.65199  1.0000
  H   H618      1.0  0.07577  0.92555  0.64897  1.0000
  C   C781      1.0  0.28045  0.79485  0.52021  1.0000
  H   H619      1.0  0.04814  0.98764  0.73920  1.0000
  H   H620      1.0  0.23031  0.80323  0.57577  1.0000
  C   C782      1.0  0.28429  0.78209  0.54388  1.0000
  C   C783      1.0  0.29049  0.69146  0.52671  1.0000
  H   H621      1.0  0.34386  0.58842  0.65952  1.0000
  H   H622      1.0  0.29630  0.80819  0.67430  1.0000
  Fe  Fe54      1.0  0.36784  0.81637  0.50670  1.0000
  C   C784      1.0  0.27515  0.87694  0.67700  1.0000
  C   C785      1.0  0.24110  0.81415  0.53702  1.0000
  C   C786      1.0  0.11342  0.97351  0.67316  1.0000
  H   H623      1.0  0.00564  0.53476  0.70928  1.0000
  C   C787      1.0  0.08436  0.57447  0.54571  1.0000
  C   C788      1.0  0.29780  0.86212  0.67878  1.0000
  P   P23       1.0  0.33636  0.83473  0.70520  1.0000
  C   C789      1.0  0.31859  0.79047  0.61165  1.0000
  H   H624      1.0  0.44368  0.51674  0.66421  1.0000
  C   C790      1.0  0.33162  0.51736  0.68161  1.0000
  C   C791      1.0  0.26976  0.87441  0.72363  1.0000
  C   C792      1.0  0.45092  0.92591  0.50713  1.0000
  C   C793      1.0  0.34391  0.75579  0.70018  1.0000
  C   C794      1.0  0.35919  0.84709  0.68161  1.0000
  C   C795      1.0  0.37570  0.83013  0.66812  1.0000
  C   C796      1.0  0.39319  0.83979  0.64980  1.0000
  C   C797      1.0  0.39490  0.86644  0.64531  1.0000
  C   C798      1.0  0.37867  0.88347  0.65871  1.0000
  C   C799      1.0  0.36080  0.87388  0.67674  1.0000
  H   H625      1.0  0.26864  0.88395  0.65821  1.0000
  C   C800      1.0  0.15541  0.60065  0.51745  1.0000
  C   C801      1.0  0.39955  0.50977  0.71319  1.0000
  H   H626      1.0  0.30845  0.85768  0.66117  1.0000
  H   H627      1.0  0.08011  0.77531  0.61354  1.0000
  Fe  Fe55      1.0  0.00819  0.66153  0.67874  1.0000
  H   H628      1.0  0.21973  0.82080  0.67743  1.0000
  P   P24       1.0  0.04942  0.50404  0.63529  1.0000
  H   H629      1.0  0.40014  0.53151  0.67701  1.0000
  C   C802      1.0  0.36067  0.77013  0.60672  1.0000
  H   H630      1.0  0.37536  0.80945  0.67162  1.0000
  H   H631      1.0  0.40564  0.82658  0.63931  1.0000
  H   H632      1.0  0.40878  0.87386  0.63142  1.0000
  H   H633      1.0  0.37993  0.90413  0.65507  1.0000
  H   H634      1.0  0.34856  0.88742  0.68715  1.0000
  H   H635      1.0  0.26883  0.67513  0.61835  1.0000
  H   H636      1.0  0.14887  0.52769  0.59394  1.0000
  H   H637      1.0  0.14853  0.76002  0.64498  1.0000
  H   H638      1.0  0.08345  0.70013  0.73607  1.0000
  C   C803      1.0  0.18067  0.85707  0.61995  1.0000
  C   C804      1.0  0.19969  0.87107  0.60655  1.0000
  C   C805      1.0  0.19387  0.89549  0.59625  1.0000
  C   C806      1.0  0.16895  0.90586  0.59902  1.0000
  C   C807      1.0  0.14966  0.89194  0.61240  1.0000
  C   C808      1.0  0.15580  0.86754  0.62309  1.0000
  P   P25       1.0  0.11729  0.90524  0.61527  1.0000
  C   C809      1.0  0.09500  0.87968  0.62439  1.0000
  C   C810      1.0  0.11614  0.93143  0.63865  1.0000
  S   S113      1.0  0.31752  0.73321  0.50730  1.0000
  C   C811      1.0  0.03968  0.77148  0.72705  1.0000
  H   H639      1.0  0.17041  0.69106  0.57341  1.0000
  H   H640      1.0  0.24058  0.74994  0.63915  1.0000
  H   H641      1.0  0.48449  0.87329  0.54494  1.0000
  C   C812      1.0  0.08207  0.86510  0.60540  1.0000
  C   C813      1.0  0.06465  0.84559  0.61275  1.0000
  C   C814      1.0  0.05998  0.84052  0.63905  1.0000
  C   C815      1.0  0.07290  0.85482  0.65794  1.0000
  C   C816      1.0  0.09058  0.87400  0.65070  1.0000
  C   C817      1.0  0.10767  0.91793  0.58395  1.0000
  C   C818      1.0  0.11672  0.90630  0.56100  1.0000
  H   H642      1.0  0.11624  0.90702  0.51914  1.0000
  H   H643      1.0  0.18529  0.83828  0.62821  1.0000
  H   H644      1.0  0.21905  0.86322  0.60420  1.0000
  H   H645      1.0  0.27501  0.69803  0.51419  1.0000
  H   H646      1.0  0.16479  0.92478  0.59074  1.0000
  H   H647      1.0  0.14154  0.85664  0.63404  1.0000
  H   H648      1.0  0.05024  0.77967  0.74315  1.0000
  C   C819      1.0  0.08674  0.69491  0.71599  1.0000
  C   C820      1.0  0.32214  0.74801  0.59194  1.0000
  H   H649      1.0  0.16483  0.54659  0.52895  1.0000
  C   C821      1.0  0.09070  0.93923  0.58225  1.0000
  C   C822      1.0  0.12547  0.53545  0.51962  1.0000
  C   C823      1.0  0.02240  0.52161  0.62156  1.0000
  C   C824      1.0  0.13626  0.96853  0.65946  1.0000
  H   H650      1.0  0.06900  0.85120  0.67830  1.0000
  H   H651      1.0  0.10045  0.88469  0.66571  1.0000
  H   H652      1.0  0.29429  0.79213  0.50455  1.0000
  C   C825      1.0  0.13776  0.94742  0.64254  1.0000
  C   C826      1.0  0.06937  0.59034  0.56188  1.0000
  H   H653      1.0  0.05439  0.56808  0.70585  1.0000
  H   H654      1.0  0.31125  0.56164  0.63678  1.0000
  C   C827      1.0  0.07044  0.53110  0.71755  1.0000
  C   C828      1.0  0.06533  0.61637  0.55541  1.0000
  C   C829      1.0  0.42132  0.94739  0.58830  1.0000
  C   C830      1.0  0.24468  0.80103  0.56060  1.0000
  H   H655      1.0  0.05446  0.83464  0.59810  1.0000
  H   H656      1.0  0.08649  0.94485  0.51648  1.0000
  C   C831      1.0  0.09119  0.61082  0.51649  1.0000
  C   C832      1.0  0.01209  0.74933  0.68579  1.0000
  C   C833      1.0  0.34065  0.56853  0.66563  1.0000
  H   H657      1.0  0.31373  0.73162  0.58197  1.0000
  C   C834      1.0  0.26086  0.69043  0.60619  1.0000
  S   S114      1.0  0.21917  0.53587  0.52456  1.0000
  S   S115      1.0  0.21846  0.97319  0.67315  1.0000
  C   C835      1.0  0.43117  0.97276  0.58639  1.0000
  H   H658      1.0  0.00640  0.78906  0.67309  1.0000
  C   C836      1.0  0.15025  0.53157  0.53004  1.0000
  C   C837      1.0  0.33023  0.80098  0.69806  1.0000
  H   H659      1.0  0.01589  0.58884  0.74149  1.0000
  H   H660      1.0  0.08237  0.65390  0.72302  1.0000
  H   H661      1.0  0.35467  0.80809  0.62274  1.0000
  H   H662      1.0  0.46997  0.93320  0.50229  1.0000
  C   C838      1.0  0.30684  0.85360  0.70311  1.0000
  C   C839      1.0  0.30621  0.76778  0.67502  1.0000
  H   H663      1.0  0.12954  0.88964  0.56181  1.0000
  H   H664      1.0  0.36834  0.57011  0.69660  1.0000
  H   H665      1.0  0.32091  0.72870  0.67847  1.0000
  H   H666      1.0  0.04621  0.82572  0.64496  1.0000
  H   H667      1.0  0.08322  0.94844  0.59957  1.0000
  C   C840      1.0  0.08584  0.53593  0.61138  1.0000
  C   C841      1.0  0.49196  0.90126  0.57468  1.0000
  H   H668      1.0  0.14520  0.60235  0.53580  1.0000
  H   H669      1.0  0.17608  0.50510  0.54937  1.0000
  H   H670      1.0  0.30354  0.51636  0.65071  1.0000
  C   C842      1.0  0.45939  0.96451  0.62303  1.0000
  H   H671      1.0  0.47395  0.97102  0.63667  1.0000
  C   C843      1.0  0.43878  0.93393  0.53006  1.0000
  C   C844      1.0  0.41393  0.92483  0.53645  1.0000
  C   C845      1.0  0.02330  0.53157  0.59613  1.0000
  P   P26       1.0  0.39751  0.93597  0.56542  1.0000
  C   C846      1.0  0.37900  0.91000  0.58025  1.0000
  C   C847      1.0  0.43100  0.93064  0.60748  1.0000
  C   C848      1.0  0.35804  0.91593  0.59662  1.0000
  C   C849      1.0  0.34264  0.89613  0.60695  1.0000
  C   C850      1.0  0.34825  0.87022  0.60133  1.0000
  C   C851      1.0  0.36957  0.86404  0.58574  1.0000
  C   C852      1.0  0.38505  0.88382  0.57545  1.0000
  C   C853      1.0  0.05022  0.53944  0.67594  1.0000
  H   H672      1.0  0.44887  0.94720  0.54266  1.0000
  H   H673      1.0  0.30104  0.76960  0.54603  1.0000
  H   H674      1.0  0.42420  0.91087  0.60910  1.0000
  H   H675      1.0  0.45730  0.92603  0.63933  1.0000
  H   H676      1.0  0.35334  0.93584  0.60126  1.0000
  H   H677      1.0  0.32609  0.90097  0.61901  1.0000
  H   H678      1.0  0.33598  0.85498  0.60895  1.0000
  H   H679      1.0  0.37395  0.84393  0.58136  1.0000
  H   H680      1.0  0.40142  0.87852  0.56347  1.0000
  H   H681      1.0  0.37791  0.98087  0.59438  1.0000
  C   C854      1.0  0.25527  0.78506  0.62098  1.0000
  C   C855      1.0  0.24167  0.72919  0.57318  1.0000
  C   C856      1.0  0.23269  0.70368  0.57107  1.0000
  C   C857      1.0  0.24225  0.68433  0.58758  1.0000
  C   C858      1.0  0.25565  0.81231  0.62256  1.0000
  C   C859      1.0  0.24285  0.82506  0.64280  1.0000
  C   C860      1.0  0.22955  0.81082  0.66170  1.0000
  H   H682      1.0  0.00143  0.75386  0.59750  1.0000
  H   H683      1.0  0.17831  0.96987  0.71171  1.0000
  Fe  Fe56      1.0  0.05402  0.85388  0.73392  1.0000
  H   H684      1.0  0.21874  0.69869  0.55626  1.0000
  H   H685      1.0  0.23569  0.66445  0.58555  1.0000
  C   C861      1.0  0.36933  0.98122  0.57524  1.0000
  H   H686      1.0  0.24316  0.84606  0.64369  1.0000
  H   H687      1.0  0.36393  0.78689  0.71895  1.0000
  H   H688      1.0  0.15422  0.83771  0.73397  1.0000
  C   C862      1.0  0.10913  0.91602  0.53677  1.0000
  C   C863      1.0  0.13537  0.71348  0.57832  1.0000
  C   C864      1.0  0.15702  0.69974  0.58713  1.0000
  C   C865      1.0  0.16101  0.69634  0.61374  1.0000
  C   C866      1.0  0.14332  0.70658  0.63159  1.0000
  C   C867      1.0  0.12126  0.72007  0.62290  1.0000
  C   C868      1.0  0.11753  0.72366  0.59611  1.0000
  P   P27       1.0  0.09822  0.73242  0.64633  1.0000
  C   C869      1.0  0.09392  0.70773  0.67106  1.0000
  C   C870      1.0  0.10936  0.76250  0.66012  1.0000
  H   H689      1.0  0.13133  0.82837  0.68931  1.0000
  H   H690      1.0  0.29893  0.85326  0.74449  1.0000
  C   C871      1.0  0.31809  0.52782  0.66052  1.0000
  C   C872      1.0  0.10010  0.80116  0.68529  1.0000
  C   C873      1.0  0.09202  0.77777  0.67450  1.0000
  H   H691      1.0  0.08878  0.64194  0.67695  1.0000
  C   C874      1.0  0.07545  0.50552  0.71012  1.0000
  C   C875      1.0  0.36815  0.54407  0.74746  1.0000
  C   C876      1.0  0.27171  0.52174  0.73096  1.0000
  C   C877      1.0  0.09330  0.68145  0.66389  1.0000
  C   C878      1.0  0.06744  0.73917  0.63100  1.0000
  C   C879      1.0  0.04636  0.72236  0.63432  1.0000
  C   C880      1.0  0.02279  0.72750  0.62198  1.0000
  C   C881      1.0  0.01988  0.74979  0.60671  1.0000
  C   C882      1.0  0.04058  0.76698  0.60377  1.0000
  C   C883      1.0  0.06428  0.76175  0.61588  1.0000
  H   H692      1.0  0.13219  0.71581  0.55765  1.0000
  C   C884      1.0  0.07975  0.51047  0.61900  1.0000
  H   H693      1.0  0.17745  0.68500  0.62044  1.0000
  H   H694      1.0  0.14653  0.70340  0.65215  1.0000
  H   H695      1.0  0.10071  0.73383  0.58881  1.0000
  C   C885      1.0  0.12952  0.52270  0.60049  1.0000
  C   C886      1.0  0.13481  0.77130  0.65616  1.0000
  H   H696      1.0  0.02443  0.68682  0.53523  1.0000
  H   H697      1.0  0.47367  0.76635  0.54000  1.0000
  H   H698      1.0  0.07224  0.77146  0.67759  1.0000
  C   C887      1.0  0.03639  0.74416  0.72530  1.0000
  H   H699      1.0  0.24387  0.89514  0.69796  1.0000
  H   H700      1.0  0.07192  0.55147  0.61398  1.0000
  C   C888      1.0  0.99957  0.52432  0.63614  1.0000
  H   H701      1.0  0.09543  0.67587  0.64376  1.0000
  H   H702      1.0  0.04778  0.70561  0.64692  1.0000
  H   H703      1.0  0.26218  0.50263  0.69486  1.0000
  P   P28       1.0  0.36716  0.51942  0.72257  1.0000
  H   H704      1.0  0.03815  0.78442  0.59221  1.0000
  C   C889      1.0  0.37049  0.85510  0.74205  1.0000
  C   C890      1.0  0.34973  0.53251  0.69500  1.0000
  H   H705      1.0  0.10006  0.61922  0.49932  1.0000
  C   C891      1.0  0.44995  0.93920  0.62470  1.0000
  C   C892      1.0  0.09067  0.71431  0.69731  1.0000
  C   C893      1.0  0.26030  0.73554  0.59193  1.0000
  C   C894      1.0  0.01611  0.67029  0.52540  1.0000
  C   C895      1.0  0.24151  0.77091  0.63989  1.0000
  C   C896      1.0  0.09552  0.58462  0.52290  1.0000
  H   H706      1.0  0.38205  0.90107  0.52364  1.0000
  C   C897      1.0  0.22882  0.78375  0.66020  1.0000
  H   H707      1.0  0.08662  0.81242  0.69682  1.0000
  Fe  Fe57      1.0  0.46718  0.84526  0.72824  1.0000
  C   C898      1.0  0.08315  0.94888  0.55798  1.0000
  C   C899      1.0  0.37536  0.96190  0.55702  1.0000
  C   C900      1.0  0.32337  0.74881  0.68409  1.0000
  H   H708      1.0  0.38158  0.77080  0.60868  1.0000
  H   H709      1.0  0.37764  0.86792  0.72697  1.0000
  H   H710      1.0  0.15312  0.98068  0.66238  1.0000
  S   S116      1.0  0.00251  0.59668  0.64023  1.0000
  P   P29       1.0  0.27198  0.76852  0.59476  1.0000
  H   H711      1.0  0.42430  0.98589  0.57142  1.0000
  H   H712      1.0  0.26564  0.82384  0.60806  1.0000
  H   H713      1.0  0.08768  0.55458  0.55154  1.0000
  Fe  Fe58      1.0  0.26938  0.98893  0.58941  1.0000
  H   H714      1.0  0.28421  0.72027  0.62303  1.0000
  C   C901      1.0  0.10708  0.51549  0.52153  1.0000
  H   H715      1.0  0.22446  0.82673  0.53438  1.0000
  C   C902      1.0  0.26675  0.78547  0.56444  1.0000
  C   C903      1.0  0.30958  0.79380  0.68193  1.0000
  H   H716      1.0  0.21842  0.77267  0.67481  1.0000
  C   C904      1.0  0.05783  0.54805  0.70046  1.0000
  H   H717      1.0  0.07307  0.64684  0.52780  1.0000
  C   C905      1.0  0.45006  0.98130  0.60379  1.0000
  C   C906      1.0  0.26117  0.88319  0.69940  1.0000
  C   C907      1.0  0.08603  0.66886  0.70865  1.0000
  C   C908      1.0  0.26970  0.71596  0.60856  1.0000
  H   H718      1.0  0.08521  0.86883  0.58496  1.0000
  H   H719      1.0  0.36090  0.73273  0.58827  1.0000
  H   H720      1.0  0.04103  0.55304  0.66276  1.0000
  H   H721      1.0  0.16227  0.80192  0.66348  1.0000
  C   C909      1.0  0.09178  0.95777  0.66944  1.0000
  S   S117      1.0  0.09511  0.84457  0.74327  1.0000
  C   C910      1.0  0.14270  0.79506  0.66660  1.0000
  H   H722      1.0  0.11501  0.56160  0.59593  1.0000
  C   C911      1.0  0.08946  0.66214  0.68263  1.0000
  C   C912      1.0  0.34900  0.74863  0.59528  1.0000
  H   H723      1.0  0.15593  0.94378  0.63278  1.0000
  C   C913      1.0  0.48552  0.78345  0.53689  1.0000
  H   H724      1.0  0.35741  0.74113  0.70701  1.0000
  H   H725      1.0  0.09057  0.73430  0.70352  1.0000
  C   C914      1.0  0.35040  0.83745  0.73726  1.0000
  H   H726      1.0  0.04031  0.52895  0.58412  1.0000
  C   C915      1.0  0.00781  0.64885  0.53981  1.0000
  S   S118      1.0  0.01893  0.69771  0.70381  1.0000
  C   C916      1.0  0.34739  0.78175  0.70710  1.0000
  C   C917      1.0  0.49221  0.79116  0.51173  1.0000
  H   H727      1.0  0.05422  0.62868  0.56835  1.0000
  C   C918      1.0  0.27490  0.54540  0.74394  1.0000
  C   C919      1.0  0.07606  0.62657  0.53263  1.0000
  H   H728      1.0  0.20881  0.90643  0.58619  1.0000
  C   C920      1.0  0.35437  0.55810  0.68665  1.0000
  C   C921      1.0  0.29247  0.85960  0.72552  1.0000
  C   C922      1.0  0.32240  0.55342  0.65267  1.0000
  C   C923      1.0  0.12534  0.80998  0.68118  1.0000
  H   H729      1.0  0.33015  0.55964  0.73838  1.0000
  H   H730      1.0  0.29053  0.76231  0.66233  1.0000
  H   H731      1.0  0.25901  0.87943  0.74100  1.0000
  S   S119      1.0  0.39502  0.74607  0.50513  1.0000
  H   H732      1.0  0.48843  0.79202  0.57758  1.0000
  H   H733      1.0  0.19237  0.86657  0.73270  1.0000
  H   H734      1.0  0.00093  0.74123  0.67011  1.0000
  H   H735      1.0  0.04448  0.73180  0.74025  1.0000
  C   C924      1.0  0.43532  0.51007  0.68236  1.0000
  H   H736      1.0  0.11255  0.98949  0.68674  1.0000
  H   H737      1.0  0.27396  0.50377  0.74159  1.0000
  C   C925      1.0  0.25906  0.81116  0.51687  1.0000
  Fe  Fe59      1.0  0.35343  0.75873  0.50771  1.0000
  S   S120      1.0  0.35397  0.85793  0.50500  1.0000
  S   S121      1.0  0.41062  0.80847  0.50433  1.0000
  H   H738      1.0  0.33462  0.98149  0.50860  1.0000
  S   S122      1.0  0.47189  0.88383  0.74764  1.0000
  H   H739      1.0  0.08786  0.51812  0.51355  1.0000
  C   C926      1.0  0.17830  0.61462  0.51396  1.0000
  H   H740      1.0  0.00307  0.55362  0.56672  1.0000
  C   C927      1.0  0.00209  0.54523  0.58602  1.0000
  P   P30       1.0  0.11732  0.56535  0.50311  1.0000
  H   H741      1.0  0.99826  0.51629  0.65554  1.0000
  H   H742      1.0  0.13969  0.81844  0.77571  1.0000
  Fe  Fe60      1.0  0.05971  0.90952  0.75983  1.0000
  H   H743      1.0  0.48640  0.73674  0.86221  1.0000
  C   C928      1.0  0.38212  0.85614  0.76651  1.0000
  Fe  Fe61      1.0  0.18413  0.80632  0.97202  1.0000
  S   S123      1.0  0.18566  0.84997  0.97413  1.0000
  S   S124      1.0  0.21638  0.78444  0.94955  1.0000
  Fe  Fe62      1.0  0.14571  0.84917  0.95701  1.0000
  S   S125      1.0  0.13521  0.87850  0.92578  1.0000
  S   S126      1.0  0.14467  0.80593  0.95283  1.0000
  Fe  Fe63      1.0  0.08789  0.86219  0.78225  1.0000
  S   S127      1.0  0.04589  0.86992  0.77402  1.0000
  S   S128      1.0  0.10200  0.83672  0.81521  1.0000
  H   H744      1.0  0.22145  0.97485  0.97140  1.0000
  S   S129      1.0  0.03988  0.94591  0.77843  1.0000
  C   C929      1.0  0.26232  0.84296  0.82526  1.0000
  S   S130      1.0  0.10178  0.90172  0.77020  1.0000
  Fe  Fe64      1.0  0.41187  0.77315  0.89118  1.0000
  S   S131      1.0  0.41040  0.77629  0.93491  1.0000
  S   S132      1.0  0.41863  0.80936  0.86685  1.0000
  Fe  Fe65      1.0  0.40054  0.71579  0.89269  1.0000
  S   S133      1.0  0.39805  0.71460  0.93623  1.0000
  S   S134      1.0  0.39806  0.68186  0.86502  1.0000
  Fe  Fe66      1.0  0.37433  0.75156  0.93219  1.0000
  S   S135      1.0  0.33869  0.75979  0.95847  1.0000
  Fe  Fe67      1.0  0.43428  0.73936  0.93536  1.0000
  S   S136      1.0  0.46750  0.72996  0.96422  1.0000
  S   S137      1.0  0.37471  0.75082  0.88847  1.0000
  S   S138      1.0  0.43789  0.73818  0.89191  1.0000
  Fe  Fe68      1.0  0.32411  0.55064  0.86666  1.0000
  S   S139      1.0  0.28413  0.53622  0.85732  1.0000
  S   S140      1.0  0.33191  0.58278  0.89536  1.0000
  Fe  Fe69      1.0  0.29959  0.52866  0.81634  1.0000
  H   H745      1.0  0.29521  0.91063  0.97813  1.0000
  S   S141      1.0  0.33851  0.54604  0.82600  1.0000
  S   S142      1.0  0.33907  0.51203  0.87965  1.0000
  C   C930      1.0  0.37948  0.65447  0.87353  1.0000
  C   C931      1.0  0.36739  0.65261  0.89776  1.0000
  C   C932      1.0  0.35270  0.63056  0.90410  1.0000
  C   C933      1.0  0.35003  0.61026  0.88629  1.0000
  C   C934      1.0  0.36208  0.61209  0.86201  1.0000
  C   C935      1.0  0.37687  0.63412  0.85570  1.0000
  H   H746      1.0  0.36904  0.66834  0.91146  1.0000
  H   H747      1.0  0.34318  0.62929  0.92279  1.0000
  H   H748      1.0  0.36019  0.59646  0.84823  1.0000
  H   H749      1.0  0.38626  0.63545  0.83694  1.0000
  C   C936      1.0  0.15703  0.83026  0.77502  1.0000
  H   H750      1.0  0.34200  0.63465  0.98925  1.0000
  C   C937      1.0  0.12535  0.86676  0.89525  1.0000
  C   C938      1.0  0.11501  0.88404  0.87681  1.0000
  C   C939      1.0  0.10760  0.87516  0.85210  1.0000
  C   C940      1.0  0.11052  0.84892  0.84585  1.0000
  C   C941      1.0  0.12056  0.83166  0.86440  1.0000
  C   C942      1.0  0.12794  0.84053  0.88899  1.0000
  H   H751      1.0  0.11286  0.90434  0.88159  1.0000
  H   H752      1.0  0.09972  0.88853  0.83790  1.0000
  H   H753      1.0  0.12278  0.81133  0.85968  1.0000
  H   H754      1.0  0.13585  0.82704  0.90292  1.0000
  C   C943      1.0  0.25073  0.77944  0.95227  1.0000
  C   C944      1.0  0.26341  0.77863  0.97624  1.0000
  C   C945      1.0  0.29016  0.77263  0.97759  1.0000
  C   C946      1.0  0.30497  0.76791  0.95504  1.0000
  C   C947      1.0  0.29241  0.76926  0.93096  1.0000
  C   C948      1.0  0.26549  0.77464  0.92966  1.0000
  H   H755      1.0  0.34748  0.80923  0.79739  1.0000
  H   H756      1.0  0.20019  0.88980  0.93224  1.0000
  H   H757      1.0  0.30331  0.76571  0.91336  1.0000
  H   H758      1.0  0.25601  0.77504  0.91096  1.0000
  C   C949      1.0  0.39111  0.59600  0.96768  1.0000
  H   H759      1.0  0.02549  0.82511  0.80486  1.0000
  C   C950      1.0  0.44801  0.80837  0.78239  1.0000
  C   C951      1.0  0.44175  0.78498  0.79505  1.0000
  C   C952      1.0  0.43270  0.78488  0.82092  1.0000
  C   C953      1.0  0.42966  0.80830  0.83427  1.0000
  C   C954      1.0  0.43559  0.83168  0.82150  1.0000
  C   C955      1.0  0.44463  0.83174  0.79570  1.0000
  H   H760      1.0  0.44401  0.76687  0.78481  1.0000
  H   H761      1.0  0.42810  0.76674  0.83049  1.0000
  H   H762      1.0  0.43335  0.84988  0.83168  1.0000
  H   H763      1.0  0.44937  0.84989  0.78631  1.0000
  H   H764      1.0  0.49047  0.80704  0.94043  1.0000
  H   H765      1.0  0.38324  0.84013  0.80520  1.0000
  C   C956      1.0  0.13786  0.98670  0.89637  1.0000
  C   C957      1.0  0.28531  0.61328  0.93733  1.0000
  C   C958      1.0  0.29600  0.86660  0.94757  1.0000
  P   P31       1.0  0.26173  0.63795  0.89486  1.0000
  P   P32       1.0  0.04019  0.79917  0.91140  1.0000
  C   C959      1.0  0.03433  0.80812  0.87799  1.0000
  C   C960      1.0  0.04360  0.82804  0.93086  1.0000
  C   C961      1.0  0.06804  0.83932  0.93452  1.0000
  C   C962      1.0  0.07055  0.86147  0.94991  1.0000
  H   H766      1.0  0.09253  0.94165  0.91272  1.0000
  H   H767      1.0  0.41416  0.54520  0.84697  1.0000
  C   C963      1.0  0.10234  0.96533  0.81777  1.0000
  C   C964      1.0  0.12493  0.98017  0.81789  1.0000
  C   C965      1.0  0.01287  0.78095  0.92400  1.0000
  H   H768      1.0  0.26804  0.67534  0.93682  1.0000
  H   H769      1.0  0.40724  0.56795  0.79496  1.0000
  C   C966      1.0  0.04341  0.83184  0.86807  1.0000
  C   C967      1.0  0.06980  0.78029  0.91261  1.0000
  C   C968      1.0  0.08117  0.77444  0.93664  1.0000
  C   C969      1.0  0.10360  0.75927  0.93794  1.0000
  C   C970      1.0  0.11567  0.75088  0.91516  1.0000
  C   C971      1.0  0.10504  0.75734  0.89105  1.0000
  C   C972      1.0  0.08213  0.77187  0.88973  1.0000
  C   C973      1.0  0.26773  0.56389  0.92368  1.0000
  H   H770      1.0  0.28820  0.50649  0.93988  1.0000
  H   H771      1.0  0.00753  0.87018  0.96703  1.0000
  C   C974      1.0  0.48020  0.79797  0.90101  1.0000
  C   C975      1.0  0.48626  0.73574  0.84125  1.0000
  H   H772      1.0  0.08518  0.83104  0.92560  1.0000
  C   C976      1.0  0.36817  0.60322  0.98029  1.0000
  C   C977      1.0  0.20100  0.92250  0.87212  1.0000
  H   H773      1.0  0.39708  0.57582  0.96799  1.0000
  C   C978      1.0  0.11640  0.97043  0.89395  1.0000
  C   C979      1.0  0.02670  0.55945  0.76935  1.0000
  C   C980      1.0  0.27991  0.60329  0.82573  1.0000
  C   C981      1.0  0.17059  0.83536  0.79787  1.0000
  Fe  Fe70      1.0  0.12622  0.80556  0.99275  1.0000
  H   H774      1.0  0.05375  0.84533  0.88028  1.0000
  H   H775      1.0  0.07275  0.78171  0.95444  1.0000
  H   H776      1.0  0.11194  0.75463  0.95673  1.0000
  H   H777      1.0  0.13344  0.73970  0.91625  1.0000
  H   H778      1.0  0.11457  0.75122  0.87333  1.0000
  H   H779      1.0  0.07447  0.77669  0.87077  1.0000
  C   C982      1.0  0.16516  0.84117  0.75153  1.0000
  C   C983      1.0  0.28247  0.56713  0.94614  1.0000
  S   S143      1.0  0.28318  0.54749  0.77813  1.0000
  P   P33       1.0  0.16377  0.97005  0.96963  1.0000
  C   C984      1.0  0.04881  0.87260  0.96162  1.0000
  H   H780      1.0  0.16366  0.67609  0.92892  1.0000
  C   C985      1.0  0.03992  0.83804  0.84184  1.0000
  C   C986      1.0  0.41824  0.55647  0.86423  1.0000
  C   C987      1.0  0.47782  0.67971  0.91329  1.0000
  P   P34       1.0  0.20988  0.85795  0.82708  1.0000
  C   C988      1.0  0.19696  0.88722  0.84123  1.0000
  C   C989      1.0  0.01883  0.79676  0.83497  1.0000
  H   H781      1.0  0.39795  0.86954  0.76981  1.0000
  C   C990      1.0  0.29663  0.87008  0.80794  1.0000
  H   H782      1.0  0.31455  0.87485  0.95273  1.0000
  C   C991      1.0  0.20508  0.83117  0.84942  1.0000
  C   C992      1.0  0.20914  0.80555  0.84102  1.0000
  C   C993      1.0  0.20543  0.78471  0.85812  1.0000
  C   C994      1.0  0.19727  0.78926  0.88359  1.0000
  C   C995      1.0  0.19262  0.81460  0.89190  1.0000
  C   C996      1.0  0.19643  0.83550  0.87496  1.0000
  H   H783      1.0  0.24608  0.90254  0.93897  1.0000
  C   C997      1.0  0.19293  0.85086  0.79727  1.0000
  C   C998      1.0  0.23912  0.63316  0.84557  1.0000
  H   H784      1.0  0.28505  0.90805  0.79464  1.0000
  C   C999      1.0  0.25830  0.60852  0.81032  1.0000
  C   C1000     1.0  0.25253  0.88623  0.80943  1.0000
  C   C1001     1.0  0.10869  0.95487  0.91483  1.0000
  H   H785      1.0  0.45407  0.70538  0.79248  1.0000
  C   C1002     1.0  0.28848  0.84673  0.81912  1.0000
  H   H786      1.0  0.20882  0.76501  0.85165  1.0000
  H   H787      1.0  0.19453  0.77319  0.89700  1.0000
  H   H788      1.0  0.18601  0.81801  0.91160  1.0000
  H   H789      1.0  0.19217  0.85482  0.88193  1.0000
  H   H790      1.0  0.25628  0.94533  0.95818  1.0000
  C   C1003     1.0  0.22293  0.67538  0.89980  1.0000
  C   C1004     1.0  0.19031  0.94877  0.96062  1.0000
  H   H791      1.0  0.45332  0.67902  0.87950  1.0000
  C   C1005     1.0  0.18483  0.92487  0.94885  1.0000
  C   C1006     1.0  0.28932  0.86491  0.92131  1.0000
  H   H792      1.0  0.01590  0.77172  0.86824  1.0000
  C   C1007     1.0  0.24402  0.86261  0.82021  1.0000
  C   C1008     1.0  0.02176  0.83959  0.94242  1.0000
  H   H793      1.0  0.14412  0.99841  0.88001  1.0000
  C   C1009     1.0  0.24900  0.84427  0.93319  1.0000
  C   C1010     1.0  0.26582  0.85369  0.91411  1.0000
  C   C1011     1.0  0.28434  0.66426  0.89960  1.0000
  C   C1012     1.0  0.30333  0.67021  0.88093  1.0000
  C   C1013     1.0  0.32016  0.69110  0.88480  1.0000
  C   C1014     1.0  0.31834  0.70592  0.90741  1.0000
  C   C1015     1.0  0.29956  0.70012  0.92605  1.0000
  C   C1016     1.0  0.28256  0.67946  0.92216  1.0000
  H   H794      1.0  0.24271  0.83736  0.97362  1.0000
  H   H795      1.0  0.45993  0.80276  0.90369  1.0000
  H   H796      1.0  0.21783  0.61324  0.92248  1.0000
  H   H797      1.0  0.04717  0.56081  0.76503  1.0000
  H   H798      1.0  0.14267  0.97222  0.80985  1.0000
  H   H799      1.0  0.29552  0.59137  0.81815  1.0000
  H   H800      1.0  0.30548  0.65873  0.86352  1.0000
  H   H801      1.0  0.33506  0.69542  0.87054  1.0000
  H   H802      1.0  0.33151  0.72188  0.91064  1.0000
  H   H803      1.0  0.29820  0.71175  0.94352  1.0000
  H   H804      1.0  0.30307  0.59418  0.97007  1.0000
  C   C1017     1.0  0.17605  0.93097  0.86589  1.0000
  C   C1018     1.0  0.17189  0.89585  0.83508  1.0000
  C   C1019     1.0  0.16160  0.91781  0.84724  1.0000
  H   H805      1.0  0.32503  0.51285  0.76067  1.0000
  C   C1020     1.0  0.46822  0.71759  0.80195  1.0000
  H   H806      1.0  0.26084  0.85180  0.89378  1.0000
  H   H807      1.0  0.47232  0.56139  0.93125  1.0000
  C   C1021     1.0  0.40588  0.61458  0.95425  1.0000
  C   C1022     1.0  0.39757  0.64058  0.95402  1.0000
  P   P35       1.0  0.43525  0.60488  0.93763  1.0000
  H   H808      1.0  0.30250  0.83151  0.82308  1.0000
  C   C1023     1.0  0.42830  0.58595  0.90891  1.0000
  C   C1024     1.0  0.44754  0.58254  0.88983  1.0000
  S   S144      1.0  0.46185  0.80755  0.75082  1.0000
  C   C1025     1.0  0.39893  0.56008  0.88289  1.0000
  C   C1026     1.0  0.40383  0.57478  0.90510  1.0000
  C   C1027     1.0  0.23631  0.93955  0.95570  1.0000
  H   H809      1.0  0.15997  0.88541  0.82135  1.0000
  H   H810      1.0  0.21709  0.87504  0.77256  1.0000
  C   C1028     1.0  0.45279  0.63358  0.92780  1.0000
  C   C1029     1.0  0.47194  0.64430  0.94383  1.0000
  H   H811      1.0  0.28731  0.55047  0.95809  1.0000
  C   C1030     1.0  0.03925  0.99624  0.75617  1.0000
  C   C1031     1.0  0.45888  0.66912  0.89726  1.0000
  C   C1032     1.0  0.44631  0.64622  0.90449  1.0000
  Fe  Fe71      1.0  0.35031  0.50595  0.83807  1.0000
  C   C1033     1.0  0.00913  0.57543  0.75627  1.0000
  H   H812      1.0  0.31692  0.87292  0.80310  1.0000
  H   H813      1.0  0.48568  0.73052  0.76610  1.0000
  H   H814      1.0  0.40832  0.65536  0.94365  1.0000
  H   H815      1.0  0.01662  0.98062  0.81605  1.0000
  H   H816      1.0  0.37985  0.55198  0.87983  1.0000
  H   H817      1.0  0.38815  0.57775  0.91873  1.0000
  H   H818      1.0  0.29270  0.63204  0.94280  1.0000
  H   H819      1.0  0.44261  0.60851  0.99371  1.0000
  C   C1034     1.0  0.15193  0.98703  0.91954  1.0000
  H   H820      1.0  0.21205  0.93260  0.88678  1.0000
  C   C1035     1.0  0.01597  0.76322  0.94461  1.0000
  H   H821      1.0  0.08942  0.86994  0.95290  1.0000
  H   H822      1.0  0.43105  0.63881  0.89216  1.0000
  H   H823      1.0  0.25725  0.60058  0.79086  1.0000
  C   C1036     1.0  0.37028  0.58413  0.78424  1.0000
  C   C1037     1.0  0.12235  0.95560  0.93821  1.0000
  C   C1038     1.0  0.48791  0.55381  0.96901  1.0000
  H   H824      1.0  0.21517  0.80172  0.82123  1.0000
  C   C1039     1.0  0.44254  0.56777  0.86766  1.0000
  H   H825      1.0  0.23589  0.68828  0.88937  1.0000
  C   C1040     1.0  0.25569  0.84578  0.95945  1.0000
  C   C1041     1.0  0.21147  0.90072  0.85981  1.0000
  H   H826      1.0  0.45736  0.56530  0.85293  1.0000
  H   H827      1.0  0.25667  0.82472  0.83395  1.0000
  H   H828      1.0  0.26127  0.54467  0.91820  1.0000
  H   H829      1.0  0.36816  0.66779  0.96606  1.0000
  H   H830      1.0  0.23064  0.89406  0.86520  1.0000
  C   C1042     1.0  0.14389  0.97199  0.94089  1.0000
  C   C1043     1.0  0.01782  0.54172  0.78793  1.0000
  C   C1044     1.0  0.37472  0.64777  0.96679  1.0000
  C   C1045     1.0  0.02768  0.82051  0.82530  1.0000
  H   H831      1.0  0.22300  0.64442  0.85287  1.0000
  H   H832      1.0  0.45436  0.70873  0.84041  1.0000
  H   H833      1.0  0.16500  0.91895  0.94582  1.0000
  C   C1046     1.0  0.23058  0.91550  0.94473  1.0000
  H   H834      1.0  0.14210  0.92412  0.84268  1.0000
  C   C1047     1.0  0.39072  0.56641  0.78217  1.0000
  C   C1048     1.0  0.35356  0.82227  0.78198  1.0000
  H   H835      1.0  0.03477  0.75884  0.95256  1.0000
  C   C1049     1.0  0.28110  0.61284  0.85107  1.0000
  H   H836      1.0  0.11658  0.94260  0.95377  1.0000
  C   C1050     1.0  0.20483  0.90829  0.94106  1.0000
  H   H837      1.0  0.37096  0.59943  0.79860  1.0000
  C   C1051     1.0  0.03328  0.98043  0.77760  1.0000
  C   C1052     1.0  0.21631  0.95623  0.96343  1.0000
  C   C1053     1.0  0.23018  0.64955  0.90494  1.0000
  H   H838      1.0  0.32033  0.81996  0.97344  1.0000
  H   H839      1.0  0.19383  0.70501  0.90492  1.0000
  H   H840      1.0  0.22123  0.62754  0.80817  1.0000
  C   C1054     1.0  0.19905  0.68491  0.90847  1.0000
  C   C1055     1.0  0.35996  0.62909  0.97982  1.0000
  H   H841      1.0  0.16318  0.82754  0.81600  1.0000
  C   C1056     1.0  0.23800  0.62361  0.82016  1.0000
  H   H842      1.0  0.04748  0.85610  0.83411  1.0000
  H   H843      1.0  0.35654  0.58866  0.99008  1.0000
  C   C1057     1.0  0.26063  0.62759  0.86133  1.0000
  C   C1058     1.0  0.26171  0.58533  0.90804  1.0000
  C   C1059     1.0  0.18208  0.66865  0.92203  1.0000
  C   C1060     1.0  0.20069  0.86216  0.77359  1.0000
  H   H844      1.0  0.46638  0.59143  0.89202  1.0000
  H   H845      1.0  0.16779  0.94749  0.87577  1.0000
  C   C1061     1.0  0.14448  0.95681  0.99588  1.0000
  C   C1062     1.0  0.34179  0.82124  0.75755  1.0000
  C   C1063     1.0  0.21289  0.63325  0.91835  1.0000
  C   C1064     1.0  0.29128  0.59179  0.95293  1.0000
  H   H846      1.0  0.23107  0.83499  0.92769  1.0000
  H   H847      1.0  0.17580  0.63020  0.93739  1.0000
  H   H848      1.0  0.29782  0.60836  0.86282  1.0000
  H   H849      1.0  0.25037  0.58237  0.89065  1.0000
  C   C1065     1.0  0.18895  0.64281  0.92685  1.0000
  C   C1066     1.0  0.27041  0.61024  0.91476  1.0000
  C   C1067     1.0  0.37378  0.83965  0.78643  1.0000
  C   C1068     1.0  0.47170  0.56681  0.95149  1.0000
  H   H850      1.0  0.29945  0.77131  0.99633  1.0000
  C   C1069     1.0  0.02440  0.86172  0.95779  1.0000
  C   C1070     1.0  0.07929  0.97577  0.82739  1.0000
  H   H851      1.0  0.03143  0.52910  0.79786  1.0000
  H   H852      1.0  0.30264  0.87179  0.90652  1.0000
  H   H853      1.0  0.10242  0.94593  0.80968  1.0000
  H   H854      1.0  0.27803  0.50518  0.98727  1.0000
  H   H855      1.0  0.47541  0.78780  0.86096  1.0000
  H   H856      1.0  0.06174  0.96429  0.82685  1.0000
  C   C1071     1.0  0.48441  0.66726  0.93653  1.0000
  C   C1072     1.0  0.27867  0.88986  0.80318  1.0000
  C   C1073     1.0  0.46840  0.71952  0.82900  1.0000
  H   H857      1.0  0.05096  0.88958  0.97374  1.0000
  C   C1074     1.0  0.27927  0.85694  0.96691  1.0000
  C   C1075     1.0  0.48604  0.73171  0.78711  1.0000
  H   H858      1.0  0.23889  0.90182  0.80563  1.0000
  C   C1076     1.0  0.45514  0.58666  0.96017  1.0000
  H   H859      1.0  0.44487  0.67906  0.99141  1.0000
  H   H860      1.0  0.10599  0.96944  0.87577  1.0000
  C   C1077     1.0  0.02157  0.99240  0.79935  1.0000
  H   H861      1.0  0.48692  0.69791  0.90801  1.0000
  C   C1078     1.0  0.48904  0.78930  0.87685  1.0000
  H   H862      1.0  0.28942  0.95459  0.99615  1.0000
  H   H863      1.0  0.49529  0.80099  0.80468  1.0000
  C   C1079     1.0  0.02224  0.79050  0.86119  1.0000
  C   C1080     1.0  0.35893  0.82373  0.98805  1.0000
  H   H864      1.0  0.15962  0.91748  0.99375  1.0000
  C   C1081     1.0  0.45502  0.59315  0.98664  1.0000
  H   H865      1.0  0.33214  0.59456  0.77065  1.0000
  H   H866      1.0  0.40564  0.53284  0.76281  1.0000
  C   C1082     1.0  0.34849  0.58150  0.76845  1.0000
  C   C1083     1.0  0.38968  0.54641  0.76389  1.0000
  H   H867      1.0  0.00974  0.78306  0.82197  1.0000
  H   H868      1.0  0.36645  0.80824  0.97592  1.0000
  S   S145      1.0  0.12510  0.84902  0.99561  1.0000
  C   C1084     1.0  0.28861  0.91272  0.99793  1.0000
  H   H869      1.0  0.00269  0.83137  0.93999  1.0000
  H   H870      1.0  0.47699  0.63542  0.96218  1.0000
  C   C1085     1.0  0.33273  0.83047  0.98666  1.0000
  H   H871      1.0  0.05372  0.81847  0.99017  1.0000
  H   H872      1.0  0.00552  0.81915  0.99324  1.0000
  H   H873      1.0  0.25236  0.78175  0.99381  1.0000
  C   C1086     1.0  0.18681  0.85732  0.75084  1.0000
  H   H874      1.0  0.32635  0.80746  0.75435  1.0000
  H   H875      1.0  0.40890  0.50204  0.96050  1.0000
  H   H876      1.0  0.38017  0.49991  0.92197  1.0000
  C   C1087     1.0  0.48777  0.56055  0.99528  1.0000
  C   C1088     1.0  0.34738  0.56154  0.75020  1.0000
  H   H877      1.0  0.56141  0.42482  0.06365  1.0000
  H   H878      1.0  0.55941  0.28678  0.16934  1.0000
  H   H879      1.0  0.57744  0.28303  0.12492  1.0000
  H   H880      1.0  0.69389  0.13997  0.05025  1.0000
  C   C1089     1.0  0.94599  0.11718  0.05597  1.0000
  S   S146      1.0  0.95146  0.06713  0.23165  1.0000
  H   H881      1.0  0.76226  0.12430  0.09969  1.0000
  C   C1090     1.0  0.88888  0.00267  0.07192  1.0000
  S   S147      1.0  0.79928  0.03169  0.06920  1.0000
  H   H882      1.0  0.52412  0.25748  0.18369  1.0000
  C   C1091     1.0  0.57519  0.39374  0.20326  1.0000
  S   S148      1.0  0.81946  0.02356  0.14400  1.0000
  H   H883      1.0  0.53715  0.18399  0.14755  1.0000
  S   S149      1.0  0.51143  0.32377  0.18521  1.0000
  S   S150      1.0  0.53804  0.32891  0.11487  1.0000
  H   H884      1.0  0.87687  0.00279  0.22727  1.0000
  C   C1092     1.0  0.71489  0.17700  0.99936  1.0000
  C   C1093     1.0  0.97936  0.14806  0.04403  1.0000
  C   C1094     1.0  0.52594  0.46349  0.22438  1.0000
  H   H885      1.0  0.52607  0.42617  0.24384  1.0000
  C   C1095     1.0  0.57744  0.17003  0.06265  1.0000
  H   H886      1.0  0.66810  0.17952  0.05839  1.0000
  C   C1096     1.0  0.92949  0.15924  0.16151  1.0000
  S   S151      1.0  0.77203  0.00211  0.20328  1.0000
  C   C1097     1.0  0.53233  0.25549  0.16440  1.0000
  H   H887      1.0  0.83128  0.07637  0.08068  1.0000
  H   H888      1.0  0.85046  0.11771  0.06504  1.0000
  C   C1098     1.0  0.79464  0.05435  0.01993  1.0000
  C   C1099     1.0  0.79038  0.03181  0.03513  1.0000
  H   H889      1.0  0.60253  0.38532  0.12517  1.0000
  H   H890      1.0  0.66113  0.02007  0.23106  1.0000
  H   H891      1.0  0.57788  0.38692  0.22301  1.0000
  H   H892      1.0  0.80328  0.07113  0.02894  1.0000
  C   C1100     1.0  0.54466  0.20081  0.07710  1.0000
  C   C1101     1.0  0.90245  0.09360  0.09818  1.0000
  C   C1102     1.0  0.90940  0.02028  0.16860  1.0000
  C   C1103     1.0  0.89541  0.03307  0.18802  1.0000
  C   C1104     1.0  0.90855  0.04745  0.20712  1.0000
  C   C1105     1.0  0.93567  0.04988  0.20652  1.0000
  C   C1106     1.0  0.94955  0.03782  0.18655  1.0000
  C   C1107     1.0  0.93647  0.02291  0.16785  1.0000
  H   H893      1.0  0.87452  0.03153  0.18862  1.0000
  H   H894      1.0  0.97041  0.03946  0.18591  1.0000
  H   H895      1.0  0.51933  0.14691  0.17230  1.0000
  C   C1108     1.0  0.54064  0.28661  0.03659  1.0000
  C   C1109     1.0  0.56253  0.29939  0.04599  1.0000
  C   C1110     1.0  0.56140  0.31247  0.06993  1.0000
  C   C1111     1.0  0.53855  0.31247  0.08483  1.0000
  C   C1112     1.0  0.51673  0.29956  0.07550  1.0000
  C   C1113     1.0  0.51775  0.28685  0.05138  1.0000
  H   H896      1.0  0.58030  0.29925  0.03481  1.0000
  H   H897      1.0  0.57836  0.32243  0.07704  1.0000
  C   C1114     1.0  0.59192  0.49660  0.10215  1.0000
  C   C1115     1.0  0.55288  0.25108  0.11432  1.0000
  Fe  Fe72      1.0  0.80482  0.00578  0.10633  1.0000
  C   C1116     1.0  0.55231  0.27189  0.15641  1.0000
  H   H898      1.0  0.54101  0.23518  0.05312  1.0000
  C   C1117     1.0  0.52014  0.17414  0.14032  1.0000
  H   H899      1.0  0.85673  0.10262  0.24310  1.0000
  C   C1118     1.0  0.50768  0.18284  0.11765  1.0000
  H   H900      1.0  0.58775  0.15187  0.06522  1.0000
  C   C1119     1.0  0.56259  0.26965  0.13141  1.0000
  H   H901      1.0  0.53311  0.38275  0.09541  1.0000
  C   C1120     1.0  0.74784  0.12485  0.06041  1.0000
  C   C1121     1.0  0.98594  0.15073  0.07018  1.0000
  C   C1122     1.0  0.98617  0.02874  0.11522  1.0000
  H   H902      1.0  0.89545  0.12911  0.07661  1.0000
  S   S152      1.0  0.99045  0.12800  0.21179  1.0000
  C   C1123     1.0  0.75520  0.11279  0.08366  1.0000
  C   C1124     1.0  0.55704  0.35677  0.00226  1.0000
  H   H903      1.0  0.90181  0.05769  0.12043  1.0000
  C   C1125     1.0  0.95953  0.13112  0.03691  1.0000
  C   C1126     1.0  0.92707  0.14521  0.18467  1.0000
  C   C1127     1.0  0.52767  0.42116  0.11172  1.0000
  H   H904      1.0  0.62694  0.36036  0.09256  1.0000
  P   P36       1.0  0.56136  0.42510  0.12040  1.0000
  C   C1128     1.0  0.56693  0.41230  0.15262  1.0000
  C   C1129     1.0  0.58056  0.40750  0.09682  1.0000
  C   C1130     1.0  0.57600  0.41114  0.07015  1.0000
  C   C1131     1.0  0.59003  0.39693  0.05175  1.0000
  H   H905      1.0  0.56070  0.25042  0.09485  1.0000
  H   H906      1.0  0.60693  0.42067  0.20457  1.0000
  C   C1132     1.0  0.60848  0.37873  0.05982  1.0000
  H   H907      1.0  0.61922  0.36751  0.04558  1.0000
  C   C1133     1.0  0.85109  0.08126  0.08560  1.0000
  C   C1134     1.0  0.61293  0.37478  0.08631  1.0000
  C   C1135     1.0  0.83030  0.07813  0.22222  1.0000
  C   C1136     1.0  0.88749  0.11078  0.08315  1.0000
  C   C1137     1.0  0.70022  0.19933  0.00419  1.0000
  H   H908      1.0  0.60028  0.43667  0.15991  1.0000
  C   C1138     1.0  0.51035  0.15294  0.15424  1.0000
  H   H909      1.0  0.86250  0.03063  0.05520  1.0000
  C   C1139     1.0  0.55098  0.39281  0.16299  1.0000
  P   P37       1.0  0.93521  0.10174  0.10697  1.0000
  H   H910      1.0  0.93567  0.05187  0.07982  1.0000
  H   H911      1.0  0.75975  0.07630  0.10398  1.0000
  C   C1140     1.0  0.58748  0.42189  0.16760  1.0000
  H   H912      1.0  0.53517  0.38480  0.15186  1.0000
  C   C1141     1.0  0.95471  0.07294  0.11062  1.0000
  C   C1142     1.0  0.68145  0.17890  0.04215  1.0000
  H   H913      1.0  0.92877  0.08399  0.16057  1.0000
  H   H914      1.0  0.93333  0.15739  0.12010  1.0000
  H   H915      1.0  0.67372  0.12133  0.00417  1.0000
  H   H916      1.0  0.92967  0.18026  0.16191  1.0000
  C   C1143     1.0  0.56207  0.47470  0.14187  1.0000
  H   H917      1.0  0.92467  0.10725  0.20213  1.0000
  H   H918      1.0  0.89780  0.01643  0.08496  1.0000
  H   H919      1.0  0.55385  0.16457  0.09660  1.0000
  H   H920      1.0  0.54250  0.36906  0.19645  1.0000
  C   C1144     1.0  0.96630  0.02936  0.09686  1.0000
  C   C1145     1.0  0.97263  0.13662  0.08924  1.0000
  C   C1146     1.0  0.71320  0.15546  0.01612  1.0000
  C   C1147     1.0  0.51948  0.39823  0.09959  1.0000
  H   H921      1.0  0.85717  0.04654  0.10824  1.0000
  C   C1148     1.0  0.97498  0.07233  0.12864  1.0000
  C   C1149     1.0  0.59905  0.38908  0.10478  1.0000
  C   C1150     1.0  0.59144  0.41277  0.19289  1.0000
  C   C1151     1.0  0.93268  0.11892  0.13735  1.0000
  H   H922      1.0  0.73129  0.07072  0.02628  1.0000
  H   H923      1.0  0.93102  0.10380  0.05007  1.0000
  H   H924      1.0  0.97879  0.08885  0.14098  1.0000
  C   C1152     1.0  0.74464  0.07092  0.06551  1.0000
  C   C1153     1.0  0.73892  0.10995  0.03947  1.0000
  H   H925      1.0  0.92562  0.15528  0.20306  1.0000
  H   H926      1.0  0.95474  0.12878  0.01658  1.0000
  C   C1154     1.0  0.50915  0.44008  0.11824  1.0000
  H   H927      1.0  0.82455  0.09321  0.20866  1.0000
  C   C1155     1.0  0.89111  0.07071  0.10774  1.0000
  C   C1156     1.0  0.86565  0.06445  0.10118  1.0000
  C   C1157     1.0  0.95199  0.12036  0.08236  1.0000
  C   C1158     1.0  0.58492  0.47039  0.10094  1.0000
  C   C1159     1.0  0.68342  0.20024  0.02545  1.0000
  C   C1160     1.0  0.51648  0.47813  0.20345  1.0000
  C   C1161     1.0  0.56978  0.45923  0.12076  1.0000
  H   H928      1.0  0.98986  0.15894  0.02932  1.0000
  C   C1162     1.0  0.92925  0.10500  0.16059  1.0000
  C   C1163     1.0  0.58346  0.18618  0.04157  1.0000
  C   C1164     1.0  0.55519  0.38362  0.18823  1.0000
  C   C1165     1.0  0.55097  0.21690  0.05595  1.0000
  C   C1166     1.0  0.81959  0.05335  0.22029  1.0000
  H   H929      1.0  0.55086  0.46653  0.15775  1.0000
  C   C1167     1.0  0.95077  0.05151  0.09435  1.0000
  H   H930      1.0  0.59838  0.18064  0.02775  1.0000
  C   C1168     1.0  0.99061  0.05031  0.13094  1.0000
  C   C1169     1.0  0.53289  0.23435  0.12222  1.0000
  H   H931      1.0  0.50657  0.22491  0.15383  1.0000
  C   C1170     1.0  0.75366  0.08581  0.08617  1.0000
  C   C1171     1.0  0.92665  0.11812  0.18417  1.0000
  C   C1172     1.0  0.73748  0.08286  0.04217  1.0000
  H   H932      1.0  0.74942  0.14575  0.05862  1.0000
  C   C1173     1.0  0.55814  0.17730  0.08039  1.0000
  P   P38       1.0  0.51984  0.21067  0.09995  1.0000
  H   H933      1.0  0.58645  0.39980  0.03121  1.0000
  H   H934      1.0  0.74388  0.04996  0.06734  1.0000
  C   C1174     1.0  0.50376  0.42425  0.20860  1.0000
  H   H935      1.0  0.67146  0.21730  0.02855  1.0000
  S   S153      1.0  0.54127  0.26965  0.00680  1.0000
  H   H936      1.0  0.97861  0.13837  0.10933  1.0000
  S   S154      1.0  0.89410  0.00028  0.14530  1.0000
  C   C1175     1.0  0.93190  0.14617  0.13786  1.0000
  C   C1176     1.0  0.86195  0.10449  0.07672  1.0000
  C   C1177     1.0  0.69620  0.15657  0.03749  1.0000
  H   H937      1.0  0.59175  0.45897  0.08477  1.0000
  H   H938      1.0  0.89768  0.05680  0.22242  1.0000
  H   H939      1.0  0.57476  0.22221  0.02194  1.0000
  H   H940      1.0  0.51467  0.45758  0.12824  1.0000
  H   H941      1.0  0.80542  0.04919  0.20537  1.0000
  H   H942      1.0  0.49906  0.29942  0.08683  1.0000
  Fe  Fe73      1.0  0.50366  0.32570  0.14228  1.0000
  C   C1178     1.0  0.50099  0.46541  0.18491  1.0000
  C   C1179     1.0  0.86903  0.01062  0.05527  1.0000
  H   H943      1.0  0.54957  0.34669  0.01924  1.0000
  H   H944      1.0  0.73791  0.02031  0.24267  1.0000
  C   C1180     1.0  0.78430  0.12966  0.00259  1.0000
  C   C1181     1.0  0.52251  0.23692  0.14738  1.0000
  C   C1182     1.0  0.57020  0.20961  0.03826  1.0000
  P   P39       1.0  0.73045  0.12562  0.00917  1.0000
  H   H945      1.0  0.78630  0.12349  0.02257  1.0000
  H   H946      1.0  0.96283  0.01265  0.08470  1.0000
  C   C1183     1.0  0.51929  0.43693  0.22710  1.0000
  H   H947      1.0  0.84068  0.99901  0.02738  1.0000
  H   H948      1.0  0.94742  0.01311  0.15289  1.0000
  C   C1184     1.0  0.77878  0.01055  0.02291  1.0000
  H   H949      1.0  0.81861  0.01467  0.23578  1.0000
  C   C1185     1.0  0.82711  0.03377  0.23759  1.0000
  C   C1186     1.0  0.84836  0.08342  0.24164  1.0000
  S   S155      1.0  0.61788  0.26218  0.99958  1.0000
  H   H950      1.0  0.50077  0.27703  0.04421  1.0000
  H   H951      1.0  0.53774  0.47280  0.23892  1.0000
  C   C1187     1.0  0.64661  0.00995  0.24247  1.0000
  H   H952      1.0  0.59605  0.34272  0.00752  1.0000
  Fe  Fe74      1.0  0.99069  0.08673  0.22606  1.0000
  H   H953      1.0  0.49943  0.20627  0.04657  1.0000
  H   H954      1.0  0.52406  0.11782  0.48535  1.0000
  H   H955      1.0  0.99231  0.24365  0.44906  1.0000
  H   H956      1.0  0.78944  0.25220  0.46186  1.0000
  H   H957      1.0  0.95375  0.04561  0.31719  1.0000
  S   S156      1.0  0.90755  0.27929  0.47732  1.0000
  P   P40       1.0  0.85566  0.01309  0.27864  1.0000
  S   S157      1.0  0.82951  0.37174  0.43147  1.0000
  S   S158      1.0  0.83535  0.30719  0.47030  1.0000
  C   C1188     1.0  0.75876  0.13853  0.45958  1.0000
  C   C1189     1.0  0.98231  0.26100  0.45528  1.0000
  C   C1190     1.0  0.95544  0.26000  0.46114  1.0000
  C   C1191     1.0  0.94170  0.28209  0.46979  1.0000
  C   C1192     1.0  0.95556  0.30530  0.47247  1.0000
  C   C1193     1.0  0.73068  0.45871  0.47243  1.0000
  C   C1194     1.0  0.81107  0.21227  0.48995  1.0000
  H   H958      1.0  0.94522  0.24185  0.45899  1.0000
  H   H959      1.0  0.74414  0.47083  0.46159  1.0000
  H   H960      1.0  0.51047  0.04095  0.32756  1.0000
  H   H961      1.0  0.69860  0.27869  0.48241  1.0000
  H   H962      1.0  0.93625  0.29649  0.32985  1.0000
  H   H963      1.0  0.90890  0.01089  0.25711  1.0000
  C   C1195     1.0  0.79491  0.45361  0.41994  1.0000
  C   C1196     1.0  0.79844  0.44360  0.44516  1.0000
  C   C1197     1.0  0.80888  0.41854  0.44913  1.0000
  C   C1198     1.0  0.81602  0.40330  0.42783  1.0000
  C   C1199     1.0  0.81258  0.41339  0.40265  1.0000
  C   C1200     1.0  0.80217  0.43842  0.39870  1.0000
  H   H964      1.0  0.79338  0.45543  0.46172  1.0000
  H   H965      1.0  0.81157  0.41108  0.46862  1.0000
  H   H966      1.0  0.81817  0.40183  0.38604  1.0000
  H   H967      1.0  0.79975  0.44590  0.37919  1.0000
  C   C1201     1.0  0.56821  0.18555  0.49064  1.0000
  H   H968      1.0  0.97296  0.22237  0.33992  1.0000
  P   P41       1.0  0.98009  0.27558  0.36049  1.0000
  H   H969      1.0  0.52621  0.00610  0.35703  1.0000
  C   C1202     1.0  0.95207  0.28457  0.37959  1.0000
  C   C1203     1.0  0.94463  0.31078  0.38133  1.0000
  C   C1204     1.0  0.92349  0.31802  0.39675  1.0000
  C   C1205     1.0  0.90959  0.29919  0.41045  1.0000
  C   C1206     1.0  0.91667  0.27307  0.40859  1.0000
  C   C1207     1.0  0.93785  0.26573  0.39325  1.0000
  Fe  Fe75      1.0  0.83865  0.35095  0.46954  1.0000
  C   C1208     1.0  0.74823  0.00402  0.25106  1.0000
  C   C1209     1.0  0.68933  0.34818  0.49195  1.0000
  H   H970      1.0  0.72593  0.39592  0.44363  1.0000
  C   C1210     1.0  0.95991  0.27242  0.27323  1.0000
  H   H971      1.0  0.86446  0.18407  0.46261  1.0000
  H   H972      1.0  0.50591  0.18623  0.31446  1.0000
  C   C1211     1.0  0.97208  0.27468  0.32632  1.0000
  H   H973      1.0  0.81807  0.17580  0.47015  1.0000
  H   H974      1.0  0.60992  0.01756  0.29682  1.0000
  C   C1212     1.0  0.53385  0.00758  0.33748  1.0000
  H   H975      1.0  0.75595  0.13183  0.43986  1.0000
  H   H976      1.0  0.95539  0.32566  0.37105  1.0000
  H   H977      1.0  0.91807  0.33829  0.39844  1.0000
  H   H978      1.0  0.89362  0.30486  0.42297  1.0000
  H   H979      1.0  0.90622  0.25865  0.41981  1.0000
  H   H980      1.0  0.94330  0.24545  0.39256  1.0000
  C   C1213     1.0  0.78988  0.01585  0.32335  1.0000
  H   H981      1.0  0.91424  0.05097  0.34424  1.0000
  H   H982      1.0  0.87002  0.06840  0.27382  1.0000
  C   C1214     1.0  0.55292  0.01116  0.28671  1.0000
  C   C1215     1.0  0.53467  0.02915  0.29566  1.0000
  C   C1216     1.0  0.63643  0.02139  0.26485  1.0000
  H   H983      1.0  0.69699  0.23061  0.44791  1.0000
  H   H984      1.0  0.64305  0.04040  0.27079  1.0000
  C   C1217     1.0  0.69399  0.48794  0.38241  1.0000
  H   H985      1.0  0.76278  0.33838  0.49254  1.0000
  C   C1218     1.0  0.76940  0.24699  0.45904  1.0000
  C   C1219     1.0  0.64236  0.49576  0.34558  1.0000
  C   C1220     1.0  0.85858  0.48992  0.43696  1.0000
  C   C1221     1.0  0.62098  0.49009  0.46020  1.0000
  C   C1222     1.0  0.84557  0.03879  0.25689  1.0000
  H   H986      1.0  0.69630  0.49608  0.34119  1.0000
  H   H987      1.0  0.73004  0.46340  0.33259  1.0000
  H   H988      1.0  0.65198  0.47724  0.34797  1.0000
  H   H989      1.0  0.94558  0.32258  0.47898  1.0000
  C   C1223     1.0  0.73761  0.43326  0.47895  1.0000
  C   C1224     1.0  0.94943  0.28653  0.31690  1.0000
  C   C1225     1.0  0.52509  0.02733  0.32099  1.0000
  C   C1226     1.0  0.98880  0.26214  0.30879  1.0000
  C   C1227     1.0  0.77061  0.33595  0.45180  1.0000
  H   H990      1.0  0.73367  0.44505  0.41389  1.0000
  H   H991      1.0  0.72256  0.20477  0.47903  1.0000
  C   C1228     1.0  0.75920  0.34709  0.47373  1.0000
  H   H992      1.0  0.87307  0.43236  0.46621  1.0000
  C   C1229     1.0  0.70642  0.46840  0.47964  1.0000
  C   C1230     1.0  0.68908  0.45259  0.49331  1.0000
  H   H993      1.0  0.78301  0.31914  0.45391  1.0000
  C   C1231     1.0  0.93351  0.02730  0.28578  1.0000
  S   S159      1.0  0.78072  0.48478  0.41582  1.0000
  C   C1232     1.0  0.73868  0.37946  0.44636  1.0000
  C   C1233     1.0  0.98260  0.26078  0.28242  1.0000
  C   C1234     1.0  0.87176  0.45320  0.46336  1.0000
  H   H994      1.0  0.95065  0.02575  0.27364  1.0000
  C   C1235     1.0  0.85587  0.06389  0.25906  1.0000
  C   C1236     1.0  0.88004  0.47015  0.48275  1.0000
  C   C1237     1.0  0.74371  0.36939  0.47129  1.0000
  C   C1238     1.0  0.75796  0.22658  0.47317  1.0000
  C   C1239     1.0  0.80766  0.01970  0.30318  1.0000
  C   C1240     1.0  0.93522  0.03869  0.31025  1.0000
  H   H995      1.0  0.92583  0.29445  0.28330  1.0000
  H   H996      1.0  0.74900  0.43791  0.36892  1.0000
  H   H997      1.0  0.77662  0.33901  0.41050  1.0000
  H   H998      1.0  0.99222  0.18039  0.35230  1.0000
  C   C1241     1.0  0.70345  0.48431  0.35712  1.0000
  H   H999      1.0  0.99521  0.30481  0.40671  1.0000
  H   H1000     1.0  0.87185  0.03697  0.32776  1.0000
  H   H1001     1.0  0.75634  0.42588  0.47299  1.0000
  H   H1002     1.0  0.69655  0.34603  0.47233  1.0000
  S   S160      1.0  0.78642  0.48955  0.33709  1.0000
  H   H1003     1.0  0.74511  0.29070  0.48541  1.0000
  C   C1242     1.0  0.72036  0.41719  0.49268  1.0000
  H   H1004     1.0  0.69932  0.47724  0.42278  1.0000
  C   C1243     1.0  0.99625  0.28412  0.45823  1.0000
  C   C1244     1.0  0.72458  0.45545  0.39799  1.0000
  H   H1005     1.0  0.76382  0.27696  0.43025  1.0000
  H   H1006     1.0  0.62271  0.45121  0.44500  1.0000
  H   H1007     1.0  0.99530  0.25048  0.26915  1.0000
  C   C1245     1.0  0.72883  0.25527  0.43693  1.0000
  C   C1246     1.0  0.75490  0.26116  0.44093  1.0000
  H   H1008     1.0  0.62250  0.48348  0.31097  1.0000
  H   H1009     1.0  0.72764  0.00644  0.28749  1.0000
  C   C1247     1.0  0.87793  0.49704  0.47913  1.0000
  C   C1248     1.0  0.59444  0.17955  0.49353  1.0000
  C   C1249     1.0  0.86108  0.46312  0.44048  1.0000
  C   C1250     1.0  0.94341  0.28539  0.29044  1.0000
  C   C1251     1.0  0.50565  0.12428  0.49316  1.0000
  C   C1252     1.0  0.98252  0.30619  0.46699  1.0000
  C   C1253     1.0  0.73338  0.45150  0.37264  1.0000
  C   C1254     1.0  0.76503  0.16450  0.46420  1.0000
  H   H1010     1.0  0.71751  0.26656  0.42321  1.0000
  C   C1255     1.0  0.98536  0.22145  0.35679  1.0000
  H   H1011     1.0  0.85410  0.44997  0.42569  1.0000
  C   C1256     1.0  0.76671  0.34694  0.42728  1.0000
  Fe  Fe76      1.0  0.87476  0.30784  0.48981  1.0000
  H   H1012     1.0  0.74768  0.37714  0.40550  1.0000
  C   C1257     1.0  0.72276  0.46589  0.35221  1.0000
  C   C1258     1.0  0.75057  0.36857  0.42453  1.0000
  H   H1013     1.0  0.69227  0.01081  0.48813  1.0000
  C   C1259     1.0  0.86403  0.22134  0.48127  1.0000
  C   C1260     1.0  0.88707  0.02166  0.29158  1.0000
  C   C1261     1.0  0.71729  0.23500  0.45081  1.0000
  H   H1014     1.0  0.56230  0.20145  0.47809  1.0000
  S   S161      1.0  0.87858  0.35114  0.48700  1.0000
  C   C1262     1.0  0.64351  0.47819  0.42065  1.0000
  H   H1015     1.0  0.76713  0.17769  0.44787  1.0000
  H   H1016     1.0  0.60889  0.19068  0.48305  1.0000
  H   H1017     1.0  0.60919  0.48472  0.47682  1.0000
  C   C1263     1.0  0.73180  0.22060  0.46871  1.0000
  C   C1264     1.0  0.91295  0.04174  0.32542  1.0000
  H   H1018     1.0  0.64891  0.46343  0.40669  1.0000
  C   C1265     1.0  0.62861  0.47122  0.44230  1.0000
  H   H1019     1.0  0.65945  0.31946  0.48666  1.0000
  C   C1266     1.0  0.70516  0.47379  0.40293  1.0000
  C   C1267     1.0  0.99137  0.24392  0.37096  1.0000
  H   H1020     1.0  0.55979  0.01266  0.26686  1.0000
  C   C1268     1.0  0.88895  0.03349  0.31606  1.0000
  H   H1021     1.0  0.80166  0.03079  0.28634  1.0000
  H   H1022     1.0  0.95509  0.27132  0.25279  1.0000
  C   C1269     1.0  0.76856  0.17335  0.48971  1.0000
  C   C1270     1.0  0.90960  0.01884  0.27643  1.0000
  H   H1023     1.0  0.70106  0.48813  0.47456  1.0000
  C   C1271     1.0  0.82635  0.19374  0.47701  1.0000
  C   C1272     1.0  0.61764  0.00838  0.27954  1.0000
  H   H1024     1.0  0.75128  0.10103  0.47673  1.0000
  C   C1273     1.0  0.83256  0.00877  0.30471  1.0000
  C   C1274     1.0  0.85273  0.19832  0.47269  1.0000
  H   H1025     1.0  0.99283  0.32425  0.46945  1.0000
  C   C1275     1.0  0.75616  0.12117  0.48035  1.0000
  H   H1026     1.0  0.77045  0.02371  0.32185  1.0000
  H   H1027     1.0  0.88444  0.22507  0.47782  1.0000
  H   H1028     1.0  0.52726  0.04404  0.28267  1.0000
  C   C1276     1.0  0.99588  0.19743  0.36399  1.0000
  C   C1277     1.0  0.79661  0.00079  0.34494  1.0000
  C   C1278     1.0  0.82262  0.23536  0.49849  1.0000
  C   C1279     1.0  0.84899  0.23978  0.49422  1.0000
  P   P42       1.0  0.77686  0.20691  0.49542  1.0000
  H   H1029     1.0  0.84900  0.49706  0.41961  1.0000
  H   H1030     1.0  0.74403  0.05205  0.73399  1.0000
  H   H1031     1.0  0.92677  0.48012  0.70338  1.0000
  C   C1280     1.0  0.97682  0.28031  0.66180  1.0000
  Fe  Fe77      1.0  0.65339  0.05388  0.61431  1.0000
  S   S162      1.0  0.69356  0.03880  0.62216  1.0000
  S   S163      1.0  0.64644  0.08714  0.58634  1.0000
  Fe  Fe78      1.0  0.67795  0.02752  0.66213  1.0000
  S   S164      1.0  0.70375  0.03693  0.69823  1.0000
  S   S165      1.0  0.63850  0.04552  0.65459  1.0000
  S   S166      1.0  0.63967  0.01645  0.59767  1.0000
  Fe  Fe79      1.0  0.59568  0.22619  0.58796  1.0000
  S   S167      1.0  0.59899  0.22173  0.54472  1.0000
  S   S168      1.0  0.59655  0.19447  0.61839  1.0000
  Fe  Fe80      1.0  0.58501  0.28359  0.58439  1.0000
  S   S169      1.0  0.58683  0.28329  0.54057  1.0000
  S   S170      1.0  0.57915  0.32089  0.60707  1.0000
  Fe  Fe81      1.0  0.56274  0.24651  0.54311  1.0000
  S   S171      1.0  0.52929  0.23501  0.51533  1.0000
  Fe  Fe82      1.0  0.62291  0.25864  0.54585  1.0000
  S   S172      1.0  0.65950  0.26485  0.52007  1.0000
  S   S173      1.0  0.55867  0.24910  0.58641  1.0000
  S   S174      1.0  0.62194  0.26093  0.58948  1.0000
  Fe  Fe83      1.0  0.94268  0.41157  0.72588  1.0000
  S   S175      1.0  0.89972  0.41349  0.71844  1.0000
  S   S176      1.0  0.97100  0.44537  0.71598  1.0000
  C   C1281     1.0  0.94530  0.32369  0.65312  1.0000
  Fe  Fe84      1.0  0.90376  0.37149  0.70674  1.0000
  S   S177      1.0  0.88176  0.34908  0.67600  1.0000
  S   S178      1.0  0.94712  0.36982  0.71163  1.0000
  C   C1282     1.0  0.52413  0.15011  0.56905  1.0000
  H   H1032     1.0  0.64284  0.32280  0.53155  1.0000
  C   C1283     1.0  0.78788  0.21400  0.54806  1.0000
  S   S179      1.0  0.78077  0.29380  0.53026  1.0000
  Fe  Fe85      1.0  0.85765  0.35223  0.52555  1.0000
  S   S180      1.0  0.87108  0.38042  0.55667  1.0000
  S   S181      1.0  0.85563  0.30886  0.52961  1.0000
  C   C1284     1.0  0.87918  0.35823  0.64290  1.0000
  C   C1285     1.0  0.86762  0.34094  0.62540  1.0000
  C   C1286     1.0  0.86495  0.34749  0.59896  1.0000
  C   C1287     1.0  0.87369  0.37152  0.58981  1.0000
  C   C1288     1.0  0.88520  0.38885  0.60734  1.0000
  C   C1289     1.0  0.88813  0.38218  0.63375  1.0000
  H   H1033     1.0  0.86071  0.32235  0.63231  1.0000
  H   H1034     1.0  0.85606  0.33398  0.58569  1.0000
  H   H1035     1.0  0.89195  0.40748  0.60040  1.0000
  H   H1036     1.0  0.89706  0.39565  0.64702  1.0000
  C   C1290     1.0  0.69254  0.27546  0.52370  1.0000
  C   C1291     1.0  0.70450  0.27838  0.54791  1.0000
  C   C1292     1.0  0.73120  0.28466  0.54949  1.0000
  C   C1293     1.0  0.74640  0.28871  0.52701  1.0000
  C   C1294     1.0  0.95480  0.28428  0.67715  1.0000
  H   H1037     1.0  0.71664  0.22770  0.56748  1.0000
  H   H1038     1.0  0.69338  0.27503  0.56543  1.0000
  H   H1039     1.0  0.74029  0.28589  0.56834  1.0000
  C   C1295     1.0  0.52550  0.17724  0.57064  1.0000
  C   C1296     1.0  0.55308  0.05656  0.53794  1.0000
  C   C1297     1.0  0.63046  0.11593  0.59508  1.0000
  C   C1298     1.0  0.63036  0.13662  0.57735  1.0000
  C   C1299     1.0  0.61935  0.16056  0.58412  1.0000
  C   C1300     1.0  0.60866  0.16403  0.60880  1.0000
  C   C1301     1.0  0.60829  0.14316  0.62642  1.0000
  C   C1302     1.0  0.61906  0.11905  0.61953  1.0000
  H   H1040     1.0  0.63935  0.13430  0.55850  1.0000
  H   H1041     1.0  0.61976  0.17648  0.57046  1.0000
  H   H1042     1.0  0.59991  0.14574  0.64552  1.0000
  H   H1043     1.0  0.61895  0.10306  0.63321  1.0000
  C   C1303     1.0  0.53476  0.31900  0.68450  1.0000
  C   C1304     1.0  0.54187  0.34269  0.67322  1.0000
  C   C1305     1.0  0.55521  0.34304  0.64930  1.0000
  C   C1306     1.0  0.56160  0.31979  0.63659  1.0000
  C   C1307     1.0  0.55442  0.29617  0.64789  1.0000
  C   C1308     1.0  0.54106  0.29582  0.67173  1.0000
  H   H1044     1.0  0.53694  0.36069  0.68280  1.0000
  H   H1045     1.0  0.56048  0.36139  0.64052  1.0000
  H   H1046     1.0  0.55943  0.27815  0.63843  1.0000
  C   C1309     1.0  0.87212  0.28037  0.73540  1.0000
  Fe  Fe86      1.0  0.67877  0.00057  0.60695  1.0000
  H   H1047     1.0  0.85787  0.25761  0.50076  1.0000
  C   C1310     1.0  0.51648  0.23587  0.64767  1.0000
  H   H1048     1.0  0.66320  0.35321  0.56252  1.0000
  C   C1311     1.0  0.51660  0.18995  0.59289  1.0000
  C   C1312     1.0  0.93847  0.17357  0.73338  1.0000
  H   H1049     1.0  0.93249  0.34000  0.64962  1.0000
  H   H1050     1.0  0.49855  0.33405  0.62188  1.0000
  H   H1051     1.0  0.51551  0.03972  0.57925  1.0000
  C   C1313     1.0  0.50805  0.23048  0.67292  1.0000
  C   C1314     1.0  0.75579  0.22366  0.58101  1.0000
  C   C1315     1.0  0.58801  0.30803  0.74117  1.0000
  C   C1316     1.0  0.55689  0.15173  0.52172  1.0000
  H   H1052     1.0  0.75834  0.36145  0.73153  1.0000
  C   C1317     1.0  0.93498  0.31005  0.54021  1.0000
  H   H1053     1.0  0.66373  0.35163  0.69642  1.0000
  C   C1318     1.0  0.96777  0.32025  0.63811  1.0000
  H   H1054     1.0  0.50969  0.25747  0.61275  1.0000
  C   C1319     1.0  0.96074  0.30335  0.54518  1.0000
  C   C1320     1.0  0.59023  0.32197  0.71794  1.0000
  C   C1321     1.0  0.60051  0.31005  0.69588  1.0000
  C   C1322     1.0  0.60879  0.28425  0.69707  1.0000
  C   C1323     1.0  0.60673  0.27026  0.72033  1.0000
  Fe  Fe87      1.0  0.62786  0.00627  0.63845  1.0000
  H   H1055     1.0  0.68396  0.01055  0.53583  1.0000
  H   H1056     1.0  0.62237  0.15544  0.51324  1.0000
  H   H1057     1.0  0.51762  0.21087  0.59389  1.0000
  H   H1058     1.0  0.95578  0.41677  0.67021  1.0000
  H   H1059     1.0  0.92171  0.30886  0.68435  1.0000
  H   H1060     1.0  0.99300  0.30732  0.57096  1.0000
  H   H1061     1.0  0.75083  0.22769  0.60104  1.0000
  H   H1062     1.0  0.90164  0.33144  0.55349  1.0000
  H   H1063     1.0  0.81120  0.25006  0.50834  1.0000
  C   C1324     1.0  0.96779  0.47986  0.71049  1.0000
  Fe  Fe88      1.0  0.81649  0.31246  0.50974  1.0000
  P   P43       1.0  0.97556  0.34291  0.61242  1.0000
  C   C1325     1.0  0.65880  0.33502  0.52531  1.0000
  H   H1064     1.0  0.76408  0.08573  0.59820  1.0000
  H   H1065     1.0  0.61605  0.27490  0.67966  1.0000
  H   H1066     1.0  0.61279  0.25015  0.72057  1.0000
  H   H1067     1.0  0.94746  0.13318  0.72736  1.0000
  H   H1068     1.0  0.86761  0.46008  0.72201  1.0000
  H   H1069     1.0  0.74298  0.34356  0.53777  1.0000
  H   H1070     1.0  0.72973  0.03048  0.54688  1.0000
  S   S182      1.0  0.51737  0.31727  0.71408  1.0000
  C   C1326     1.0  0.77747  0.35457  0.73664  1.0000
  H   H1071     1.0  0.95669  0.38557  0.57918  1.0000
  C   C1327     1.0  0.51862  0.33303  0.58551  1.0000
  H   H1072     1.0  0.53584  0.27751  0.68052  1.0000
  C   C1328     1.0  0.54581  0.10218  0.54757  1.0000
  H   H1073     1.0  0.94199  0.42999  0.58902  1.0000
  H   H1074     1.0  0.79655  0.21955  0.58852  1.0000
  C   C1329     1.0  0.95652  0.39204  0.59917  1.0000
  H   H1075     1.0  0.52934  0.17715  0.50248  1.0000
  H   H1076     1.0  0.72759  0.22018  0.52181  1.0000
  C   C1330     1.0  0.97318  0.31305  0.56720  1.0000
  C   C1331     1.0  0.69152  0.36715  0.53490  1.0000
  C   C1332     1.0  0.64010  0.37512  0.72209  1.0000
  C   C1333     1.0  0.94408  0.49182  0.70460  1.0000
  C   C1334     1.0  0.67886  0.11003  0.65773  1.0000
  C   C1335     1.0  0.69591  0.09985  0.67617  1.0000
  C   C1336     1.0  0.72245  0.09902  0.67090  1.0000
  C   C1337     1.0  0.73200  0.10867  0.64730  1.0000
  C   C1338     1.0  0.71500  0.11940  0.62885  1.0000
  C   C1339     1.0  0.68834  0.11944  0.63406  1.0000
  P   P44       1.0  0.72692  0.12871  0.59714  1.0000
  C   C1340     1.0  0.70689  0.15311  0.58152  1.0000
  C   C1341     1.0  0.75842  0.14335  0.60040  1.0000
  C   C1342     1.0  0.77795  0.13864  0.58197  1.0000
  C   C1343     1.0  0.80238  0.14993  0.58474  1.0000
  C   C1344     1.0  0.80743  0.16607  0.60586  1.0000
  C   C1345     1.0  0.78791  0.17128  0.62400  1.0000
  C   C1346     1.0  0.76342  0.16011  0.62119  1.0000
  C   C1347     1.0  0.70633  0.15513  0.55430  1.0000
  C   C1348     1.0  0.69098  0.17403  0.54216  1.0000
  C   C1349     1.0  0.67635  0.19131  0.55708  1.0000
  C   C1350     1.0  0.67737  0.18994  0.58417  1.0000
  C   C1351     1.0  0.69283  0.17117  0.59636  1.0000
  C   C1352     1.0  0.72876  0.09858  0.57939  1.0000
  C   C1353     1.0  0.70869  0.09113  0.56272  1.0000
  C   C1354     1.0  0.70921  0.06679  0.55079  1.0000
  C   C1355     1.0  0.73406  0.28723  0.50289  1.0000
  H   H1077     1.0  0.54985  0.03984  0.52571  1.0000
  C   C1356     1.0  0.74904  0.08102  0.58442  1.0000
  H   H1078     1.0  0.65821  0.10976  0.66140  1.0000
  H   H1079     1.0  0.68847  0.09161  0.69411  1.0000
  H   H1080     1.0  0.73540  0.08985  0.68474  1.0000
  H   H1081     1.0  0.75249  0.10696  0.64318  1.0000
  H   H1082     1.0  0.67480  0.12615  0.61958  1.0000
  H   H1083     1.0  0.77441  0.12612  0.56557  1.0000
  H   H1084     1.0  0.81746  0.14605  0.57058  1.0000
  H   H1085     1.0  0.82643  0.17468  0.60806  1.0000
  H   H1086     1.0  0.79177  0.18397  0.64024  1.0000
  H   H1087     1.0  0.74842  0.16438  0.63532  1.0000
  H   H1088     1.0  0.71757  0.14198  0.54244  1.0000
  H   H1089     1.0  0.56702  0.11650  0.58094  1.0000
  H   H1090     1.0  0.66434  0.20592  0.54769  1.0000
  H   H1091     1.0  0.66584  0.20325  0.59572  1.0000
  H   H1092     1.0  0.69350  0.17066  0.61736  1.0000
  H   H1093     1.0  0.69204  0.10356  0.55970  1.0000
  H   H1094     1.0  0.69322  0.06084  0.53861  1.0000
  C   C1357     1.0  0.93900  0.30590  0.67272  1.0000
  C   C1358     1.0  0.70381  0.04101  0.73312  1.0000
  C   C1359     1.0  0.95597  0.40982  0.65038  1.0000
  C   C1360     1.0  0.93390  0.33586  0.57932  1.0000
  H   H1095     1.0  0.59623  0.38570  0.66159  1.0000
  C   C1361     1.0  0.67452  0.29319  0.74465  1.0000
  C   C1362     1.0  0.56245  0.09979  0.56906  1.0000
  C   C1363     1.0  0.60857  0.38290  0.67837  1.0000
  C   C1364     1.0  0.74288  0.21936  0.53604  1.0000
  C   C1365     1.0  0.98997  0.49577  0.71179  1.0000
  H   H1096     1.0  0.97117  0.37237  0.66066  1.0000
  C   C1366     1.0  0.56969  0.05444  0.55925  1.0000
  H   H1097     1.0  0.53057  0.34964  0.59012  1.0000
  H   H1098     1.0  0.51126  0.11509  0.58863  1.0000
  H   H1099     1.0  0.58985  0.13093  0.53782  1.0000
  C   C1367     1.0  0.83073  0.46793  0.73989  1.0000
  C   C1368     1.0  0.76623  0.15570  0.51048  1.0000
  H   H1100     1.0  0.79487  0.36655  0.70035  1.0000
  C   C1369     1.0  0.66817  0.33319  0.49991  1.0000
  C   C1370     1.0  0.63067  0.36726  0.67655  1.0000
  C   C1371     1.0  0.50468  0.14875  0.61212  1.0000
  H   H1101     1.0  0.60123  0.32051  0.67759  1.0000
  H   H1102     1.0  0.69035  0.17528  0.52117  1.0000
  C   C1372     1.0  0.50372  0.13240  0.51910  1.0000
  C   C1373     1.0  0.72966  0.04962  0.55557  1.0000
  C   C1374     1.0  0.64650  0.36347  0.69829  1.0000
  C   C1375     1.0  0.96413  0.37530  0.61939  1.0000
  H   H1103     1.0  0.94147  0.44575  0.63456  1.0000
  H   H1104     1.0  0.76492  0.04301  0.57669  1.0000
  H   H1105     1.0  0.57936  0.03621  0.56360  1.0000
  H   H1106     1.0  0.70050  0.38006  0.54873  1.0000
  H   H1107     1.0  0.92532  0.30261  0.52320  1.0000
  C   C1376     1.0  0.73651  0.22359  0.56210  1.0000
  H   H1108     1.0  0.63540  0.35801  0.65825  1.0000
  H   H1109     1.0  0.94984  0.27048  0.69231  1.0000
  C   C1377     1.0  0.96437  0.38459  0.64494  1.0000
  H   H1110     1.0  0.82064  0.45329  0.72881  1.0000
  H   H1111     1.0  0.53310  0.18871  0.55467  1.0000
  C   C1378     1.0  0.75289  0.38273  0.52582  1.0000
  H   H1112     1.0  0.73636  0.45062  0.73748  1.0000
  C   C1379     1.0  0.50632  0.17575  0.61365  1.0000
  H   H1113     1.0  0.51899  0.21720  0.68506  1.0000
  H   H1114     1.0  0.58563  0.40762  0.70325  1.0000
  H   H1115     1.0  0.83310  0.26677  0.73057  1.0000
  C   C1380     1.0  0.60257  0.39517  0.70177  1.0000
  Fe  Fe89      1.0  0.51197  0.35190  0.74057  1.0000
  H   H1116     1.0  0.68218  0.41514  0.51021  1.0000
  C   C1381     1.0  0.67040  0.35205  0.54277  1.0000
  C   C1382     1.0  0.94836  0.41735  0.60464  1.0000
  C   C1383     1.0  0.78150  0.21903  0.57396  1.0000
  C   C1384     1.0  0.61849  0.39160  0.72341  1.0000
  H   H1117     1.0  0.88769  0.46236  0.50076  1.0000
  C   C1385     1.0  0.74956  0.05674  0.57238  1.0000
  C   C1386     1.0  0.77436  0.35840  0.56029  1.0000
  C   C1387     1.0  0.79124  0.37911  0.56441  1.0000
  C   C1388     1.0  0.78891  0.40169  0.54946  1.0000
  H   H1118     1.0  0.51100  0.28739  0.53861  1.0000
  C   C1389     1.0  0.57428  0.07603  0.57484  1.0000
  H   H1119     1.0  0.58763  0.07450  0.59104  1.0000
  H   H1120     1.0  0.74302  0.40787  0.71657  1.0000
  C   C1390     1.0  0.94797  0.42621  0.63025  1.0000
  C   C1391     1.0  0.72178  0.43564  0.73934  1.0000
  C   C1392     1.0  0.50269  0.25339  0.63211  1.0000
  C   C1393     1.0  0.52251  0.31983  0.56217  1.0000
  P   P45       1.0  0.72927  0.38387  0.49983  1.0000
  H   H1121     1.0  0.64561  0.31985  0.73099  1.0000
  C   C1394     1.0  0.68492  0.39628  0.74615  1.0000
  C   C1395     1.0  0.85724  0.47162  0.73617  1.0000
  H   H1122     1.0  0.86927  0.29773  0.72369  1.0000
  H   H1123     1.0  0.77669  0.34050  0.57120  1.0000
  H   H1124     1.0  0.80669  0.37735  0.57856  1.0000
  H   H1125     1.0  0.80251  0.41742  0.55223  1.0000
  C   C1396     1.0  0.58336  0.14594  0.52465  1.0000
  H   H1126     1.0  0.52850  0.08154  0.51547  1.0000
  C   C1397     1.0  0.66380  0.31793  0.74121  1.0000
  H   H1127     1.0  0.61397  0.40189  0.74111  1.0000
  H   H1128     1.0  0.92305  0.34801  0.59257  1.0000
  H   H1129     1.0  0.53730  0.32633  0.54868  1.0000
  H   H1130     1.0  0.80785  0.20983  0.54325  1.0000
  S   S183      1.0  0.81816  0.35611  0.50760  1.0000
  H   H1131     1.0  0.83867  0.35103  0.71225  1.0000
  H   H1132     1.0  0.65888  0.12007  0.74508  1.0000
  H   H1133     1.0  0.76902  0.42097  0.51857  1.0000
  C   C1398     1.0  0.76867  0.21456  0.52875  1.0000
  C   C1399     1.0  0.92158  0.32623  0.55730  1.0000
  H   H1134     1.0  0.58296  0.34171  0.71675  1.0000
  C   C1400     1.0  0.76986  0.40353  0.53023  1.0000
  C   C1401     1.0  0.59620  0.28204  0.74257  1.0000
  P   P46       1.0  0.53241  0.13368  0.53930  1.0000
  H   H1135     1.0  0.97097  0.29065  0.53185  1.0000
  C   C1402     1.0  0.75528  0.36019  0.54114  1.0000
  C   C1403     1.0  0.95997  0.32994  0.58406  1.0000
  C   C1404     1.0  0.50778  0.29788  0.55658  1.0000
  C   C1405     1.0  0.54952  0.17174  0.50465  1.0000
  H   H1136     1.0  0.96800  0.28746  0.73492  1.0000
  H   H1137     1.0  0.75793  0.11610  0.52175  1.0000
  C   C1406     1.0  0.70718  0.39180  0.73107  1.0000
  H   H1138     1.0  0.53403  0.22685  0.64029  1.0000
  C   C1407     1.0  0.54108  0.08031  0.53214  1.0000
  S   S184      1.0  0.50763  0.39381  0.72950  1.0000
  H   H1139     1.0  0.98887  0.26335  0.66503  1.0000
  H   H1140     1.0  0.76912  0.16198  0.53027  1.0000
  C   C1408     1.0  0.51326  0.13597  0.58978  1.0000
  H   H1141     1.0  0.97989  0.24057  0.73361  1.0000
  C   C1409     1.0  0.72564  0.41140  0.72785  1.0000
  H   H1142     1.0  0.95329  0.18040  0.72009  1.0000
  C   C1410     1.0  0.98317  0.29808  0.64216  1.0000
  H   H1143     1.0  0.56339  0.17753  0.74240  1.0000
  H   H1144     1.0  0.71021  0.37323  0.72178  1.0000
  H   H1145     1.0  0.66484  0.27641  0.73662  1.0000
  C   C1411     1.0  0.70124  0.36519  0.50946  1.0000
  C   C1412     1.0  0.93531  0.14697  0.73761  1.0000
  C   C1413     1.0  0.60201  0.15979  0.51058  1.0000
  H   H1146     1.0  0.67024  0.46009  0.49881  1.0000
  C   C1414     1.0  0.72687  0.04872  0.74560  1.0000
  H   H1147     1.0  0.66396  0.03089  0.73973  1.0000
  C   C1415     1.0  0.75993  0.12972  0.50576  1.0000
  C   C1416     1.0  0.69599  0.42707  0.49982  1.0000
  C   C1417     1.0  0.70756  0.28033  0.50127  1.0000
  C   C1418     1.0  0.50038  0.32407  0.60354  1.0000
  C   C1419     1.0  0.79800  0.35746  0.71911  1.0000
  H   H1148     1.0  0.92695  0.21187  0.74401  1.0000
  C   C1420     1.0  0.85180  0.26287  0.73925  1.0000
  C   C1421     1.0  0.82271  0.34868  0.72581  1.0000
  H   H1149     1.0  0.91191  0.28926  0.74402  1.0000
  H   H1150     1.0  0.54310  0.27978  0.74721  1.0000
  S   S185      1.0  0.89563  0.35589  0.74686  1.0000
  H   H1151     1.0  0.60692  0.15756  0.74619  1.0000
  C   C1422     1.0  0.92346  0.19147  0.74722  1.0000
  C   C1423     1.0  0.89620  0.27552  0.74668  1.0000
  H   H1152     1.0  0.49953  0.18568  0.63088  1.0000
  C   C1424     1.0  0.68189  0.03680  0.74872  1.0000
  H   H1153     1.0  0.89111  0.49223  0.74832  1.0000
  H   H1154     1.0  0.95450  0.19820  0.94884  1.0000
  S   S186      1.0  0.54055  0.35902  0.77243  1.0000
  H   H1155     1.0  0.86168  0.19196  0.83457  1.0000
  C   C1425     1.0  0.51469  0.28232  0.77736  1.0000
  S   S187      1.0  0.93814  0.39726  0.76721  1.0000
  H   H1156     1.0  0.82000  0.47659  0.89741  1.0000
  Fe  Fe90      1.0  0.73049  0.44479  0.83752  1.0000
  S   S188      1.0  0.75038  0.45198  0.87545  1.0000
  H   H1157     1.0  0.72698  0.17665  0.98224  1.0000
  Fe  Fe91      1.0  0.67657  0.44887  0.86238  1.0000
  S   S189      1.0  0.69242  0.45608  0.90233  1.0000
  S   S190      1.0  0.63307  0.44610  0.86125  1.0000
  Fe  Fe92      1.0  0.72084  0.42463  0.89245  1.0000
  S   S191      1.0  0.73245  0.38981  0.91652  1.0000
  S   S192      1.0  0.70301  0.41540  0.85403  1.0000
  Fe  Fe93      1.0  0.59903  0.27229  0.92728  1.0000
  S   S193      1.0  0.64047  0.26697  0.93964  1.0000
  S   S194      1.0  0.59267  0.27746  0.88422  1.0000
  Fe  Fe94      1.0  0.62989  0.29412  0.97206  1.0000
  S   S195      1.0  0.65088  0.32970  0.98633  1.0000
  Fe  Fe95      1.0  0.62475  0.23547  0.96560  1.0000
  S   S196      1.0  0.64002  0.19421  0.96981  1.0000
  S   S197      1.0  0.58964  0.30180  0.95758  1.0000
  S   S198      1.0  0.58390  0.23905  0.95101  1.0000
  S   S199      1.0  0.74986  0.43443  0.79908  1.0000
  H   H1158     1.0  0.67733  0.38766  0.80185  1.0000
  C   C1426     1.0  0.90229  0.15605  0.76979  1.0000
  S   S200      1.0  0.87123  0.41403  0.79205  1.0000
  H   H1159     1.0  0.52422  0.26667  0.84083  1.0000
  Fe  Fe96      1.0  0.96830  0.13140  0.84292  1.0000
  S   S201      1.0  0.96653  0.12934  0.79933  1.0000
  S   S202      1.0  0.93556  0.12858  0.87219  1.0000
  H   H1160     1.0  0.54757  0.43637  0.92541  1.0000
  C   C1427     1.0  0.60101  0.16383  0.82093  1.0000
  S   S203      1.0  0.50129  0.34611  0.83929  1.0000
  C   C1428     1.0  0.83681  0.05149  0.91704  1.0000
  Fe  Fe97      1.0  0.74405  0.11330  0.89010  1.0000
  S   S204      1.0  0.72297  0.07568  0.89649  1.0000
  S   S205      1.0  0.73217  0.15508  0.89756  1.0000
  Fe  Fe98      1.0  0.78970  0.08638  0.86400  1.0000
  S   S206      1.0  0.77209  0.04674  0.86935  1.0000
  S   S207      1.0  0.82333  0.09457  0.83698  1.0000
  Fe  Fe99      1.0  0.73506  0.06543  0.85509  1.0000
  S   S208      1.0  0.70677  0.04999  0.82362  1.0000
  Fe  Fe100     1.0  0.76204  0.06041  0.91028  1.0000
  S   S209      1.0  0.76725  0.03394  0.94699  1.0000
  S   S210      1.0  0.75327  0.10421  0.84855  1.0000
  S   S211      1.0  0.78242  0.09876  0.90514  1.0000
  C   C1429     1.0  0.90389  0.12098  0.86217  1.0000
  C   C1430     1.0  0.88493  0.11551  0.88101  1.0000
  C   C1431     1.0  0.85990  0.10783  0.87361  1.0000
  C   C1432     1.0  0.85380  0.10558  0.84731  1.0000
  C   C1433     1.0  0.87256  0.11166  0.82847  1.0000
  C   C1434     1.0  0.89751  0.11946  0.83586  1.0000
  H   H1161     1.0  0.88976  0.11671  0.90139  1.0000
  H   H1162     1.0  0.84551  0.10321  0.88820  1.0000
  H   H1163     1.0  0.86785  0.10992  0.80810  1.0000
  H   H1164     1.0  0.91196  0.12367  0.82124  1.0000
  C   C1435     1.0  0.85566  0.24031  0.75408  1.0000
  C   C1436     1.0  0.81731  0.48260  0.75835  1.0000
  Fe  Fe101     1.0  0.50609  0.36303  0.79881  1.0000
  C   C1437     1.0  0.84701  0.01927  0.83405  1.0000
  C   C1438     1.0  0.90027  0.23909  0.82412  1.0000
  C   C1439     1.0  0.97537  0.23408  0.77476  1.0000
  Fe  Fe102     1.0  0.89538  0.39753  0.75901  1.0000
  C   C1440     1.0  0.57559  0.21483  0.75662  1.0000
  C   C1441     1.0  0.81883  0.48519  0.87819  1.0000
  H   H1165     1.0  0.82558  0.13300  0.99724  1.0000
  C   C1442     1.0  0.56216  0.38743  0.88345  1.0000
  H   H1166     1.0  0.88891  0.14875  0.78427  1.0000
  H   H1167     1.0  0.97474  0.28646  0.89914  1.0000
  C   C1443     1.0  0.68321  0.03976  0.77611  1.0000
  C   C1444     1.0  0.70633  0.04716  0.78862  1.0000
  C   C1445     1.0  0.72814  0.05182  0.77298  1.0000
  H   H1168     1.0  0.50843  0.32178  0.88925  1.0000
  C   C1446     1.0  0.66770  0.12115  0.76411  1.0000
  H   H1169     1.0  0.95075  0.32053  0.87542  1.0000
  H   H1170     1.0  0.74611  0.05754  0.78201  1.0000
  C   C1447     1.0  0.92050  0.46721  0.79547  1.0000
  C   C1448     1.0  0.66571  0.18333  0.94981  1.0000
  C   C1449     1.0  0.66985  0.15657  0.94647  1.0000
  C   C1450     1.0  0.69025  0.14745  0.93067  1.0000
  C   C1451     1.0  0.70676  0.16513  0.91833  1.0000
  C   C1452     1.0  0.70314  0.19180  0.92246  1.0000
  C   C1453     1.0  0.68255  0.20090  0.93787  1.0000
  H   H1171     1.0  0.65702  0.14289  0.95589  1.0000
  H   H1172     1.0  0.69316  0.12684  0.92799  1.0000
  H   H1173     1.0  0.71612  0.20556  0.91334  1.0000
  H   H1174     1.0  0.67984  0.22151  0.94069  1.0000
  C   C1454     1.0  0.70812  0.37340  0.93415  1.0000
  C   C1455     1.0  0.70753  0.34616  0.93398  1.0000
  C   C1456     1.0  0.68903  0.33259  0.94882  1.0000
  C   C1457     1.0  0.67170  0.34620  0.96467  1.0000
  C   C1458     1.0  0.67236  0.37343  0.96489  1.0000
  C   C1459     1.0  0.69017  0.38704  0.94928  1.0000
  H   H1175     1.0  0.72154  0.33554  0.92253  1.0000
  H   H1176     1.0  0.68889  0.31160  0.94887  1.0000
  H   H1177     1.0  0.65928  0.38403  0.97740  1.0000
  H   H1178     1.0  0.69064  0.40802  0.94967  1.0000
  C   C1460     1.0  0.78349  0.42797  0.79729  1.0000
  C   C1461     1.0  0.79428  0.41825  0.77415  1.0000
  C   C1462     1.0  0.82109  0.41315  0.77224  1.0000
  C   C1463     1.0  0.83725  0.41810  0.79341  1.0000
  C   C1464     1.0  0.82629  0.42717  0.81663  1.0000
  C   C1465     1.0  0.79961  0.43223  0.81856  1.0000
  C   C1466     1.0  0.87845  0.35521  0.82522  1.0000
  C   C1467     1.0  0.80674  0.13502  0.98825  1.0000
  H   H1179     1.0  0.83860  0.43041  0.83323  1.0000
  H   H1180     1.0  0.79161  0.43956  0.83651  1.0000
  C   C1468     1.0  0.61575  0.44130  0.83234  1.0000
  C   C1469     1.0  0.58988  0.43339  0.83411  1.0000
  C   C1470     1.0  0.57545  0.42850  0.81161  1.0000
  C   C1471     1.0  0.58657  0.43252  0.78717  1.0000
  C   C1472     1.0  0.61224  0.44127  0.78535  1.0000
  C   C1473     1.0  0.62699  0.44527  0.80792  1.0000
  H   H1181     1.0  0.58111  0.43080  0.85299  1.0000
  H   H1182     1.0  0.55561  0.42204  0.81317  1.0000
  H   H1183     1.0  0.51205  0.41690  0.85271  1.0000
  H   H1184     1.0  0.64685  0.45173  0.80650  1.0000
  C   C1474     1.0  0.52774  0.32904  0.85278  1.0000
  C   C1475     1.0  0.55042  0.32515  0.83847  1.0000
  C   C1476     1.0  0.57083  0.31047  0.84894  1.0000
  C   C1477     1.0  0.56864  0.29939  0.87374  1.0000
  C   C1478     1.0  0.54644  0.30420  0.88862  1.0000
  C   C1479     1.0  0.52596  0.31891  0.87807  1.0000
  H   H1185     1.0  0.55181  0.33244  0.81891  1.0000
  H   H1186     1.0  0.58797  0.30690  0.83740  1.0000
  H   H1187     1.0  0.54459  0.29565  0.90777  1.0000
  H   H1188     1.0  0.72380  0.48753  0.79040  1.0000
  C   C1480     1.0  0.98289  0.29436  0.88143  1.0000
  C   C1481     1.0  0.94852  0.04363  0.81564  1.0000
  C   C1482     1.0  0.59632  0.22966  0.76595  1.0000
  H   H1189     1.0  0.64317  0.13508  0.89606  1.0000
  H   H1190     1.0  0.59275  0.34214  0.91909  1.0000
  C   C1483     1.0  0.86513  0.30849  0.80152  1.0000
  C   C1484     1.0  0.84551  0.32614  0.80854  1.0000
  C   C1485     1.0  0.85244  0.34969  0.82020  1.0000
  P   P47       1.0  0.81229  0.31999  0.79941  1.0000
  C   C1486     1.0  0.79011  0.33404  0.82277  1.0000
  C   C1487     1.0  0.80659  0.33449  0.76791  1.0000
  H   H1191     1.0  0.78189  0.41467  0.75766  1.0000
  H   H1192     1.0  0.84626  0.33059  0.75488  1.0000
  C   C1488     1.0  0.97337  0.20291  0.91179  1.0000
  H   H1193     1.0  0.70544  0.27085  0.76181  1.0000
  C   C1489     1.0  0.78170  0.34308  0.76093  1.0000
  C   C1490     1.0  0.77714  0.31844  0.84112  1.0000
  C   C1491     1.0  0.75897  0.32942  0.85806  1.0000
  C   C1492     1.0  0.75352  0.35594  0.85676  1.0000
  C   C1493     1.0  0.76650  0.37164  0.83885  1.0000
  C   C1494     1.0  0.78476  0.36079  0.82197  1.0000
  C   C1495     1.0  0.80709  0.28534  0.79804  1.0000
  C   C1496     1.0  0.79235  0.27437  0.77803  1.0000
  C   C1497     1.0  0.78784  0.24759  0.77762  1.0000
  C   C1498     1.0  0.79792  0.23165  0.79720  1.0000
  C   C1499     1.0  0.81267  0.24243  0.81711  1.0000
  C   C1500     1.0  0.81728  0.26914  0.81754  1.0000
  H   H1194     1.0  0.86053  0.29075  0.79142  1.0000
  H   H1195     1.0  0.83803  0.36424  0.82484  1.0000
  C   C1501     1.0  0.78772  0.05554  0.99322  1.0000
  C   C1502     1.0  0.55327  0.26411  0.81082  1.0000
  H   H1196     1.0  0.69635  0.45912  0.76278  1.0000
  P   P48       1.0  0.87374  0.01541  0.85641  1.0000
  H   H1197     1.0  0.76560  0.34120  0.77431  1.0000
  H   H1198     1.0  0.78081  0.29784  0.84251  1.0000
  H   H1199     1.0  0.99490  0.21208  0.87737  1.0000
  C   C1503     1.0  0.82455  0.00416  0.83705  1.0000
  H   H1200     1.0  0.76239  0.39228  0.83815  1.0000
  H   H1201     1.0  0.79454  0.37327  0.80814  1.0000
  H   H1202     1.0  0.78423  0.28641  0.76280  1.0000
  H   H1203     1.0  0.77641  0.23919  0.76220  1.0000
  H   H1204     1.0  0.79422  0.21095  0.79705  1.0000
  H   H1205     1.0  0.82028  0.23010  0.83243  1.0000
  H   H1206     1.0  0.82846  0.27725  0.83333  1.0000
  C   C1504     1.0  0.65706  0.37293  0.89560  1.0000
  C   C1505     1.0  0.65353  0.34615  0.89414  1.0000
  C   C1506     1.0  0.63034  0.33517  0.90266  1.0000
  H   H1207     1.0  0.67527  0.38138  0.88960  1.0000
  H   H1208     1.0  0.66901  0.33389  0.88702  1.0000
  H   H1209     1.0  0.62773  0.31439  0.90180  1.0000
  C   C1507     1.0  0.90297  0.21420  0.81335  1.0000
  H   H1210     1.0  0.93842  0.08135  0.83035  1.0000
  C   C1508     1.0  0.96921  0.31372  0.86806  1.0000
  C   C1509     1.0  0.62105  0.21833  0.76765  1.0000
  C   C1510     1.0  0.63254  0.45200  0.96750  1.0000
  C   C1511     1.0  0.62002  0.25843  0.81839  1.0000
  H   H1211     1.0  0.90774  0.04054  0.89458  1.0000
  H   H1212     1.0  0.63114  0.21457  0.89441  1.0000
  H   H1213     1.0  0.91508  0.11759  0.75943  1.0000
  H   H1214     1.0  0.73935  0.36439  0.86977  1.0000
  C   C1512     1.0  0.87045  0.48990  0.75098  1.0000
  H   H1215     1.0  0.88368  0.37376  0.83353  1.0000
  H   H1216     1.0  0.61908  0.41345  0.97508  1.0000
  C   C1513     1.0  0.61074  0.35092  0.91284  1.0000
  C   C1514     1.0  0.91280  0.24531  0.84731  1.0000
  C   C1515     1.0  0.92740  0.22650  0.86035  1.0000
  C   C1516     1.0  0.92958  0.20151  0.85013  1.0000
  C   C1517     1.0  0.91770  0.19541  0.82657  1.0000
  H   H1217     1.0  0.85331  0.07189  0.94934  1.0000
  H   H1218     1.0  0.91107  0.26468  0.85524  1.0000
  H   H1219     1.0  0.93687  0.23123  0.87845  1.0000
  H   H1220     1.0  0.94033  0.18668  0.86051  1.0000
  H   H1221     1.0  0.91974  0.17592  0.81903  1.0000
  H   H1222     1.0  0.61312  0.18092  0.81957  1.0000
  P   P49       1.0  0.88587  0.20576  0.78401  1.0000
  H   H1223     1.0  0.70804  0.35298  0.77529  1.0000
  C   C1518     1.0  0.69330  0.11297  0.76743  1.0000
  C   C1519     1.0  0.70452  0.11350  0.79207  1.0000
  C   C1520     1.0  0.69007  0.12180  0.81349  1.0000
  C   C1521     1.0  0.66426  0.12988  0.81041  1.0000
  C   C1522     1.0  0.65320  0.12959  0.78550  1.0000
  P   P50       1.0  0.64500  0.13772  0.83872  1.0000
  C   C1523     1.0  0.64873  0.11139  0.86173  1.0000
  C   C1524     1.0  0.65458  0.16807  0.85336  1.0000
  C   C1525     1.0  0.63729  0.18126  0.86988  1.0000
  C   C1526     1.0  0.64437  0.20476  0.88124  1.0000
  C   C1527     1.0  0.66878  0.21527  0.87629  1.0000
  C   C1528     1.0  0.68621  0.20220  0.86014  1.0000
  C   C1529     1.0  0.67920  0.17867  0.84874  1.0000
  H   H1224     1.0  0.83966  0.22715  0.75677  1.0000
  S   S212      1.0  0.95432  0.32218  0.77848  1.0000
  C   C1530     1.0  0.81466  0.15637  0.80602  1.0000
  C   C1531     1.0  0.65639  0.06559  0.87050  1.0000
  C   C1532     1.0  0.65354  0.08605  0.85286  1.0000
  C   C1533     1.0  0.61130  0.14005  0.82962  1.0000
  C   C1534     1.0  0.59524  0.11811  0.83058  1.0000
  H   H1225     1.0  0.82931  0.40586  0.75434  1.0000
  C   C1535     1.0  0.80489  0.14303  0.96235  1.0000
  H   H1226     1.0  0.72406  0.10627  0.79483  1.0000
  H   H1227     1.0  0.69869  0.12086  0.83265  1.0000
  H   H1228     1.0  0.63316  0.13494  0.78263  1.0000
  H   H1229     1.0  0.61844  0.17320  0.87437  1.0000
  C   C1536     1.0  0.85729  0.06128  0.93164  1.0000
  H   H1230     1.0  0.67450  0.23310  0.88578  1.0000
  H   H1231     1.0  0.70555  0.20977  0.85727  1.0000
  H   H1232     1.0  0.69330  0.16866  0.83690  1.0000
  C   C1537     1.0  0.60431  0.42809  0.93845  1.0000
  C   C1538     1.0  0.63758  0.38877  0.90580  1.0000
  H   H1233     1.0  0.66083  0.04627  0.86342  1.0000
  H   H1234     1.0  0.65543  0.08194  0.83232  1.0000
  H   H1235     1.0  0.60273  0.09945  0.83680  1.0000
  P   P51       1.0  0.59187  0.26379  0.77238  1.0000
  S   S213      1.0  0.50155  0.40606  0.79253  1.0000
  H   H1236     1.0  0.71351  0.05084  0.95213  1.0000
  C   C1539     1.0  0.96732  0.21017  0.93721  1.0000
  C   C1540     1.0  0.62700  0.29853  0.79477  1.0000
  C   C1541     1.0  0.91912  0.00872  0.82696  1.0000
  C   C1542     1.0  0.86730  0.03437  0.88527  1.0000
  C   C1543     1.0  0.54362  0.39268  0.86449  1.0000
  Fe  Fe103     1.0  0.99153  0.16547  0.80042  1.0000
  H   H1237     1.0  0.94556  0.46267  0.76238  1.0000
  H   H1238     1.0  0.88846  0.25371  0.81476  1.0000
  C   C1544     1.0  0.89108  0.31404  0.80667  1.0000
  H   H1239     1.0  0.66358  0.42495  0.76815  1.0000
  H   H1240     1.0  0.51383  0.44452  0.89220  1.0000
  C   C1545     1.0  0.54644  0.42391  0.90858  1.0000
  C   C1546     1.0  0.63306  0.47280  0.94999  1.0000
  C   C1547     1.0  0.57636  0.38183  0.95765  1.0000
  C   C1548     1.0  0.90326  0.02621  0.84065  1.0000
  C   C1549     1.0  0.82066  0.16103  0.77994  1.0000
  H   H1241     1.0  0.65302  0.32571  0.81269  1.0000
  C   C1550     1.0  0.75822  0.13932  0.96474  1.0000
  H   H1242     1.0  0.61056  0.23984  0.82078  1.0000
  C   C1551     1.0  0.61436  0.37782  0.91490  1.0000
  H   H1243     1.0  0.64103  0.40944  0.90683  1.0000
  S   S214      1.0  0.98495  0.20054  0.77260  1.0000
  H   H1244     1.0  0.82775  0.05580  0.78216  1.0000
  H   H1245     1.0  0.91892  0.24956  0.77004  1.0000
  H   H1246     1.0  0.73963  0.14056  0.95516  1.0000
  C   C1552     1.0  0.64401  0.30682  0.81411  1.0000
  H   H1247     1.0  0.86472  0.05025  0.81160  1.0000
  C   C1553     1.0  0.99518  0.24773  0.93289  1.0000
  H   H1248     1.0  0.65669  0.05420  0.91066  1.0000
  H   H1249     1.0  0.79128  0.07303  0.98209  1.0000
  C   C1554     1.0  0.64872  0.29112  0.83574  1.0000
  C   C1555     1.0  0.90949  0.48464  0.81304  1.0000
  C   C1556     1.0  0.59283  0.36716  0.97363  1.0000
  C   C1557     1.0  0.87996  0.23507  0.76519  1.0000
  C   C1558     1.0  0.85010  0.18411  0.81901  1.0000
  Fe  Fe104     1.0  0.71999  0.48299  0.88188  1.0000
  C   C1559     1.0  0.97923  0.32416  0.84505  1.0000
  H   H1250     1.0  0.57509  0.37120  0.88047  1.0000
  C   C1560     1.0  0.65419  0.07013  0.89712  1.0000
  C   C1561     1.0  0.93692  0.47627  0.77588  1.0000
  H   H1251     1.0  0.82517  0.16346  0.84570  1.0000
  H   H1252     1.0  0.56696  0.18430  0.80790  1.0000
  C   C1562     1.0  0.61867  0.37514  0.82891  1.0000
  H   H1253     1.0  0.60889  0.37617  0.84751  1.0000
  C   C1563     1.0  0.68088  0.42087  0.75702  1.0000
  C   C1564     1.0  0.85638  0.18885  0.79281  1.0000
  H   H1254     1.0  0.65446  0.38954  0.84391  1.0000
  C   C1565     1.0  0.82708  0.04096  0.79711  1.0000
  H   H1255     1.0  0.81702  0.05423  0.92362  1.0000
  C   C1566     1.0  0.82931  0.16797  0.82551  1.0000
  C   C1567     1.0  0.64453  0.38260  0.82688  1.0000
  C   C1568     1.0  0.90517  0.18289  0.76554  1.0000
  C   C1569     1.0  0.80482  0.02591  0.80027  1.0000
  H   H1256     1.0  0.66582  0.05355  0.95703  1.0000
  C   C1570     1.0  0.61830  0.42970  0.96175  1.0000
  H   H1257     1.0  0.50359  0.36393  0.91357  1.0000
  H   H1258     1.0  0.95691  0.28141  0.81731  1.0000
  C   C1571     1.0  0.75978  0.13203  0.99097  1.0000
  C   C1572     1.0  0.60529  0.36723  0.80684  1.0000
  C   C1573     1.0  0.65718  0.38196  0.80287  1.0000
  P   P52       1.0  0.58932  0.39788  0.92914  1.0000
  H   H1259     1.0  0.58509  0.36208  0.80844  1.0000
  C   C1574     1.0  0.61778  0.36659  0.78271  1.0000
  H   H1260     1.0  0.74913  0.31746  0.87236  1.0000
  C   C1575     1.0  0.67802  0.06795  0.96607  1.0000
  H   H1261     1.0  0.63751  0.22964  0.77393  1.0000
  H   H1262     1.0  0.61312  0.36506  0.96875  1.0000
  C   C1576     1.0  0.64380  0.37421  0.78049  1.0000
  C   C1577     1.0  0.61473  0.27429  0.79677  1.0000
  C   C1578     1.0  0.96161  0.28806  0.77615  1.0000
  C   C1579     1.0  0.54050  0.37160  0.98667  1.0000
  H   H1263     1.0  0.55685  0.10310  0.82440  1.0000
  H   H1264     1.0  0.66107  0.29792  0.85125  1.0000
  C   C1580     1.0  0.56419  0.40343  0.90537  1.0000
  S   S215      1.0  0.70211  0.47786  0.84239  1.0000
  C   C1581     1.0  0.78061  0.14535  0.95070  1.0000
  H   H1265     1.0  0.80973  0.15135  0.76490  1.0000
  H   H1266     1.0  0.74157  0.08275  0.97351  1.0000
  H   H1267     1.0  0.54302  0.38112  0.84701  1.0000
  H   H1268     1.0  0.59523  0.44800  0.90243  1.0000
  C   C1582     1.0  0.52622  0.41314  0.86766  1.0000
  C   C1583     1.0  0.91712  0.13821  0.75572  1.0000
  H   H1269     1.0  0.84670  0.17946  0.75306  1.0000
  H   H1270     1.0  0.53682  0.39510  0.95243  1.0000
  C   C1584     1.0  0.66694  0.08800  0.98055  1.0000
  H   H1271     1.0  0.79922  0.14304  0.81123  1.0000
  C   C1585     1.0  0.60479  0.44917  0.92108  1.0000
  C   C1586     1.0  0.52741  0.42864  0.88982  1.0000
  H   H1272     1.0  0.89872  0.06514  0.93453  1.0000
  Fe  Fe105     1.0  0.57826  0.26832  0.98294  1.0000
  C   C1587     1.0  0.55004  0.38402  0.96437  1.0000
  C   C1588     1.0  0.55897  0.14393  0.81536  1.0000
  H   H1273     1.0  0.64608  0.08940  0.98245  1.0000
  H   H1274     1.0  0.96534  0.18525  0.90375  1.0000
  C   C1589     1.0  0.61915  0.47138  0.92681  1.0000
  C   C1590     1.0  0.72076  0.08459  0.97548  1.0000
  H   H1275     1.0  0.90621  0.30067  0.80076  1.0000
  H   H1276     1.0  0.57921  0.31730  0.75787  1.0000
  H   H1277     1.0  0.91639  0.44664  0.79707  1.0000
  C   C1591     1.0  0.84148  0.17710  0.77333  1.0000
  C   C1592     1.0  0.89776  0.33744  0.81842  1.0000
  C   C1593     1.0  0.69735  0.29007  0.75887  1.0000
  H   H1278     1.0  0.89695  0.47738  0.82832  1.0000
  C   C1594     1.0  0.63681  0.26692  0.83779  1.0000
  C   C1595     1.0  0.93294  0.06109  0.82928  1.0000
  C   C1596     1.0  0.88783  0.04368  0.90047  1.0000
  H   H1279     1.0  0.89819  0.06638  0.85154  1.0000
  C   C1597     1.0  0.90011  0.25301  0.76146  1.0000
  C   C1598     1.0  0.53947  0.27696  0.76774  1.0000
  C   C1599     1.0  0.70982  0.10437  0.99069  1.0000
  C   C1600     1.0  0.83759  0.47945  0.85945  1.0000
  C   C1601     1.0  0.88280  0.05738  0.92335  1.0000
  C   C1602     1.0  0.91029  0.05249  0.84149  1.0000
  C   C1603     1.0  0.77630  0.03413  0.98099  1.0000
  C   C1604     1.0  0.55926  0.26865  0.78455  1.0000
  C   C1605     1.0  0.84809  0.03772  0.81394  1.0000
  P   P53       1.0  0.66087  0.37128  0.74999  1.0000
  C   C1606     1.0  0.64662  0.11581  0.88855  1.0000
  C   C1607     1.0  0.96846  0.24593  0.79823  1.0000
  H   H1280     1.0  0.82221  0.14730  0.95122  1.0000
  C   C1608     1.0  0.70488  0.06639  0.96337  1.0000
  H   H1281     1.0  0.60704  0.36018  0.76593  1.0000
  H   H1282     1.0  0.63952  0.25531  0.85511  1.0000
  C   C1609     1.0  0.56918  0.12009  0.82348  1.0000
  H   H1283     1.0  0.96587  0.05045  0.80584  1.0000
  H   H1284     1.0  0.85333  0.46631  0.86414  1.0000
  H   H1285     1.0  0.66612  0.03606  0.78774  1.0000
  C   C1610     1.0  0.64928  0.09522  0.90614  1.0000
  H   H1286     1.0  0.96828  0.23449  0.81589  1.0000
  H   H1287     1.0  0.53870  0.14545  0.81012  1.0000
  H   H1288     1.0  0.64789  0.09890  0.92678  1.0000
  C   C1611     1.0  0.52834  0.26910  0.82029  1.0000
  C   C1612     1.0  0.57489  0.16579  0.81409  1.0000
  C   C1613     1.0  0.96188  0.27266  0.79892  1.0000
  H   H1289     1.0  0.91797  0.34213  0.82149  1.0000
  C   C1614     1.0  0.68275  0.10613  0.99287  1.0000
  H   H1290     1.0  0.85005  0.48484  0.82008  1.0000
  Fe  Fe106     1.0  0.53385  0.40114  0.76356  1.0000
  H   H1291     1.0  0.97379  0.23805  0.96757  1.0000
  C   C1615     1.0  0.84176  0.03817  0.89394  1.0000
  H   H1292     1.0  0.62068  0.44485  0.76644  1.0000
  C   C1616     1.0  0.50920  0.27869  0.80369  1.0000
  H   H1293     1.0  0.56783  0.25755  0.82439  1.0000
  H   H1294     1.0  0.49989  0.28980  0.76439  1.0000
  S   S216      1.0  0.99146  0.16829  0.84392  1.0000
  S   S217      1.0  0.56863  0.42703  0.75872  1.0000
  H   H1295     1.0  0.82557  0.03089  0.88296  1.0000
  H   H1296     1.0  0.52023  0.37317  0.99183  1.0000
  H   H1297     1.0  0.64387  0.45282  0.98516  1.0000
  H   H1298     1.0  0.70114  0.21565  0.99086  1.0000
  H   H1299     1.0  0.62324  0.31136  0.77865  1.0000
  H   H1300     1.0  0.77905  0.15155  0.93060  1.0000
  C   C1617     1.0  0.83569  0.49008  0.83446  1.0000
  C   C1618     1.0  0.77192  0.01172  0.99625  1.0000
  H   H1301     1.0  0.62034  0.48699  0.91268  1.0000
  C   C1619     1.0  0.58322  0.35463  0.99577  1.0000
  C   C1620     1.0  0.97817  0.23260  0.94773  1.0000
  H   H1302     1.0  0.95382  0.00398  0.80382  1.0000
  C   C1621     1.0  0.69931  0.44041  0.75374  1.0000
  H   H1303     1.0  0.70423  0.10541  0.75109  1.0000
  H   H1304     1.0  0.72682  0.30922  0.78123  1.0000
  C   C1622     1.0  0.67614  0.33980  0.75153  1.0000
  C   C1623     1.0  0.70946  0.31169  0.76969  1.0000
  Fe  Fe107     1.0  0.93866  0.35583  0.75251  1.0000
  C   C1624     1.0  0.62480  0.19234  0.76079  1.0000
  H   H1305     1.0  0.64391  0.18369  0.76214  1.0000
  C   C1625     1.0  0.99030  0.21808  0.89690  1.0000
  H   H1306     1.0  0.64477  0.48971  0.95403  1.0000
  H   H1307     1.0  0.78835  0.02884  0.78757  1.0000
  C   C1626     1.0  0.94165  0.01745  0.81450  1.0000
  H   H1308     1.0  0.79691  0.47887  0.76124  1.0000
  C   C1627     1.0  0.57943  0.18887  0.74969  1.0000
  C   C1628     1.0  0.96780  0.27603  0.75258  1.0000
  C   C1629     1.0  0.60399  0.17762  0.75180  1.0000
  H   H1309     1.0  0.55654  0.22339  0.75434  1.0000
  C   C1630     1.0  0.69884  0.33647  0.76616  1.0000
  C   C1631     1.0  0.97467  0.24936  0.75193  1.0000
  H   H1310     1.0  0.96846  0.33877  0.83433  1.0000
  H   H1311     1.0  0.76896  0.48660  0.80519  1.0000
  C   C1632     1.0  0.80358  0.00749  0.82021  1.0000
  H   H1312     1.0  0.86059  0.00371  0.94639  1.0000
  C   C1633     1.0  0.82698  0.33716  0.75006  1.0000
  H   H1313     1.0  0.80733  0.55010  0.15826  1.0000
  H   H1314     1.0  0.87827  0.96421  0.19978  1.0000
  C   C1634     1.0  0.97563  0.82665  0.07411  1.0000
  C   C1635     1.0  0.89640  0.97660  0.07270  1.0000
  S   S218      1.0  0.82834  0.96403  0.16716  1.0000
  H   H1315     1.0  0.82853  0.53577  0.22833  1.0000
  Fe  Fe108     1.0  0.81172  0.95089  0.12924  1.0000
  S   S219      1.0  0.80354  0.90867  0.12113  1.0000
  S   S220      1.0  0.77822  0.97893  0.12904  1.0000
  Fe  Fe109     1.0  0.91236  0.73978  0.08807  1.0000
  S   S221      1.0  0.91229  0.73087  0.04526  1.0000
  S   S222      1.0  0.91988  0.70546  0.11498  1.0000
  Fe  Fe110     1.0  0.89750  0.79623  0.07778  1.0000
  S   S223      1.0  0.89539  0.79015  0.03469  1.0000
  S   S224      1.0  0.89942  0.83701  0.09394  1.0000
  Fe  Fe111     1.0  0.87410  0.75286  0.04473  1.0000
  S   S225      1.0  0.83978  0.73148  0.02504  1.0000
  Fe  Fe112     1.0  0.93362  0.76888  0.03966  1.0000
  S   S226      1.0  0.96755  0.78354  0.01369  1.0000
  S   S227      1.0  0.87400  0.76066  0.08782  1.0000
  S   S228      1.0  0.93576  0.77588  0.08252  1.0000
  Fe  Fe113     1.0  0.63282  0.68749  0.04349  1.0000
  S   S229      1.0  0.63962  0.72517  0.02271  1.0000
  S   S230      1.0  0.61593  0.68821  0.08395  1.0000
  H   H1316     1.0  0.72220  0.93975  0.22982  1.0000
  H   H1317     1.0  0.96555  0.82550  0.05569  1.0000
  H   H1318     1.0  0.54778  0.62813  0.09117  1.0000
  S   S231      1.0  0.67155  0.67098  0.03375  1.0000
  Fe  Fe114     1.0  0.58651  0.58111  0.18482  1.0000
  S   S232      1.0  0.54343  0.58166  0.18879  1.0000
  S   S233      1.0  0.60590  0.58201  0.14532  1.0000
  Fe  Fe115     1.0  0.54845  0.54604  0.21419  1.0000
  S   S234      1.0  0.52229  0.51238  0.19986  1.0000
  S   S235      1.0  0.59236  0.60859  0.21788  1.0000
  S   S236      1.0  0.59184  0.54496  0.20886  1.0000
  C   C1636     1.0  0.87169  0.89616  0.03301  1.0000
  H   H1319     1.0  0.50044  0.55055  0.00881  1.0000
  C   C1637     1.0  0.61258  0.65844  0.10039  1.0000
  C   C1638     1.0  0.60039  0.65791  0.12476  1.0000
  C   C1639     1.0  0.59812  0.63452  0.13868  1.0000
  C   C1640     1.0  0.60788  0.61152  0.12815  1.0000
  C   C1641     1.0  0.61989  0.61200  0.10366  1.0000
  C   C1642     1.0  0.62224  0.63542  0.08977  1.0000
  H   H1320     1.0  0.59274  0.67566  0.13291  1.0000
  H   H1321     1.0  0.58894  0.63425  0.15758  1.0000
  H   H1322     1.0  0.62762  0.59425  0.09556  1.0000
  H   H1323     1.0  0.63173  0.63572  0.07102  1.0000
  H   H1324     1.0  0.80268  0.69455  0.00572  1.0000
  C   C1643     1.0  0.76268  0.75216  0.03228  1.0000
  C   C1644     1.0  0.79007  0.75238  0.03433  1.0000
  C   C1645     1.0  0.80488  0.73173  0.02461  1.0000
  C   C1646     1.0  0.78027  0.97011  0.24772  1.0000
  C   C1647     1.0  0.78592  0.55644  0.12290  1.0000
  C   C1648     1.0  0.54270  0.90782  0.23880  1.0000
  H   H1325     1.0  0.79975  0.76883  0.04290  1.0000
  C   C1649     1.0  0.82991  0.88953  0.11084  1.0000
  C   C1650     1.0  0.82584  0.86365  0.10355  1.0000
  C   C1651     1.0  0.84694  0.84737  0.09757  1.0000
  C   C1652     1.0  0.87217  0.85698  0.09898  1.0000
  C   C1653     1.0  0.87614  0.88313  0.10534  1.0000
  C   C1654     1.0  0.85506  0.89943  0.11105  1.0000
  H   H1326     1.0  0.80636  0.85601  0.10306  1.0000
  H   H1327     1.0  0.84374  0.82727  0.09251  1.0000
  H   H1328     1.0  0.89563  0.89070  0.10624  1.0000
  H   H1329     1.0  0.85830  0.91944  0.11636  1.0000
  H   H1330     1.0  0.93499  0.88904  0.22009  1.0000
  C   C1655     1.0  0.75874  0.90766  0.21098  1.0000
  C   C1656     1.0  0.96472  0.70355  0.19203  1.0000
  C   C1657     1.0  0.95670  0.68071  0.18000  1.0000
  C   C1658     1.0  0.94320  0.68181  0.15637  1.0000
  C   C1659     1.0  0.93775  0.70565  0.14428  1.0000
  C   C1660     1.0  0.94615  0.72860  0.15599  1.0000
  C   C1661     1.0  0.95954  0.72752  0.17985  1.0000
  H   H1331     1.0  0.96081  0.66215  0.18893  1.0000
  H   H1332     1.0  0.93697  0.66403  0.14738  1.0000
  H   H1333     1.0  0.94197  0.74708  0.14687  1.0000
  H   H1334     1.0  0.96564  0.74525  0.18908  1.0000
  C   C1662     1.0  0.83645  0.81787  0.16021  1.0000
  H   H1335     1.0  0.83417  0.79974  0.14986  1.0000
  C   C1663     1.0  0.84928  0.59648  0.21245  1.0000
  H   H1336     1.0  0.77998  0.87913  0.04435  1.0000
  H   H1337     1.0  0.60380  0.50510  0.08699  1.0000
  H   H1338     1.0  0.75455  0.69391  0.00291  1.0000
  C   C1664     1.0  0.60600  0.79205  0.24363  1.0000
  C   C1665     1.0  0.92535  0.89960  0.20463  1.0000
  P   P54       1.0  0.89420  0.85581  0.19937  1.0000
  C   C1666     1.0  0.55646  0.62749  0.00025  1.0000
  H   H1339     1.0  0.66870  0.55287  0.06126  1.0000
  C   C1667     1.0  0.86992  0.96282  0.21907  1.0000
  H   H1340     1.0  0.81051  0.96973  0.05409  1.0000
  H   H1341     1.0  0.77454  0.99329  0.03407  1.0000
  H   H1342     1.0  0.75554  0.91017  0.07183  1.0000
  S   S237      1.0  0.61266  0.66871  0.01027  1.0000
  C   C1668     1.0  0.55801  0.71739  0.05801  1.0000
  C   C1669     1.0  0.96951  0.84629  0.09169  1.0000
  S   S238      1.0  0.98116  0.70271  0.22221  1.0000
  C   C1670     1.0  0.93371  0.92468  0.19827  1.0000
  C   C1671     1.0  0.95806  0.80092  0.16886  1.0000
  C   C1672     1.0  0.89904  0.87123  0.00405  1.0000
  C   C1673     1.0  0.94112  0.81328  0.15168  1.0000
  C   C1674     1.0  0.88270  0.69351  0.21617  1.0000
  C   C1675     1.0  0.50883  0.63024  0.14436  1.0000
  H   H1343     1.0  0.77068  0.95552  0.07605  1.0000
  C   C1676     1.0  0.90368  0.67648  0.21816  1.0000
  C   C1677     1.0  0.80423  0.94989  0.05179  1.0000
  C   C1678     1.0  0.92184  0.93843  0.17806  1.0000
  H   H1344     1.0  0.64610  0.97648  0.21755  1.0000
  C   C1679     1.0  0.86298  0.59085  0.18954  1.0000
  H   H1345     1.0  0.50102  0.75056  0.05619  1.0000
  C   C1680     1.0  0.92839  0.60994  0.14634  1.0000
  H   H1346     1.0  0.98190  0.75677  0.10963  1.0000
  C   C1681     1.0  0.86921  0.98477  0.23478  1.0000
  H   H1347     1.0  0.52252  0.68983  0.14942  1.0000
  H   H1348     1.0  0.80375  0.87355  0.17355  1.0000
  C   C1682     1.0  0.76419  0.71022  0.01175  1.0000
  H   H1349     1.0  0.96953  0.79619  0.20876  1.0000
  H   H1350     1.0  0.75415  0.89474  0.14640  1.0000
  H   H1351     1.0  0.81935  0.89315  0.02132  1.0000
  H   H1352     1.0  0.76893  0.92048  0.22405  1.0000
  H   H1353     1.0  0.90949  0.84004  0.14751  1.0000
  C   C1683     1.0  0.77279  0.91644  0.06161  1.0000
  H   H1354     1.0  0.66884  0.61277  0.03604  1.0000
  H   H1355     1.0  0.65030  0.62873  0.23477  1.0000
  H   H1356     1.0  0.79513  0.96016  0.23676  1.0000
  H   H1357     1.0  0.53978  0.66413  0.01077  1.0000
  H   H1358     1.0  0.84453  0.69967  0.20062  1.0000
  H   H1359     1.0  0.88605  0.81000  0.23183  1.0000
  C   C1684     1.0  0.90465  0.88832  0.19116  1.0000
  C   C1685     1.0  0.81927  0.85939  0.17371  1.0000
  H   H1360     1.0  0.97258  0.78761  0.16147  1.0000
  C   C1686     1.0  0.84293  0.63868  0.09453  1.0000
  H   H1361     1.0  0.65191  0.75642  0.21253  1.0000
  C   C1687     1.0  0.74943  0.73116  0.02091  1.0000
  C   C1688     1.0  0.81849  0.93237  0.03660  1.0000
  C   C1689     1.0  0.75036  0.89330  0.16711  1.0000
  C   C1690     1.0  0.73235  0.87538  0.17659  1.0000
  C   C1691     1.0  0.72728  0.87374  0.20328  1.0000
  C   C1692     1.0  0.76352  0.90946  0.18429  1.0000
  H   H1362     1.0  0.56307  0.51260  0.15938  1.0000
  C   C1693     1.0  0.66386  0.61867  0.01650  1.0000
  H   H1363     1.0  0.57873  0.72074  0.05826  1.0000
  H   H1364     1.0  0.93619  0.82621  0.22569  1.0000
  C   C1694     1.0  0.55154  0.67565  0.17587  1.0000
  C   C1695     1.0  0.63814  0.98540  0.23486  1.0000
  H   H1365     1.0  0.72695  0.69170  0.05672  1.0000
  Fe  Fe116     1.0  0.59390  0.57246  0.24272  1.0000
  H   H1366     1.0  0.91969  0.63985  0.20711  1.0000
  C   C1696     1.0  0.55169  0.71865  0.15689  1.0000
  C   C1697     1.0  0.95623  0.80573  0.19551  1.0000
  H   H1367     1.0  0.84045  0.59106  0.14028  1.0000
  C   C1698     1.0  0.58397  0.51182  0.12313  1.0000
  H   H1368     1.0  0.54255  0.65687  0.17840  1.0000
  H   H1369     1.0  0.72216  0.86292  0.16318  1.0000
  H   H1370     1.0  0.71309  0.85991  0.21016  1.0000
  C   C1699     1.0  0.86649  0.62392  0.14152  1.0000
  C   C1700     1.0  0.79278  0.56181  0.14856  1.0000
  C   C1701     1.0  0.68602  0.56463  0.05994  1.0000
  C   C1702     1.0  0.54023  0.69427  0.15967  1.0000
  C   C1703     1.0  0.53305  0.93305  0.24093  1.0000
  C   C1704     1.0  0.88130  0.64543  0.19096  1.0000
  C   C1705     1.0  0.85995  0.66235  0.18975  1.0000
  C   C1706     1.0  0.86072  0.68637  0.20222  1.0000
  C   C1707     1.0  0.63614  0.61690  0.00744  1.0000
  C   C1708     1.0  0.83645  0.57670  0.22599  1.0000
  C   C1709     1.0  0.90304  0.65254  0.20555  1.0000
  C   C1710     1.0  0.87402  0.64681  0.12863  1.0000
  C   C1711     1.0  0.86238  0.65408  0.10521  1.0000
  S   S239      1.0  0.97789  0.62475  0.22940  1.0000
  C   C1712     1.0  0.96538  0.58704  0.16426  1.0000
  C   C1713     1.0  0.95082  0.58057  0.18624  1.0000
  C   C1714     1.0  0.92516  0.58899  0.18844  1.0000
  H   H1371     1.0  0.84298  0.65723  0.17862  1.0000
  H   H1372     1.0  0.54842  0.57068  0.03316  1.0000
  C   C1715     1.0  0.69940  0.56648  0.03637  1.0000
  C   C1716     1.0  0.58502  0.77516  0.24139  1.0000
  C   C1717     1.0  0.78145  0.94195  0.06417  1.0000
  H   H1373     1.0  0.88891  0.65920  0.13669  1.0000
  H   H1374     1.0  0.86859  0.67171  0.09538  1.0000
  C   C1718     1.0  0.83763  0.55115  0.21714  1.0000
  H   H1375     1.0  0.96551  0.60685  0.12734  1.0000
  H   H1376     1.0  0.91442  0.58428  0.20595  1.0000
  C   C1719     1.0  0.50458  0.70887  0.05755  1.0000
  P   P55       1.0  0.61599  0.71286  0.20291  1.0000
  C   C1720     1.0  0.58620  0.70551  0.18625  1.0000
  C   C1721     1.0  0.64271  0.71305  0.17995  1.0000
  C   C1722     1.0  0.63839  0.71406  0.15300  1.0000
  C   C1723     1.0  0.65926  0.71342  0.13563  1.0000
  C   C1724     1.0  0.68458  0.71158  0.14490  1.0000
  C   C1725     1.0  0.68909  0.71045  0.17163  1.0000
  C   C1726     1.0  0.66828  0.71121  0.18909  1.0000
  C   C1727     1.0  0.57437  0.68120  0.18917  1.0000
  H   H1377     1.0  0.89261  0.93775  0.14837  1.0000
  H   H1378     1.0  0.94243  0.80965  0.13098  1.0000
  C   C1728     1.0  0.55912  0.60120  0.00651  1.0000
  C   C1729     1.0  0.57451  0.72434  0.17026  1.0000
  C   C1730     1.0  0.62231  0.68852  0.22754  1.0000
  H   H1379     1.0  0.69146  0.65332  0.11736  1.0000
  H   H1380     1.0  0.86240  0.89808  0.05182  1.0000
  C   C1731     1.0  0.63593  0.66578  0.22111  1.0000
  C   C1732     1.0  0.53018  0.62434  0.12870  1.0000
  H   H1381     1.0  0.61907  0.71502  0.14505  1.0000
  H   H1382     1.0  0.65569  0.71409  0.11487  1.0000
  H   H1383     1.0  0.70064  0.71097  0.13129  1.0000
  H   H1384     1.0  0.70873  0.70889  0.17881  1.0000
  H   H1385     1.0  0.67210  0.71013  0.20974  1.0000
  H   H1386     1.0  0.58250  0.66643  0.20177  1.0000
  P   P56       1.0  0.50933  0.65485  0.05802  1.0000
  C   C1733     1.0  0.89326  0.90205  0.17051  1.0000
  H   H1387     1.0  0.61340  0.95318  0.24341  1.0000
  H   H1388     1.0  0.58318  0.74333  0.16794  1.0000
  H   H1389     1.0  0.77735  0.92347  0.17681  1.0000
  C   C1734     1.0  0.54636  0.59106  0.02826  1.0000
  H   H1390     1.0  0.64278  0.66267  0.20149  1.0000
  H   H1391     1.0  0.97738  0.86259  0.12922  1.0000
  H   H1392     1.0  0.95960  0.56957  0.20194  1.0000
  H   H1393     1.0  0.78312  0.86371  0.24296  1.0000
  C   C1735     1.0  0.80923  0.90693  0.03351  1.0000
  C   C1736     1.0  0.86805  0.91512  0.01361  1.0000
  C   C1737     1.0  0.71700  0.59377  0.08002  1.0000
  C   C1738     1.0  0.69478  0.57815  0.08172  1.0000
  P   P57       1.0  0.72921  0.61055  0.10826  1.0000
  C   C1739     1.0  0.75437  0.59155  0.12375  1.0000
  C   C1740     1.0  0.74193  0.64153  0.09761  1.0000
  C   C1741     1.0  0.76624  0.65032  0.10605  1.0000
  C   C1742     1.0  0.77625  0.67380  0.09669  1.0000
  H   H1394     1.0  0.64624  0.79832  0.23475  1.0000
  H   H1395     1.0  0.88368  0.71233  0.22517  1.0000
  C   C1743     1.0  0.72792  0.65659  0.07967  1.0000
  C   C1744     1.0  0.76157  0.59699  0.14946  1.0000
  C   C1745     1.0  0.78072  0.58217  0.16178  1.0000
  C   C1746     1.0  0.76680  0.57123  0.11050  1.0000
  C   C1747     1.0  0.70291  0.61505  0.13116  1.0000
  C   C1748     1.0  0.69662  0.59496  0.14864  1.0000
  C   C1749     1.0  0.67541  0.59743  0.16540  1.0000
  C   C1750     1.0  0.66033  0.61994  0.16490  1.0000
  C   C1751     1.0  0.66649  0.64009  0.14774  1.0000
  C   C1752     1.0  0.68764  0.63770  0.13087  1.0000
  H   H1396     1.0  0.85283  0.52541  0.18801  1.0000
  C   C1753     1.0  0.73042  0.59539  0.05627  1.0000
  C   C1754     1.0  0.85137  0.54535  0.19447  1.0000
  H   H1397     1.0  0.91081  0.85413  0.00040  1.0000
  H   H1398     1.0  0.68400  0.57640  0.09970  1.0000
  H   H1399     1.0  0.77773  0.63909  0.11957  1.0000
  H   H1400     1.0  0.79513  0.68044  0.10295  1.0000
  H   H1401     1.0  0.69538  0.97652  0.24327  1.0000
  C   C1755     1.0  0.78665  0.89895  0.04624  1.0000
  C   C1756     1.0  0.93713  0.82259  0.20503  1.0000
  H   H1402     1.0  0.75222  0.61257  0.16004  1.0000
  H   H1403     1.0  0.78603  0.58623  0.18172  1.0000
  H   H1404     1.0  0.76166  0.56652  0.09072  1.0000
  H   H1405     1.0  0.70758  0.57701  0.14885  1.0000
  H   H1406     1.0  0.67010  0.58157  0.17826  1.0000
  H   H1407     1.0  0.64325  0.62125  0.17713  1.0000
  H   H1408     1.0  0.65424  0.65718  0.14685  1.0000
  H   H1409     1.0  0.82005  0.60405  0.09900  1.0000
  H   H1410     1.0  0.92077  0.68200  0.22899  1.0000
  C   C1757     1.0  0.53113  0.60725  0.04387  1.0000
  H   H1411     1.0  0.74772  0.60712  0.05449  1.0000
  C   C1758     1.0  0.83514  0.61597  0.10730  1.0000
  H   H1412     1.0  0.62146  0.60927  0.02040  1.0000
  P   P58       1.0  0.84748  0.94291  0.01988  1.0000
  H   H1413     1.0  0.83401  0.64439  0.07633  1.0000
  H   H1414     1.0  0.79815  0.83171  0.15090  1.0000
  C   C1759     1.0  0.95414  0.60164  0.14428  1.0000
  C   C1760     1.0  0.81613  0.83580  0.16087  1.0000
  H   H1415     1.0  0.91116  0.97036  0.08630  1.0000
  C   C1761     1.0  0.50912  0.64496  0.09176  1.0000
  S   S240      1.0  0.83712  0.97654  0.10513  1.0000
  C   C1762     1.0  0.91376  0.60391  0.16859  1.0000
  S   S241      1.0  0.52393  0.64353  0.22944  1.0000
  Fe  Fe117     1.0  0.54941  0.60683  0.22420  1.0000
  Fe  Fe118     1.0  0.98249  0.66488  0.24549  1.0000
  C   C1763     1.0  0.90170  0.92706  0.16412  1.0000
  H   H1416     1.0  0.52110  0.59900  0.06044  1.0000
  H   H1417     1.0  0.79523  0.54056  0.11270  1.0000
  C   C1764     1.0  0.50445  0.69300  0.23410  1.0000
  P   P59       1.0  0.88098  0.61572  0.17248  1.0000
  H   H1418     1.0  0.92026  0.62140  0.13073  1.0000
  H   H1419     1.0  0.84482  0.88361  0.19543  1.0000
  C   C1765     1.0  0.61210  0.74430  0.21802  1.0000
  H   H1420     1.0  0.96930  0.71485  0.09060  1.0000
  H   H1421     1.0  0.51519  0.93836  0.23118  1.0000
  H   H1422     1.0  0.88990  0.93832  0.05827  1.0000
  C   C1766     1.0  0.86003  0.82361  0.17215  1.0000
  H   H1423     1.0  0.70931  0.65007  0.07263  1.0000
  C   C1767     1.0  0.86408  0.96625  0.04005  1.0000
  H   H1424     1.0  0.56204  0.67597  0.05970  1.0000
  C   C1768     1.0  0.84686  0.60859  0.13071  1.0000
  C   C1769     1.0  0.86359  0.84764  0.18448  1.0000
  H   H1425     1.0  0.87539  0.80932  0.17134  1.0000
  C   C1770     1.0  0.73788  0.68013  0.07055  1.0000
  C   C1771     1.0  0.84275  0.86516  0.18577  1.0000
  C   C1772     1.0  0.54845  0.69202  0.05860  1.0000
  C   C1773     1.0  0.79161  0.71065  0.01340  1.0000
  H   H1426     1.0  0.58957  0.53206  0.12424  1.0000
  C   C1774     1.0  0.63314  0.76135  0.22043  1.0000
  H   H1427     1.0  0.87509  0.56025  0.16349  1.0000
  H   H1428     1.0  0.98545  0.58097  0.16289  1.0000
  Fe  Fe119     1.0  0.85062  0.99308  0.14310  1.0000
  H   H1429     1.0  0.54652  0.61384  0.13683  1.0000
  C   C1775     1.0  0.74037  0.89000  0.22066  1.0000
  H   H1430     1.0  0.82656  0.58090  0.24408  1.0000
  C   C1776     1.0  0.52165  0.68758  0.05771  1.0000
  H   H1431     1.0  0.57150  0.73851  0.22743  1.0000
  C   C1777     1.0  0.86394  0.56512  0.18067  1.0000
  C   C1778     1.0  0.54095  0.73845  0.05699  1.0000
  H   H1432     1.0  0.54848  0.75806  0.05624  1.0000
  C   C1779     1.0  0.88707  0.87433  0.02819  1.0000
  H   H1433     1.0  0.84942  0.61579  0.22057  1.0000
  H   H1434     1.0  0.95449  0.86028  0.08697  1.0000
  Fe  Fe120     1.0  0.67811  0.70743  0.01100  1.0000
  H   H1435     1.0  0.54288  0.73315  0.14441  1.0000
  H   H1436     1.0  0.53233  0.89358  0.22743  1.0000
  H   H1437     1.0  0.94944  0.93348  0.20895  1.0000
  H   H1438     1.0  0.69232  0.55641  0.01933  1.0000
  H   H1439     1.0  0.88956  0.85964  0.04314  1.0000
  H   H1440     1.0  0.87800  0.89348  0.15913  1.0000
  C   C1780     1.0  0.76207  0.68871  0.07896  1.0000
  H   H1441     1.0  0.81442  0.64957  0.23488  1.0000
  H   H1442     1.0  0.55406  0.71378  0.00162  1.0000
  H   H1443     1.0  0.92814  0.95795  0.17319  1.0000
  S   S242      1.0  0.71464  0.73247  0.01845  1.0000
  C   C1781     1.0  0.98232  0.84746  0.11552  1.0000
  C   C1782     1.0  0.88409  0.95843  0.05684  1.0000
  C   C1783     1.0  0.98922  0.72131  0.08923  1.0000
  C   C1784     1.0  0.52920  0.63389  0.03822  1.0000
  H   H1444     1.0  0.70467  0.62926  0.00420  1.0000
  C   C1785     1.0  0.50280  0.71859  0.24351  1.0000
  C   C1786     1.0  0.92230  0.83038  0.16110  1.0000
  C   C1787     1.0  0.91952  0.83443  0.18788  1.0000
  C   C1788     1.0  0.54156  0.64380  0.01598  1.0000
  C   C1789     1.0  0.72158  0.58184  0.03455  1.0000
  H   H1445     1.0  0.75166  0.76853  0.03944  1.0000
  H   H1446     1.0  0.76990  0.70682  0.07153  1.0000
  C   C1790     1.0  0.53060  0.63213  0.10264  1.0000
  C   C1791     1.0  0.85662  0.99252  0.03948  1.0000
  H   H1447     1.0  0.73172  0.58337  0.01613  1.0000
  C   C1792     1.0  0.58802  0.75139  0.22871  1.0000
  H   H1448     1.0  0.50608  0.71824  0.00268  1.0000
  C   C1793     1.0  0.63003  0.78516  0.23310  1.0000
  C   C1794     1.0  0.64024  0.64652  0.23986  1.0000
  C   C1795     1.0  0.76686  0.99095  0.23609  1.0000
  C   C1796     1.0  0.99639  0.74516  0.09980  1.0000
  H   H1449     1.0  0.88875  0.89300  0.24278  1.0000
  H   H1450     1.0  0.50857  0.62428  0.16462  1.0000
  Fe  Fe121     1.0  0.79618  0.99341  0.16640  1.0000
  H   H1451     1.0  0.85902  0.92288  0.21519  1.0000
  C   C1797     1.0  0.52472  0.67631  0.24144  1.0000
  C   C1798     1.0  0.85901  0.93961  0.22778  1.0000
  C   C1799     1.0  0.88877  0.85187  0.23386  1.0000
  C   C1800     1.0  0.88521  0.82689  0.24430  1.0000
  C   C1801     1.0  0.56905  0.50086  0.14296  1.0000
  C   C1802     1.0  0.99414  0.80787  0.08054  1.0000
  C   C1803     1.0  0.51424  0.73420  0.05696  1.0000
  C   C1804     1.0  0.71236  0.93869  0.24833  1.0000
  H   H1452     1.0  0.67862  0.87793  0.24878  1.0000
  P   P60       1.0  0.58441  0.96723  0.29089  1.0000
  S   S243      1.0  0.95185  0.65987  0.27596  1.0000
  H   H1453     1.0  0.81410  0.53375  0.42544  1.0000
  Fe  Fe122     1.0  0.98298  0.64433  0.30169  1.0000
  C   C1805     1.0  0.68408  0.95932  0.27977  1.0000
  H   H1454     1.0  0.67266  0.97588  0.28583  1.0000
  H   H1455     1.0  0.62909  0.91685  0.37892  1.0000
  S   S244      1.0  0.81123  0.53760  0.37103  1.0000
  S   S245      1.0  0.85460  0.51579  0.31488  1.0000
  Fe  Fe123     1.0  0.75569  0.51824  0.32420  1.0000
  S   S246      1.0  0.74839  0.53266  0.36472  1.0000
  C   C1806     1.0  0.97401  0.60516  0.43265  1.0000
  Fe  Fe124     1.0  0.77898  0.56216  0.35546  1.0000
  S   S247      1.0  0.77566  0.60547  0.36158  1.0000
  S   S248      1.0  0.78432  0.54938  0.31418  1.0000
  Fe  Fe125     1.0  0.88668  0.72398  0.42762  1.0000
  S   S249      1.0  0.84371  0.71789  0.42871  1.0000
  S   S250      1.0  0.90530  0.73259  0.38888  1.0000
  Fe  Fe126     1.0  0.85248  0.68746  0.45862  1.0000
  S   S251      1.0  0.83428  0.64758  0.46061  1.0000
  Fe  Fe127     1.0  0.84396  0.74614  0.46166  1.0000
  S   S252      1.0  0.81071  0.77521  0.46450  1.0000
  S   S253      1.0  0.89563  0.69104  0.45485  1.0000
  S   S254      1.0  0.88653  0.75441  0.45865  1.0000
  Fe  Fe128     1.0  0.74018  0.94353  0.35992  1.0000
  S   S255      1.0  0.74097  0.89997  0.36133  1.0000
  S   S256      1.0  0.74488  0.96516  0.32041  1.0000
  Fe  Fe129     1.0  0.73002  0.94680  0.42033  1.0000
  S   S257      1.0  0.73172  0.90339  0.42487  1.0000
  S   S258      1.0  0.71767  0.97538  0.45294  1.0000
  Fe  Fe130     1.0  0.76534  0.90424  0.39708  1.0000
  S   S259      1.0  0.80164  0.87904  0.39695  1.0000
  Fe  Fe131     1.0  0.70737  0.90232  0.38879  1.0000
  S   S260      1.0  0.67413  0.87380  0.39062  1.0000
  S   S261      1.0  0.76619  0.94813  0.39485  1.0000
  S   S262      1.0  0.70396  0.94561  0.38497  1.0000
  Fe  Fe132     1.0  0.52218  0.80178  0.29093  1.0000
  S   S263      1.0  0.55085  0.80859  0.32304  1.0000
  C   C1807     1.0  0.69681  0.95964  0.25578  1.0000
  Fe  Fe133     1.0  0.56092  0.84517  0.30165  1.0000
  S   S264      1.0  0.60201  0.85760  0.29286  1.0000
  S   S265      1.0  0.53412  0.83748  0.26822  1.0000
  C   C1808     1.0  0.61614  0.54284  0.33880  1.0000
  C   C1809     1.0  0.78501  0.87313  0.26162  1.0000
  H   H1456     1.0  0.50650  0.93024  0.30127  1.0000
  H   H1457     1.0  0.69724  0.76822  0.35512  1.0000
  C   C1810     1.0  0.71524  0.91713  0.26487  1.0000
  C   C1811     1.0  0.84756  0.93831  0.25240  1.0000
  P   P61       1.0  0.86311  0.54171  0.45177  1.0000
  C   C1812     1.0  0.64309  0.52301  0.43477  1.0000
  H   H1458     1.0  0.91701  0.53479  0.46890  1.0000
  H   H1459     1.0  0.94660  0.56286  0.49379  1.0000
  H   H1460     1.0  0.70427  0.90057  0.30194  1.0000
  C   C1813     1.0  0.82999  0.54696  0.46176  1.0000
  H   H1461     1.0  0.84301  0.67850  0.25962  1.0000
  C   C1814     1.0  0.75491  0.97487  0.28820  1.0000
  H   H1462     1.0  0.60634  0.56122  0.33570  1.0000
  S   S266      1.0  0.53247  0.87021  0.32320  1.0000
  Fe  Fe134     1.0  0.81433  0.52241  0.33054  1.0000
  H   H1463     1.0  0.72890  0.93618  0.49383  1.0000
  C   C1815     1.0  0.77437  0.96217  0.27365  1.0000
  S   S267      1.0  0.90678  0.60926  0.25514  1.0000
  H   H1464     1.0  0.78502  0.94638  0.28238  1.0000
  C   C1816     1.0  0.65471  0.86899  0.36311  1.0000
  C   C1817     1.0  0.63222  0.85396  0.36539  1.0000
  C   C1818     1.0  0.61584  0.85054  0.34396  1.0000
  C   C1819     1.0  0.62211  0.86188  0.32004  1.0000
  C   C1820     1.0  0.64475  0.87673  0.31769  1.0000
  C   C1821     1.0  0.66097  0.88036  0.33925  1.0000
  H   H1465     1.0  0.62727  0.84526  0.38390  1.0000
  H   H1466     1.0  0.59841  0.83912  0.34594  1.0000
  H   H1467     1.0  0.64949  0.88584  0.29933  1.0000
  H   H1468     1.0  0.67810  0.89222  0.33771  1.0000
  C   C1822     1.0  0.80849  0.80376  0.44521  1.0000
  C   C1823     1.0  0.82785  0.81071  0.42745  1.0000
  C   C1824     1.0  0.82551  0.83382  0.41283  1.0000
  C   C1825     1.0  0.80371  0.85003  0.41559  1.0000
  C   C1826     1.0  0.78413  0.84278  0.43297  1.0000
  C   C1827     1.0  0.78659  0.81984  0.44777  1.0000
  H   H1469     1.0  0.84482  0.79853  0.42533  1.0000
  H   H1470     1.0  0.84079  0.83928  0.39950  1.0000
  H   H1471     1.0  0.76730  0.85506  0.43530  1.0000
  H   H1472     1.0  0.77157  0.81466  0.46150  1.0000
  C   C1828     1.0  0.79148  0.61724  0.38929  1.0000
  C   C1829     1.0  0.80314  0.64176  0.38850  1.0000
  C   C1830     1.0  0.81627  0.65132  0.41028  1.0000
  C   C1831     1.0  0.81695  0.63681  0.43329  1.0000
  C   C1832     1.0  0.80426  0.61279  0.43441  1.0000
  C   C1833     1.0  0.79208  0.60273  0.41227  1.0000
  H   H1473     1.0  0.80252  0.65311  0.37085  1.0000
  H   H1474     1.0  0.82601  0.66977  0.40912  1.0000
  H   H1475     1.0  0.80462  0.60156  0.45219  1.0000
  H   H1476     1.0  0.78295  0.58389  0.41298  1.0000
  C   C1834     1.0  0.69682  0.52671  0.28918  1.0000
  C   C1835     1.0  0.69257  0.54972  0.30284  1.0000
  C   C1836     1.0  0.66993  0.56444  0.29843  1.0000
  C   C1837     1.0  0.65157  0.55660  0.27994  1.0000
  H   H1477     1.0  0.78977  0.61473  0.25755  1.0000
  C   C1838     1.0  0.67847  0.51886  0.27069  1.0000
  H   H1478     1.0  0.70676  0.55611  0.31682  1.0000
  H   H1479     1.0  0.66665  0.58201  0.30936  1.0000
  H   H1480     1.0  0.85121  0.60368  0.37949  1.0000
  C   C1839     1.0  0.98403  0.72093  0.41314  1.0000
  C   C1840     1.0  0.89354  0.58442  0.27436  1.0000
  C   C1841     1.0  0.71763  0.56706  0.42186  1.0000
  C   C1842     1.0  0.89592  0.54144  0.29358  1.0000
  C   C1843     1.0  0.86962  0.54279  0.30034  1.0000
  C   C1844     1.0  0.85559  0.56542  0.29496  1.0000
  C   C1845     1.0  0.86751  0.58611  0.28183  1.0000
  H   H1481     1.0  0.68162  0.55893  0.35650  1.0000
  H   H1482     1.0  0.83735  0.95899  0.28689  1.0000
  H   H1483     1.0  0.83547  0.56682  0.30045  1.0000
  C   C1846     1.0  0.61244  0.52266  0.32120  1.0000
  C   C1847     1.0  0.96205  0.67291  0.35613  1.0000
  C   C1848     1.0  0.95377  0.69381  0.34083  1.0000
  C   C1849     1.0  0.93612  0.71193  0.35098  1.0000
  C   C1850     1.0  0.92651  0.70903  0.37631  1.0000
  C   C1851     1.0  0.93446  0.68785  0.39136  1.0000
  C   C1852     1.0  0.95228  0.66989  0.38131  1.0000
  H   H1484     1.0  0.96150  0.69640  0.32146  1.0000
  H   H1485     1.0  0.93009  0.72836  0.33931  1.0000
  H   H1486     1.0  0.92737  0.68558  0.41091  1.0000
  H   H1487     1.0  0.95848  0.65364  0.39305  1.0000
  C   C1853     1.0  0.83482  0.73910  0.36663  1.0000
  C   C1854     1.0  0.80827  0.73549  0.37029  1.0000
  C   C1855     1.0  0.79554  0.71550  0.35727  1.0000
  C   C1856     1.0  0.80936  0.69904  0.34064  1.0000
  C   C1857     1.0  0.83612  0.70242  0.33712  1.0000
  C   C1858     1.0  0.84868  0.72263  0.35016  1.0000
  P   P62       1.0  0.85483  0.68181  0.31580  1.0000
  C   C1859     1.0  0.87564  0.66025  0.33395  1.0000
  C   C1860     1.0  0.83423  0.66090  0.29691  1.0000
  C   C1861     1.0  0.82089  0.64062  0.30938  1.0000
  C   C1862     1.0  0.80477  0.62422  0.29522  1.0000
  H   H1488     1.0  0.66952  0.80558  0.28912  1.0000
  H   H1489     1.0  0.55644  0.71902  0.28131  1.0000
  C   C1863     1.0  0.83207  0.66382  0.26988  1.0000
  C   C1864     1.0  0.89041  0.64162  0.32063  1.0000
  C   C1865     1.0  0.90676  0.62477  0.33423  1.0000
  C   C1866     1.0  0.90806  0.62603  0.36128  1.0000
  C   C1867     1.0  0.89277  0.64397  0.37473  1.0000
  C   C1868     1.0  0.87672  0.66116  0.36116  1.0000
  C   C1869     1.0  0.87319  0.70383  0.29549  1.0000
  C   C1870     1.0  0.86046  0.72447  0.28292  1.0000
  H   H1490     1.0  0.51771  0.89229  0.42079  1.0000
  C   C1871     1.0  0.64713  0.51638  0.36269  1.0000
  H   H1491     1.0  0.50579  0.64961  0.29947  1.0000
  C   C1872     1.0  0.90025  0.70205  0.29381  1.0000
  H   H1492     1.0  0.84492  0.75422  0.37713  1.0000
  H   H1493     1.0  0.79773  0.74794  0.38356  1.0000
  H   H1494     1.0  0.77501  0.71256  0.36029  1.0000
  H   H1495     1.0  0.79908  0.68371  0.33084  1.0000
  H   H1496     1.0  0.86934  0.72547  0.34780  1.0000
  H   H1497     1.0  0.82290  0.63741  0.33011  1.0000
  S   S268      1.0  0.72458  0.50714  0.29493  1.0000
  H   H1498     1.0  0.82894  0.88047  0.31033  1.0000
  C   C1873     1.0  0.96897  0.62998  0.44277  1.0000
  C   C1874     1.0  0.81598  0.64729  0.25572  1.0000
  H   H1499     1.0  0.88959  0.64039  0.29965  1.0000
  H   H1500     1.0  0.91855  0.61086  0.32370  1.0000
  H   H1501     1.0  0.92107  0.61324  0.37174  1.0000
  H   H1502     1.0  0.89376  0.64509  0.39567  1.0000
  H   H1503     1.0  0.86546  0.67514  0.37205  1.0000
  H   H1504     1.0  0.83962  0.72647  0.28448  1.0000
  C   C1875     1.0  0.63314  0.53963  0.35968  1.0000
  H   H1505     1.0  0.70143  0.53022  0.43273  1.0000
  H   H1506     1.0  0.71688  0.80388  0.29742  1.0000
  H   H1507     1.0  0.91069  0.68697  0.30403  1.0000
  H   H1508     1.0  0.62185  0.53069  0.47002  1.0000
  C   C1876     1.0  0.87250  0.56991  0.36702  1.0000
  C   C1877     1.0  0.78404  0.54321  0.45253  1.0000
  H   H1509     1.0  0.58847  0.90003  0.35975  1.0000
  C   C1878     1.0  0.72469  0.83997  0.27756  1.0000
  H   H1510     1.0  0.50335  0.97833  0.30159  1.0000
  C   C1879     1.0  0.52139  0.72842  0.26059  1.0000
  C   C1880     1.0  0.75863  0.70555  0.41726  1.0000
  H   H1511     1.0  0.59588  0.91310  0.27702  1.0000
  C   C1881     1.0  0.86716  0.55239  0.41851  1.0000
  C   C1882     1.0  0.81104  0.88243  0.29955  1.0000
  C   C1883     1.0  0.70641  0.58308  0.37911  1.0000
  C   C1884     1.0  0.98544  0.68446  0.44329  1.0000
  H   H1512     1.0  0.87395  0.57634  0.34700  1.0000
  C   C1885     1.0  0.99313  0.69618  0.41981  1.0000
  C   C1886     1.0  0.85727  0.57663  0.41096  1.0000
  S   S269      1.0  0.55061  0.57138  0.25030  1.0000
  C   C1887     1.0  0.71522  0.82863  0.48328  1.0000
  C   C1888     1.0  0.59933  0.95054  0.31801  1.0000
  C   C1889     1.0  0.71666  0.80155  0.48316  1.0000
  C   C1890     1.0  0.80834  0.87078  0.27523  1.0000
  C   C1891     1.0  0.69080  0.56131  0.37515  1.0000
  C   C1892     1.0  0.80986  0.54086  0.44469  1.0000
  C   C1893     1.0  0.63051  0.64954  0.26500  1.0000
  H   H1513     1.0  0.93866  0.65653  0.45445  1.0000
  H   H1514     1.0  0.96282  0.68996  0.47859  1.0000
  C   C1894     1.0  0.68206  0.82073  0.28165  1.0000
  S   S270      1.0  0.97739  0.60294  0.28983  1.0000
  H   H1515     1.0  0.73255  0.60245  0.40505  1.0000
  H   H1516     1.0  0.70903  0.59721  0.36366  1.0000
  H   H1517     1.0  0.49890  0.94461  0.37293  1.0000
  C   C1895     1.0  0.62815  0.51598  0.45639  1.0000
  H   H1518     1.0  0.63310  0.63412  0.27921  1.0000
  C   C1896     1.0  0.70214  0.54517  0.41791  1.0000
  H   H1519     1.0  0.63198  0.97676  0.32104  1.0000
  C   C1897     1.0  0.80220  0.62761  0.26842  1.0000
  Fe  Fe135     1.0  0.78136  0.50644  0.37692  1.0000
  S   S271      1.0  0.84951  0.71502  0.49225  1.0000
  H   H1520     1.0  0.84771  0.58887  0.42496  1.0000
  H   H1521     1.0  0.85647  0.60336  0.27715  1.0000
  C   C1898     1.0  0.88080  0.82354  0.27094  1.0000
  H   H1522     1.0  0.49800  0.67939  0.33626  1.0000
  C   C1899     1.0  0.85967  0.58526  0.38530  1.0000
  C   C1900     1.0  0.63842  0.78819  0.39763  1.0000
  C   C1901     1.0  0.63471  0.78049  0.37192  1.0000
  C   C1902     1.0  0.65592  0.77297  0.35679  1.0000
  C   C1903     1.0  0.68089  0.77341  0.36728  1.0000
  C   C1904     1.0  0.68483  0.78139  0.39303  1.0000
  C   C1905     1.0  0.66335  0.78864  0.40819  1.0000
  P   P63       1.0  0.71745  0.78467  0.40536  1.0000
  C   C1906     1.0  0.71653  0.80183  0.43590  1.0000
  H   H1523     1.0  0.60886  0.67411  0.29091  1.0000
  H   H1524     1.0  0.59990  0.52554  0.30455  1.0000
  H   H1525     1.0  0.78242  0.99719  0.36009  1.0000
  H   H1526     1.0  0.72854  0.56911  0.43965  1.0000
  C   C1907     1.0  0.71456  0.82901  0.43622  1.0000
  C   C1908     1.0  0.73542  0.80440  0.38244  1.0000
  C   C1909     1.0  0.72230  0.82169  0.36579  1.0000
  C   C1910     1.0  0.73606  0.83676  0.34790  1.0000
  C   C1911     1.0  0.76306  0.83540  0.34700  1.0000
  C   C1912     1.0  0.77630  0.81875  0.36386  1.0000
  C   C1913     1.0  0.76258  0.80330  0.38151  1.0000
  H   H1527     1.0  0.62201  0.79440  0.40922  1.0000
  H   H1528     1.0  0.61543  0.78072  0.36362  1.0000
  H   H1529     1.0  0.65303  0.76723  0.33680  1.0000
  H   H1530     1.0  0.66577  0.79533  0.42793  1.0000
  C   C1914     1.0  0.88682  0.87348  0.25032  1.0000
  C   C1915     1.0  0.62534  0.49905  0.32473  1.0000
  C   C1916     1.0  0.76419  0.88722  0.27224  1.0000
  S   S272      1.0  0.51303  0.83254  0.38553  1.0000
  H   H1531     1.0  0.71370  0.84007  0.41829  1.0000
  H   H1532     1.0  0.70150  0.82421  0.36702  1.0000
  H   H1533     1.0  0.72574  0.85032  0.33551  1.0000
  H   H1534     1.0  0.77381  0.84795  0.33399  1.0000
  H   H1535     1.0  0.79729  0.81856  0.36401  1.0000
  H   H1536     1.0  0.77340  0.79130  0.39491  1.0000
  C   C1917     1.0  0.62061  0.92642  0.36214  1.0000
  C   C1918     1.0  0.57828  0.91896  0.26716  1.0000
  C   C1919     1.0  0.85796  0.98375  0.25959  1.0000
  C   C1920     1.0  0.87459  0.74287  0.26873  1.0000
  C   C1921     1.0  0.91433  0.72029  0.27940  1.0000
  C   C1922     1.0  0.73338  0.75351  0.40977  1.0000
  H   H1537     1.0  0.89289  0.53414  0.36013  1.0000
  C   C1923     1.0  0.63284  0.94793  0.35103  1.0000
  C   C1924     1.0  0.76711  0.89882  0.29665  1.0000
  C   C1925     1.0  0.79047  0.89652  0.31017  1.0000
  Fe  Fe136     1.0  0.94869  0.61922  0.26143  1.0000
  Fe  Fe137     1.0  0.51949  0.83270  0.34177  1.0000
  H   H1538     1.0  0.75161  0.91003  0.30523  1.0000
  H   H1539     1.0  0.79251  0.90562  0.32906  1.0000
  H   H1540     1.0  0.50406  0.72918  0.31724  1.0000
  C   C1926     1.0  0.73626  0.70697  0.40208  1.0000
  H   H1541     1.0  0.67730  0.93778  0.31507  1.0000
  C   C1927     1.0  0.71405  0.86120  0.26404  1.0000
  C   C1928     1.0  0.96023  0.72310  0.45357  1.0000
  H   H1542     1.0  0.60355  0.81046  0.25355  1.0000
  C   C1929     1.0  0.87723  0.58694  0.47779  1.0000
  C   C1930     1.0  0.68734  0.86160  0.25888  1.0000
  H   H1543     1.0  0.76877  0.53820  0.43906  1.0000
  C   C1931     1.0  0.94317  0.63798  0.44597  1.0000
  H   H1544     1.0  0.49866  0.82243  0.43854  1.0000
  C   C1932     1.0  0.58697  0.92909  0.32953  1.0000
  H   H1545     1.0  0.91229  0.58591  0.42026  1.0000
  C   C1933     1.0  0.70220  0.91691  0.28884  1.0000
  H   H1546     1.0  0.76849  0.68712  0.42015  1.0000
  H   H1547     1.0  0.70621  0.73128  0.38683  1.0000
  C   C1934     1.0  0.71696  0.78815  0.45959  1.0000
  C   C1935     1.0  0.87948  0.84510  0.28726  1.0000
  H   H1548     1.0  0.87856  0.80421  0.27904  1.0000
  H   H1549     1.0  0.90295  0.62869  0.44012  1.0000
  C   C1936     1.0  0.90796  0.56235  0.28081  1.0000
  C   C1937     1.0  0.54364  0.68599  0.25847  1.0000
  H   H1550     1.0  0.82424  0.85974  0.26701  1.0000
  H   H1551     1.0  0.85827  0.59451  0.47272  1.0000
  H   H1552     1.0  0.54744  0.85563  0.42919  1.0000
  C   C1938     1.0  0.91022  0.55348  0.47567  1.0000
  H   H1553     1.0  0.63579  0.55553  0.37307  1.0000
  H   H1554     1.0  0.79442  0.60877  0.30515  1.0000
  C   C1939     1.0  0.67144  0.84149  0.26773  1.0000
  C   C1940     1.0  0.52997  0.74806  0.34332  1.0000
  C   C1941     1.0  0.53365  0.75787  0.36829  1.0000
  C   C1942     1.0  0.88090  0.53748  0.40025  1.0000
  H   H1555     1.0  0.64803  0.54323  0.43182  1.0000
  C   C1943     1.0  0.84701  0.96029  0.26828  1.0000
  C   C1944     1.0  0.90155  0.74075  0.26695  1.0000
  C   C1945     1.0  0.56549  0.90089  0.25164  1.0000
  C   C1946     1.0  0.54195  0.71189  0.26806  1.0000
  S   S273      1.0  0.51789  0.76136  0.27170  1.0000
  C   C1947     1.0  0.65602  0.53380  0.26594  1.0000
  C   C1948     1.0  0.50684  0.73566  0.33702  1.0000
  C   C1949     1.0  0.88326  0.54612  0.37452  1.0000
  H   H1556     1.0  0.86463  0.75869  0.25908  1.0000
  C   C1950     1.0  0.88234  0.87007  0.27693  1.0000
  H   H1557     1.0  0.74513  0.83917  0.28202  1.0000
  H   H1558     1.0  0.54470  0.75063  0.32850  1.0000
  H   H1559     1.0  0.55121  0.76830  0.37293  1.0000
  H   H1560     1.0  0.71250  0.86328  0.45995  1.0000
  H   H1561     1.0  0.94717  0.73338  0.46651  1.0000
  H   H1562     1.0  0.78551  0.72694  0.44088  1.0000
  C   C1951     1.0  0.77810  0.55153  0.47764  1.0000
  C   C1952     1.0  0.51339  0.89013  0.48691  1.0000
  C   C1953     1.0  0.68672  0.93790  0.29626  1.0000
  H   H1563     1.0  0.76360  0.76883  0.43443  1.0000
  C   C1954     1.0  0.92283  0.62216  0.43784  1.0000
  C   C1955     1.0  0.95361  0.58936  0.42450  1.0000
  H   H1564     1.0  0.95761  0.57054  0.41604  1.0000
  C   C1956     1.0  0.61682  0.67204  0.27154  1.0000
  H   H1565     1.0  0.71786  0.76717  0.45998  1.0000
  S   S274      1.0  0.98563  0.65118  0.34470  1.0000
  H   H1566     1.0  0.88125  0.88679  0.28961  1.0000
  C   C1957     1.0  0.59770  0.91699  0.35137  1.0000
  C   C1958     1.0  0.56823  0.94415  0.27012  1.0000
  C   C1959     1.0  0.71120  0.97347  0.48733  1.0000
  H   H1567     1.0  0.90688  0.52401  0.29785  1.0000
  C   C1960     1.0  0.75580  0.75177  0.42509  1.0000
  Fe  Fe138     1.0  0.89235  0.72075  0.48640  1.0000
  H   H1568     1.0  0.93525  0.71860  0.27809  1.0000
  H   H1569     1.0  0.55921  0.67335  0.26462  1.0000
  C   C1961     1.0  0.76829  0.72795  0.42886  1.0000
  C   C1962     1.0  0.74241  0.99617  0.27667  1.0000
  C   C1963     1.0  0.54282  0.85716  0.47085  1.0000
  S   S275      1.0  0.62294  0.57537  0.27592  1.0000
  C   C1964     1.0  0.88489  0.56185  0.47028  1.0000
  H   H1570     1.0  0.99363  0.59805  0.43064  1.0000
  H   H1571     1.0  0.87626  0.84245  0.30795  1.0000
  H   H1572     1.0  0.83852  0.92050  0.25897  1.0000
  C   C1965     1.0  0.71383  0.84230  0.45984  1.0000
  C   C1966     1.0  0.92805  0.59799  0.42685  1.0000
  C   C1967     1.0  0.50909  0.89864  0.46140  1.0000
  H   H1573     1.0  0.65062  0.95515  0.35945  1.0000
  C   C1968     1.0  0.65122  0.50406  0.41699  1.0000
  C   C1969     1.0  0.72362  0.73081  0.39838  1.0000
  C   C1970     1.0  0.53822  0.86548  0.44538  1.0000
  C   C1971     1.0  0.71981  0.58596  0.40243  1.0000
  H   H1574     1.0  0.57306  0.88133  0.24991  1.0000
  C   C1972     1.0  0.62224  0.96003  0.32911  1.0000
  H   H1575     1.0  0.72872  0.68950  0.39326  1.0000
  H   H1576     1.0  0.56906  0.92161  0.32163  1.0000
  C   C1973     1.0  0.96920  0.69836  0.46031  1.0000
  H   H1577     1.0  0.92809  0.56095  0.27506  1.0000
  C   C1974     1.0  0.52134  0.88616  0.44064  1.0000
  H   H1578     1.0  0.88963  0.51913  0.40561  1.0000
  C   C1975     1.0  0.68835  0.54227  0.39461  1.0000
  H   H1579     1.0  0.55579  0.84090  0.47410  1.0000
  P   P64       1.0  0.73368  0.88888  0.25511  1.0000
  H   H1580     1.0  0.51205  0.81881  0.48804  1.0000
  C   C1976     1.0  0.96738  0.73426  0.42988  1.0000
  H   H1581     1.0  0.51684  0.76309  0.40624  1.0000
  C   C1977     1.0  0.70870  0.81985  0.28637  1.0000
  C   C1978     1.0  0.54576  0.95119  0.25644  1.0000
  H   H1582     1.0  0.82627  0.97776  0.36319  1.0000
  C   C1979     1.0  0.79805  0.55694  0.49508  1.0000
  H   H1583     1.0  0.56636  0.78045  0.24956  1.0000
  H   H1584     1.0  0.60166  0.70848  0.25830  1.0000
  C   C1980     1.0  0.51431  0.75488  0.38708  1.0000
  P   P65       1.0  0.67020  0.51290  0.38888  1.0000
  C   C1981     1.0  0.82392  0.55420  0.48735  1.0000
  C   C1982     1.0  0.91898  0.59398  0.49780  1.0000
  C   C1983     1.0  0.53019  0.86923  0.49180  1.0000
  H   H1585     1.0  0.88359  0.50981  0.49472  1.0000
  H   H1586     1.0  0.65068  0.84247  0.26457  1.0000
  C   C1984     1.0  0.86783  0.50716  0.45587  1.0000
  H   H1587     1.0  0.95947  0.75296  0.42422  1.0000
  H   H1588     1.0  0.75810  0.55347  0.48367  1.0000
  H   H1589     1.0  0.53750  0.97041  0.25802  1.0000
  C   C1985     1.0  0.89407  0.60275  0.49181  1.0000
  C   C1986     1.0  0.60896  0.98373  0.27198  1.0000
  H   H1590     1.0  0.98332  0.61208  0.49116  1.0000
  H   H1591     1.0  0.91261  0.75480  0.25584  1.0000
  C   C1987     1.0  0.56154  0.99098  0.30299  1.0000
  H   H1592     1.0  0.64199  0.52746  0.25178  1.0000
  H   H1593     1.0  0.98894  0.72930  0.39443  1.0000
  H   H1594     1.0  0.85822  0.98485  0.32797  1.0000
  C   C1988     1.0  0.61276  0.69150  0.25292  1.0000
  C   C1989     1.0  0.82128  0.98973  0.34656  1.0000
  C   C1990     1.0  0.92712  0.56943  0.48958  1.0000
  H   H1595     1.0  0.68163  0.50109  0.26001  1.0000
  Fe  Fe139     1.0  0.50467  0.86049  0.29131  1.0000
  C   C1991     1.0  0.83924  0.99375  0.32657  1.0000
  H   H1596     1.0  0.55811  0.97403  0.34151  1.0000
  C   C1992     1.0  0.61951  0.97224  0.24962  1.0000
  P   P66       1.0  0.99524  0.65156  0.45125  1.0000
  C   C1993     1.0  0.55195  0.98939  0.32853  1.0000
  H   H1597     1.0  0.88787  0.62206  0.49758  1.0000
  H   H1598     1.0  0.64215  0.83407  0.53805  1.0000
  C   C1994     1.0  0.61263  0.93172  0.60561  1.0000
  S   S276      1.0  0.53993  0.91142  0.72254  1.0000
  C   C1995     1.0  0.58783  0.86637  0.51883  1.0000
  C   C1996     1.0  0.61644  0.95058  0.58640  1.0000
  S   S277      1.0  0.92286  0.72457  0.51815  1.0000
  H   H1599     1.0  0.51674  0.84618  0.62139  1.0000
  H   H1600     1.0  0.51376  0.83185  0.57093  1.0000
  C   C1997     1.0  0.89588  0.56875  0.72380  1.0000
  H   H1601     1.0  0.93207  0.60644  0.50840  1.0000
  S   S278      1.0  0.69849  0.97313  0.57718  1.0000
  C   C1998     1.0  0.55627  0.84177  0.60823  1.0000
  H   H1602     1.0  0.63591  0.96017  0.55055  1.0000
  S   S279      1.0  0.96946  0.64279  0.66882  1.0000
  H   H1603     1.0  0.66172  0.94576  0.68881  1.0000
  C   C1999     1.0  0.50831  0.82051  0.55421  1.0000
  H   H1604     1.0  0.64632  0.88208  0.57771  1.0000
  C   C2000     1.0  0.96492  0.53489  0.70118  1.0000
  C   C2001     1.0  0.94274  0.51897  0.69992  1.0000
  S   S280      1.0  0.66640  0.98756  0.64742  1.0000
  H   H1605     1.0  0.88695  0.60563  0.70601  1.0000
  H   H1606     1.0  0.60131  0.93657  0.62268  1.0000
  C   C2002     1.0  0.64297  0.91926  0.66263  1.0000
  C   C2003     1.0  0.62399  0.90712  0.60319  1.0000
  C   C2004     1.0  0.97967  0.54847  0.60098  1.0000
  C   C2005     1.0  0.70227  0.97359  0.54239  1.0000
  H   H1607     1.0  0.52624  0.88409  0.64904  1.0000
  C   C2006     1.0  0.71899  0.95237  0.50277  1.0000
  C   C2007     1.0  0.58155  0.85130  0.60975  1.0000
  H   H1608     1.0  0.58227  0.88416  0.50899  1.0000
  C   C2008     1.0  0.71470  0.95255  0.53001  1.0000
  C   C2009     1.0  0.64239  0.92029  0.56166  1.0000
  C   C2010     1.0  0.53637  0.85353  0.62246  1.0000
  H   H1609     1.0  0.55141  0.92244  0.59311  1.0000
  H   H1610     1.0  0.72143  0.93637  0.54164  1.0000
  C   C2011     1.0  0.93385  0.69899  0.53857  1.0000
  C   C2012     1.0  0.95073  0.70473  0.55916  1.0000
  C   C2013     1.0  0.95996  0.68499  0.57582  1.0000
  C   C2014     1.0  0.95253  0.65923  0.57188  1.0000
  C   C2015     1.0  0.93586  0.65345  0.55114  1.0000
  C   C2016     1.0  0.92649  0.67320  0.53458  1.0000
  H   H1611     1.0  0.95653  0.72462  0.56233  1.0000
  H   H1612     1.0  0.97287  0.68969  0.59160  1.0000
  H   H1613     1.0  0.65135  0.79360  0.64135  1.0000
  H   H1614     1.0  0.91353  0.66854  0.51882  1.0000
  C   C2017     1.0  0.55255  0.93351  0.69929  1.0000
  C   C2018     1.0  0.57624  0.94589  0.70414  1.0000
  C   C2019     1.0  0.58731  0.96281  0.68563  1.0000
  C   C2020     1.0  0.57446  0.96784  0.66229  1.0000
  C   C2021     1.0  0.55060  0.95572  0.65754  1.0000
  C   C2022     1.0  0.53970  0.93861  0.67591  1.0000
  H   H1615     1.0  0.58607  0.94238  0.72233  1.0000
  H   H1616     1.0  0.60560  0.97216  0.68957  1.0000
  H   H1617     1.0  0.54051  0.95957  0.63955  1.0000
  H   H1618     1.0  0.52147  0.92928  0.67193  1.0000
  C   C2023     1.0  0.56889  0.84908  0.52808  1.0000
  C   C2024     1.0  0.66978  0.86395  0.62178  1.0000
  H   H1619     1.0  0.67553  0.88375  0.61749  1.0000
  C   C2025     1.0  0.57668  0.82632  0.54101  1.0000
  H   H1620     1.0  0.92433  0.52769  0.69505  1.0000
  C   C2026     1.0  0.68194  0.81901  0.62861  1.0000
  C   C2027     1.0  0.61433  0.88782  0.68277  1.0000
  C   C2028     1.0  0.63686  0.91914  0.70931  1.0000
  C   C2029     1.0  0.63180  0.94508  0.56472  1.0000
  C   C2030     1.0  0.58727  0.87208  0.62628  1.0000
  Fe  Fe140     1.0  0.98718  0.63606  0.62928  1.0000
  H   H1621     1.0  0.60808  0.96972  0.58879  1.0000
  C   C2031     1.0  0.61414  0.86097  0.52247  1.0000
  C   C2032     1.0  0.69378  0.99433  0.52685  1.0000
  C   C2033     1.0  0.64852  0.92955  0.68709  1.0000
  C   C2034     1.0  0.63809  0.90117  0.58057  1.0000
  C   C2035     1.0  0.89563  0.59585  0.72253  1.0000
  C   C2036     1.0  0.63746  0.83265  0.63523  1.0000
  C   C2037     1.0  0.64383  0.85802  0.62748  1.0000
  S   S281      1.0  0.58715  0.98928  0.63855  1.0000
  H   H1622     1.0  0.60120  0.87153  0.68157  1.0000
  C   C2038     1.0  0.62174  0.83827  0.53533  1.0000
  H   H1623     1.0  0.70862  0.84918  0.61737  1.0000
  H   H1624     1.0  0.56254  0.81264  0.54833  1.0000
  S   S282      1.0  0.96466  0.63337  0.59129  1.0000
  H   H1625     1.0  0.71537  0.83908  0.50149  1.0000
  H   H1626     1.0  0.79351  0.56308  0.51467  1.0000
  C   C2039     1.0  0.60303  0.82093  0.54454  1.0000
  C   C2040     1.0  0.65639  0.81316  0.63544  1.0000
  H   H1627     1.0  0.65236  0.92749  0.64566  1.0000
  H   H1628     1.0  0.59668  0.84226  0.59833  1.0000
  C   C2041     1.0  0.51538  0.82834  0.52901  1.0000
  P   P67       1.0  0.62008  0.88374  0.62909  1.0000
  H   H1629     1.0  0.61803  0.82796  0.64163  1.0000
  C   C2042     1.0  0.90847  0.55605  0.74427  1.0000
  C   C2043     1.0  0.62559  0.89849  0.66029  1.0000
  H   H1630     1.0  0.65453  0.91625  0.54495  1.0000
  C   C2044     1.0  0.61976  0.89830  0.70715  1.0000
  H   H1631     1.0  0.50498  0.92746  0.60437  1.0000
  H   H1632     1.0  0.62864  0.87441  0.51527  1.0000
  H   H1633     1.0  0.57085  0.90087  0.65215  1.0000
  H   H1634     1.0  0.83905  0.55768  0.50139  1.0000
  C   C2045     1.0  0.97833  0.53777  0.62595  1.0000
  C   C2046     1.0  0.54175  0.87488  0.63814  1.0000
  H   H1635     1.0  0.92999  0.63360  0.54803  1.0000
  C   C2047     1.0  0.56707  0.88425  0.63994  1.0000
  H   H1636     1.0  0.96352  0.55970  0.59349  1.0000
  Fe  Fe141     1.0  0.98653  0.60343  0.67994  1.0000
  H   H1637     1.0  0.55212  0.82512  0.59626  1.0000
  H   H1638     1.0  0.56480  0.89260  0.55852  1.0000
  C   C2048     1.0  0.54436  0.89496  0.56241  1.0000
  H   H1639     1.0  0.69667  0.80397  0.62901  1.0000
  C   C2049     1.0  0.49932  0.88427  0.55487  1.0000
  C   C2050     1.0  0.50719  0.81343  0.50774  1.0000
  C   C2051     1.0  0.68866  0.84444  0.62197  1.0000
  C   C2052     1.0  0.98853  0.52295  0.70742  1.0000
  H   H1640     1.0  0.60895  0.80327  0.55441  1.0000
  S   S283      1.0  0.96161  0.56955  0.69689  1.0000
  P   P68       1.0  0.53499  0.85711  0.52446  1.0000
  C   C2053     1.0  0.52563  0.88081  0.54867  1.0000
  H   H1641     1.0  0.96115  0.54062  0.63779  1.0000
  H   H1642     1.0  0.64078  0.92751  0.72817  1.0000
  H   H1643     1.0  0.71794  0.79093  0.50131  1.0000
  C   C2054     1.0  0.53687  0.91201  0.58215  1.0000
  H   H1644     1.0  0.61025  0.89060  0.72432  1.0000
  H   H1645     1.0  0.88741  0.55760  0.70822  1.0000
  C   C2055     1.0  0.51070  0.91497  0.58844  1.0000
  C   C2056     1.0  0.90729  0.61030  0.74217  1.0000
  C   C2057     1.0  0.69848  0.99437  0.49969  1.0000
  H   H1646     1.0  0.90963  0.53514  0.74410  1.0000
  H   H1647     1.0  0.50358  0.89978  0.50273  1.0000
  H   H1648     1.0  0.98924  0.61163  0.53885  1.0000
  C   C2058     1.0  0.99274  0.62831  0.50041  1.0000
  H   H1649     1.0  0.90759  0.63130  0.74087  1.0000
  Fe  Fe142     1.0  0.50074  0.89270  0.71580  1.0000
  C   C2059     1.0  0.99626  0.62784  0.52735  1.0000
  S   S284      1.0  0.49872  0.85275  0.69852  1.0000
  H   H1650     1.0  0.81819  0.56012  0.83768  1.0000
  C   C2060     1.0  0.94704  0.58931  0.85989  1.0000
  H   H1651     1.0  0.57770  0.84872  0.81550  1.0000
  H   H1652     1.0  0.62517  0.69309  0.91441  1.0000
  S   S285      1.0  0.66074  0.69023  0.97471  1.0000
  S   S286      1.0  0.66385  0.58726  0.97687  1.0000
  C   C2061     1.0  0.51366  0.81073  0.80671  1.0000
  S   S287      1.0  0.59211  0.72240  0.95952  1.0000
  C   C2062     1.0  0.55753  0.72513  0.96158  1.0000
  C   C2063     1.0  0.54349  0.73279  0.93940  1.0000
  C   C2064     1.0  0.51610  0.73444  0.93968  1.0000
  H   H1653     1.0  0.57007  0.80848  0.84079  1.0000
  C   C2065     1.0  0.79831  0.50180  0.87206  1.0000
  H   H1654     1.0  0.98458  0.80109  0.90019  1.0000
  H   H1655     1.0  0.55402  0.73762  0.92193  1.0000
  H   H1656     1.0  0.92930  0.60913  0.77744  1.0000
  H   H1657     1.0  0.56614  0.63536  0.98334  1.0000
  C   C2066     1.0  0.88328  0.94791  0.89789  1.0000
  C   C2067     1.0  0.55996  0.83789  0.81285  1.0000
  H   H1658     1.0  0.54444  0.86476  0.78447  1.0000
  C   C2068     1.0  0.71286  0.54115  0.91792  1.0000
  C   C2069     1.0  0.71778  0.56768  0.92168  1.0000
  C   C2070     1.0  0.70352  0.58211  0.94001  1.0000
  C   C2071     1.0  0.68425  0.57007  0.95495  1.0000
  C   C2072     1.0  0.67991  0.54334  0.95170  1.0000
  C   C2073     1.0  0.69396  0.52898  0.93316  1.0000
  H   H1659     1.0  0.73244  0.57720  0.91004  1.0000
  H   H1660     1.0  0.70738  0.60249  0.94220  1.0000
  H   H1661     1.0  0.66515  0.53383  0.96319  1.0000
  H   H1662     1.0  0.73740  0.55984  0.75084  1.0000
  C   C2074     1.0  0.72759  0.52384  0.76981  1.0000
  C   C2075     1.0  0.99137  0.54020  0.79365  1.0000
  C   C2076     1.0  0.80572  0.96905  0.95727  1.0000
  C   C2077     1.0  0.73662  0.50327  0.78507  1.0000
  H   H1663     1.0  0.72018  0.68878  0.90072  1.0000
  C   C2078     1.0  0.79635  0.51251  0.84715  1.0000
  H   H1664     1.0  0.97266  0.57245  0.83189  1.0000
  C   C2079     1.0  0.81497  0.50659  0.82808  1.0000
  C   C2080     1.0  0.53264  0.78646  0.89386  1.0000
  H   H1665     1.0  0.87054  0.92117  0.83900  1.0000
  C   C2081     1.0  0.52375  0.79520  0.91798  1.0000
  H   H1666     1.0  0.88163  0.59406  0.85424  1.0000
  H   H1667     1.0  0.91713  0.60505  0.88452  1.0000
  C   C2082     1.0  0.84494  0.60480  0.79716  1.0000
  C   C2083     1.0  0.96617  0.77493  0.92685  1.0000
  C   C2084     1.0  0.82592  0.56818  0.81985  1.0000
  H   H1668     1.0  0.95512  0.50943  0.75841  1.0000
  H   H1669     1.0  0.81632  0.99769  0.92872  1.0000
  C   C2085     1.0  0.94227  0.50277  0.77372  1.0000
  H   H1670     1.0  0.69286  0.64234  0.95759  1.0000
  H   H1671     1.0  0.69646  0.73020  0.89415  1.0000
  H   H1672     1.0  0.86767  0.51878  0.78073  1.0000
  H   H1673     1.0  0.88008  0.90845  0.88451  1.0000
  C   C2086     1.0  0.54368  0.71945  0.98429  1.0000
  H   H1674     1.0  0.87449  0.97929  0.98543  1.0000
  C   C2087     1.0  0.82272  0.98650  0.94541  1.0000
  C   C2088     1.0  0.91485  0.51119  0.81104  1.0000
  C   C2089     1.0  0.97360  0.55651  0.78086  1.0000
  C   C2090     1.0  0.50374  0.74811  0.79929  1.0000
  H   H1675     1.0  0.89132  0.57232  0.81257  1.0000
  C   C2091     1.0  0.81332  0.95531  0.97949  1.0000
  C   C2092     1.0  0.87372  0.93597  0.85354  1.0000
  C   C2093     1.0  0.77022  0.54338  0.77090  1.0000
  C   C2094     1.0  0.85532  0.97614  0.97761  1.0000
  H   H1676     1.0  0.63657  0.54563  0.90928  1.0000
  C   C2095     1.0  0.87911  0.92881  0.87918  1.0000
  C   C2096     1.0  0.50356  0.75073  0.82643  1.0000
  H   H1677     1.0  0.51725  0.75905  0.78744  1.0000
  C   C2097     1.0  0.85709  0.50480  0.76932  1.0000
  C   C2098     1.0  0.88017  0.91189  0.98938  1.0000
  C   C2099     1.0  0.83519  0.59367  0.81996  1.0000
  C   C2100     1.0  0.55547  0.73301  0.86639  1.0000
  H   H1678     1.0  0.85237  0.59929  0.75641  1.0000
  C   C2101     1.0  0.83806  0.95908  0.99009  1.0000
  C   C2102     1.0  0.92144  0.59547  0.86629  1.0000
  S   S288      1.0  0.73060  0.52405  0.89390  1.0000
  C   C2103     1.0  0.96952  0.75740  0.94733  1.0000
  H   H1679     1.0  0.68396  0.58887  0.85611  1.0000
  C   C2104     1.0  0.62923  0.62433  0.97968  1.0000
  C   C2105     1.0  0.93130  0.52048  0.79129  1.0000
  C   C2106     1.0  0.50224  0.72899  0.96248  1.0000
  P   P69       1.0  0.52666  0.77172  0.84210  1.0000
  C   C2107     1.0  0.55500  0.75156  0.84633  1.0000
  H   H1680     1.0  0.69676  0.64930  0.91403  1.0000
  H   H1681     1.0  0.78629  0.96683  0.94966  1.0000
  H   H1682     1.0  0.67330  0.62924  0.87904  1.0000
  C   C2108     1.0  0.83031  0.50148  0.77294  1.0000
  H   H1683     1.0  0.83451  0.60491  0.83770  1.0000
  H   H1684     1.0  0.53886  0.73065  0.87907  1.0000
  C   C2109     1.0  0.59880  0.72000  0.85382  1.0000
  C   C2110     1.0  0.59805  0.73767  0.83312  1.0000
  C   C2111     1.0  0.57616  0.75331  0.82925  1.0000
  C   C2112     1.0  0.53271  0.80088  0.82347  1.0000
  C   C2113     1.0  0.55565  0.81500  0.82700  1.0000
  C   C2114     1.0  0.57745  0.71758  0.87038  1.0000
  H   H1685     1.0  0.95284  0.74893  0.95696  1.0000
  H   H1686     1.0  0.66585  0.54694  0.87112  1.0000
  C   C2115     1.0  0.82625  0.55363  0.79684  1.0000
  C   C2116     1.0  0.88204  0.97419  0.89100  1.0000
  Fe  Fe143     1.0  0.62173  0.70515  0.98844  1.0000
  C   C2117     1.0  0.87637  0.98154  0.86533  1.0000
  C   C2118     1.0  0.51636  0.72175  0.98477  1.0000
  H   H1687     1.0  0.57795  0.70387  0.88643  1.0000
  C   C2119     1.0  0.93268  0.57057  0.81916  1.0000
  H   H1688     1.0  0.61585  0.70808  0.85694  1.0000
  H   H1689     1.0  0.61445  0.73928  0.82004  1.0000
  H   H1690     1.0  0.57575  0.76659  0.81290  1.0000
  H   H1691     1.0  0.79956  0.94233  0.98863  1.0000
  H   H1692     1.0  0.76282  0.99507  0.98742  1.0000
  H   H1693     1.0  0.60978  0.62100  0.97296  1.0000
  C   C2120     1.0  0.87233  0.96222  0.84662  1.0000
  H   H1694     1.0  0.78292  0.55898  0.76498  1.0000
  C   C2121     1.0  0.56609  0.66281  0.93431  1.0000
  C   C2122     1.0  0.55459  0.65318  0.91185  1.0000
  C   C2123     1.0  0.56950  0.63936  0.89393  1.0000
  C   C2124     1.0  0.59584  0.63497  0.89861  1.0000
  C   C2125     1.0  0.60747  0.64410  0.92150  1.0000
  C   C2126     1.0  0.59247  0.65861  0.93894  1.0000
  P   P70       1.0  0.64190  0.63955  0.92680  1.0000
  C   C2127     1.0  0.64978  0.63399  0.96099  1.0000
  C   C2128     1.0  0.65024  0.61041  0.90901  1.0000
  C   C2129     1.0  0.63905  0.58672  0.91652  1.0000
  C   C2130     1.0  0.64440  0.56400  0.90270  1.0000
  C   C2131     1.0  0.66086  0.56474  0.88116  1.0000
  C   C2132     1.0  0.67128  0.58837  0.87290  1.0000
  C   C2133     1.0  0.66566  0.61120  0.88645  1.0000
  C   C2134     1.0  0.67766  0.63594  0.97041  1.0000
  H   H1695     1.0  0.64890  0.73198  0.90101  1.0000
  H   H1696     1.0  0.88745  0.94235  0.91777  1.0000
  C   C2135     1.0  0.65903  0.66786  0.91484  1.0000
  C   C2136     1.0  0.64575  0.69143  0.91080  1.0000
  C   C2137     1.0  0.65921  0.71374  0.90324  1.0000
  C   C2138     1.0  0.68599  0.71277  0.89952  1.0000
  C   C2139     1.0  0.69935  0.68944  0.90328  1.0000
  C   C2140     1.0  0.68598  0.66711  0.91096  1.0000
  H   H1697     1.0  0.55469  0.67397  0.94798  1.0000
  H   H1698     1.0  0.53424  0.65677  0.90815  1.0000
  H   H1699     1.0  0.56071  0.63220  0.87627  1.0000
  H   H1700     1.0  0.60706  0.62458  0.88420  1.0000
  H   H1701     1.0  0.60130  0.66714  0.95585  1.0000
  H   H1702     1.0  0.62672  0.58567  0.93354  1.0000
  H   H1703     1.0  0.98477  0.52632  0.80807  1.0000
  C   C2141     1.0  0.83592  0.56505  0.77396  1.0000
  H   H1704     1.0  0.88544  0.98863  0.90575  1.0000
  H   H1705     1.0  0.94681  0.77984  0.92040  1.0000
  P   P71       1.0  0.93950  0.55451  0.78876  1.0000
  C   C2142     1.0  0.54122  0.84703  0.79546  1.0000
  C   C2143     1.0  0.98270  0.57402  0.76198  1.0000
  C   C2144     1.0  0.84524  0.59050  0.77418  1.0000
  H   H1706     1.0  0.96256  0.59418  0.87312  1.0000
  H   H1707     1.0  0.53716  0.79741  0.93396  1.0000
  C   C2145     1.0  0.90145  0.58932  0.84919  1.0000
  C   C2146     1.0  0.98769  0.78678  0.91532  1.0000
  C   C2147     1.0  0.95268  0.57690  0.83642  1.0000
  P   P72       1.0  0.81290  0.52123  0.79618  1.0000
  H   H1708     1.0  0.91417  0.98841  0.82565  1.0000
  H   H1709     1.0  0.85201  0.62460  0.79721  1.0000
  H   H1710     1.0  0.78018  0.52528  0.84286  1.0000
  C   C2148     1.0  0.90702  0.57702  0.82565  1.0000
  H   H1711     1.0  0.50326  0.84071  0.77938  1.0000
  H   H1712     1.0  0.90627  0.52417  0.82507  1.0000
  C   C2149     1.0  0.84758  0.98992  0.95545  1.0000
  C   C2150     1.0  0.76232  0.50281  0.79347  1.0000
  H   H1713     1.0  0.82297  0.99016  0.85272  1.0000
  H   H1714     1.0  0.83585  0.55447  0.75581  1.0000
  C   C2151     1.0  0.51803  0.83350  0.79253  1.0000
  C   C2152     1.0  0.99440  0.75146  0.95608  1.0000
  H   H1715     1.0  0.87757  0.92603  0.97402  1.0000
  H   H1716     1.0  0.86805  0.96745  0.82666  1.0000
  C   C2153     1.0  0.51517  0.78262  0.87336  1.0000
  H   H1717     1.0  0.50573  0.74030  0.92239  1.0000
  C   C2154     1.0  0.77936  0.52281  0.78640  1.0000
  H   H1718     1.0  0.55311  0.78257  0.89138  1.0000
  H   H1719     1.0  0.90480  0.88745  0.96590  1.0000
  H   H1720     1.0  0.70760  0.52418  0.76346  1.0000
  H   H1721     1.0  0.69013  0.50854  0.93060  1.0000
  H   H1722     1.0  0.96960  0.58642  0.75124  1.0000
  C   C2155     1.0  0.92054  0.57040  0.76388  1.0000
  C   C2156     1.0  0.74439  0.54391  0.76274  1.0000
  C   C2157     1.0  0.91956  0.59765  0.76286  1.0000
  H   H1723     1.0  0.78367  0.50616  0.88658  1.0000
  C   C2158     1.0  0.89562  0.89001  0.98466  1.0000
  H   H1724     1.0  0.99689  0.73850  0.97254  1.0000
  H   H1725     1.0  0.57110  0.58871  0.99453  1.0000
  H   H1726     1.0  0.50072  0.53858  0.96217  1.0000
  H   H1727     1.0  0.49869  0.67585  0.94921  1.0000
  H   H1728     1.0  0.78609  0.99618  0.82289  1.0000
  Fe  Fe144     1.0  0.65271  0.65123  0.99690  1.0000
  C   C2159     1.0  0.68472  0.62833  0.99795  1.0000
  C   C2160     1.0  0.49747  0.80064  0.92165  1.0000
