data_image0
_chemical_formula_structural       CH2SCFeC2HS2C3HCHFeH3FeCSFeCSFeC2H4C2SHSC3H3CHCH4CHC3SCSC2PC2HCH7C3HCHCHC3SH2CHFeSFeSHC2H2FeHCHSFeSHCSHSHC5HC4H3C2HCHC4H2CH3C4HCHCH3C4HC2HC2PC2HCHC2H2C2HCHCSCHCHCHFeHSC4H2S2HC2SCHCHC2H2CHCH2CH3CHCHC5HC2FeH4CPCHC8HC4H3CH2CSHC2H2C2HC2HCH2C2HC2H2CHC2H2C3SHC3SH2CH2CS2HCHCH2C2HCHSFeSHC2FeC3H2CH2SFeHCH3CH2C5HC3H3C7HPC2H2CH4CHCH2C2HC2H3C2H2C3SCFeC3HCHC3HC3SCH2C2H4C3HC2HC2HC2HCHCH3C3H2CHCHCPC2HC2H2C3HC3HCH2CPC2HCHCHCHCHC4HCHC6H2CHSH5CHCH2C4HC3H2CHCHCHC2H3PCHPC2HCHCHC3H2CH2C4SFeSCFeC2H3C2H3CH2CFeSHFeS2C6SCHCH4SH2CH2CHC3HC2HC3HCH4C3H2C2HPH3CHC2PH3C4HC2H2C7HPCHC2SHCHSCHSC3SHCH2SFeS2HFeSH2FeCHCFe2HC3HC3HCHCHCHC5HCH3C2SCH2CHCHCH2CH2CPCHC3H
_chemical_formula_sum              "C360 H288 S48 Fe24 P12"
_cell_length_a       21.6486
_cell_length_b       18.1005
_cell_length_c       27.0971
_cell_angle_alpha    72.2165
_cell_angle_beta     91.9173
_cell_angle_gamma    73.5817

_space_group_name_H-M_alt    "P 1"
_space_group_IT_number       1

loop_
  _space_group_symop_operation_xyz
  'x, y, z'

loop_
  _atom_site_type_symbol
  _atom_site_label
  _atom_site_symmetry_multiplicity
  _atom_site_fract_x
  _atom_site_fract_y
  _atom_site_fract_z
  _atom_site_occupancy
  C   C1        1.0  0.22374  0.28377  0.78004  1.0000
  H   H1        1.0  0.25965  0.10088  0.69396  1.0000
  H   H2        1.0  0.25813  0.15224  0.80547  1.0000
  S   S1        1.0  0.39002  0.13627  0.77122  1.0000
  C   C2        1.0  0.26605  0.08831  0.65753  1.0000
  Fe  Fe1       1.0  0.16381  0.83052  0.85547  1.0000
  C   C3        1.0  0.49531  0.82036  0.80401  1.0000
  C   C4        1.0  0.55809  0.79615  0.83046  1.0000
  H   H3        1.0  0.20499  0.83479  0.65999  1.0000
  S   S2        1.0  0.49682  0.15342  0.85365  1.0000
  S   S3        1.0  0.15297  0.88139  0.76827  1.0000
  C   C5        1.0  0.22693  0.20565  0.81233  1.0000
  C   C6        1.0  0.15802  0.86430  0.63626  1.0000
  C   C7        1.0  0.15306  0.26454  0.86548  1.0000
  H   H4        1.0  0.57152  0.91581  0.73261  1.0000
  C   C8        1.0  0.57061  0.90863  0.69455  1.0000
  H   H5        1.0  0.61350  0.22751  0.77522  1.0000
  Fe  Fe2       1.0  0.44426  0.22396  0.77309  1.0000
  H   H6        1.0  0.14363  0.97389  0.65504  1.0000
  H   H7        1.0  0.59834  0.79905  0.80820  1.0000
  H   H8        1.0  0.34119  0.98319  0.83544  1.0000
  Fe  Fe3       1.0  0.44798  0.06086  0.84962  1.0000
  C   C9        1.0  0.44270  0.81623  0.83203  1.0000
  S   S4        1.0  0.52534  0.16756  0.73409  1.0000
  Fe  Fe4       1.0  0.57415  0.08980  0.81474  1.0000
  C   C10       1.0  0.19102  0.19598  0.85447  1.0000
  S   S5        1.0  0.46212  0.04531  0.66370  1.0000
  Fe  Fe5       1.0  0.47551  0.07377  0.73804  1.0000
  C   C11       1.0  0.61700  0.84311  0.68575  1.0000
  C   C12       1.0  0.61794  0.83655  0.63551  1.0000
  H   H9        1.0  0.26121  0.96624  0.68949  1.0000
  H   H10       1.0  0.38554  0.21999  0.65109  1.0000
  H   H11       1.0  0.48713  0.84264  0.76168  1.0000
  H   H12       1.0  0.23974  0.94618  0.82803  1.0000
  C   C13       1.0  0.26702  0.01219  0.65498  1.0000
  C   C14       1.0  0.52295  0.96478  0.65394  1.0000
  S   S6        1.0  0.52957  0.99140  0.81661  1.0000
  H   H13       1.0  0.39410  0.83554  0.81141  1.0000
  S   S7        1.0  0.32634  0.79615  0.72724  1.0000
  C   C15       1.0  0.39254  0.27851  0.63196  1.0000
  C   C16       1.0  0.31275  0.97597  0.86766  1.0000
  C   C17       1.0  0.25537  0.95506  0.86353  1.0000
  H   H14       1.0  0.14101  0.17330  0.75158  1.0000
  H   H15       1.0  0.13446  0.24646  0.65681  1.0000
  H   H16       1.0  0.61099  0.16267  0.62314  1.0000
  C   C18       1.0  0.44186  0.20062  0.09264  1.0000
  H   H17       1.0  0.32245  0.08757  0.02807  1.0000
  C   C19       1.0  0.45337  0.14036  0.02373  1.0000
  H   H18       1.0  0.32051  0.79351  0.95551  1.0000
  H   H19       1.0  0.21220  0.94699  0.98428  1.0000
  H   H20       1.0  0.61459  0.91128  0.11441  1.0000
  H   H21       1.0  0.31622  0.97614  0.99301  1.0000
  C   C20       1.0  0.33434  0.98451  0.91431  1.0000
  H   H22       1.0  0.47935  0.88764  0.04378  1.0000
  C   C21       1.0  0.16608  0.80564  0.07984  1.0000
  C   C22       1.0  0.49777  0.18139  0.00402  1.0000
  C   C23       1.0  0.16222  0.17699  0.97897  1.0000
  S   S8        1.0  0.14855  0.91578  0.90204  1.0000
  C   C24       1.0  0.21856  0.94556  0.90539  1.0000
  S   S9        1.0  0.40685  0.00744  0.92220  1.0000
  C   C25       1.0  0.58530  0.87803  0.95685  1.0000
  C   C26       1.0  0.13533  0.14166  0.02318  1.0000
  P   P1        1.0  0.57928  0.27520  0.00797  1.0000
  C   C27       1.0  0.51446  0.23269  0.02848  1.0000
  C   C28       1.0  0.48597  0.24199  0.07295  1.0000
  H   H23       1.0  0.44121  0.09991  0.00522  1.0000
  C   C29       1.0  0.23954  0.95599  0.95141  1.0000
  H   H24       1.0  0.38412  0.81827  0.02349  1.0000
  H   H25       1.0  0.25243  0.18660  0.94869  1.0000
  H   H26       1.0  0.39273  0.11630  0.08418  1.0000
  H   H27       1.0  0.16211  0.25834  0.07432  1.0000
  H   H28       1.0  0.54023  0.98206  0.98010  1.0000
  H   H29       1.0  0.52030  0.17100  0.97063  1.0000
  H   H30       1.0  0.61822  0.09785  0.06344  1.0000
  C   C30       1.0  0.49504  0.83851  0.08079  1.0000
  C   C31       1.0  0.29814  0.97320  0.95624  1.0000
  C   C32       1.0  0.58543  0.93592  0.98112  1.0000
  H   H31       1.0  0.27434  0.02342  0.10495  1.0000
  C   C33       1.0  0.23002  0.15891  0.98154  1.0000
  H   H32       1.0  0.53975  0.88251  0.93680  1.0000
  C   C34       1.0  0.42582  0.14963  0.06820  1.0000
  H   H33       1.0  0.15588  0.05718  0.10249  1.0000
  C   C35       1.0  0.24311  0.06715  0.07014  1.0000
  C   C36       1.0  0.27012  0.10399  0.02695  1.0000
  C   C37       1.0  0.17585  0.08607  0.06841  1.0000
  S   S10       1.0  0.40925  0.94020  0.11935  1.0000
  H   H34       1.0  0.49841  0.27952  0.09343  1.0000
  H   H35       1.0  0.19441  0.13492  0.87935  1.0000
  C   C38       1.0  0.19015  0.24507  0.25194  1.0000
  H   H36       1.0  0.38871  0.26532  0.35524  1.0000
  Fe  Fe6       1.0  0.25793  0.06570  0.22397  1.0000
  S   S11       1.0  0.15496  0.14650  0.20509  1.0000
  Fe  Fe7       1.0  0.39653  0.04749  0.26653  1.0000
  S   S12       1.0  0.45318  0.10972  0.30075  1.0000
  H   H37       1.0  0.56004  0.88328  0.31948  1.0000
  C   C39       1.0  0.13799  0.28391  0.32206  1.0000
  C   C40       1.0  0.14660  0.20212  0.24848  1.0000
  H   H38       1.0  0.17680  0.04412  0.34755  1.0000
  H   H39       1.0  0.26134  0.79540  0.29817  1.0000
  Fe  Fe8       1.0  0.34154  0.90481  0.30333  1.0000
  H   H40       1.0  0.60567  0.12881  0.16937  1.0000
  C   C41       1.0  0.61844  0.18897  0.22449  1.0000
  H   H41       1.0  0.52818  0.20214  0.32333  1.0000
  S   S13       1.0  0.34261  0.09283  0.18608  1.0000
  Fe  Fe9       1.0  0.37430  0.96053  0.19228  1.0000
  S   S14       1.0  0.28490  0.93676  0.22458  1.0000
  H   H42       1.0  0.19388  0.79953  0.15826  1.0000
  C   C42       1.0  0.51603  0.13911  0.26971  1.0000
  S   S15       1.0  0.43376  0.91687  0.27096  1.0000
  H   H43       1.0  0.22778  0.24584  0.22670  1.0000
  S   S16       1.0  0.30882  0.03270  0.30403  1.0000
  H   H44       1.0  0.51447  0.08355  0.20996  1.0000
  C   C43       1.0  0.58530  0.87134  0.35748  1.0000
  C   C44       1.0  0.54517  0.18490  0.29008  1.0000
  C   C45       1.0  0.62548  0.92939  0.18886  1.0000
  C   C46       1.0  0.46768  0.84765  0.12535  1.0000
  C   C47       1.0  0.53760  0.11834  0.22610  1.0000
  H   H45       1.0  0.60410  0.99491  0.17280  1.0000
  C   C48       1.0  0.58916  0.14339  0.20343  1.0000
  C   C49       1.0  0.59596  0.20958  0.26763  1.0000
  C   C50       1.0  0.23376  0.79122  0.33089  1.0000
  C   C51       1.0  0.15411  0.82002  0.12687  1.0000
  H   H46       1.0  0.42081  0.20730  0.12741  1.0000
  H   H47       1.0  0.61735  0.24484  0.28416  1.0000
  H   H48       1.0  0.46535  0.79025  0.20737  1.0000
  C   C52       1.0  0.25771  0.80056  0.37632  1.0000
  C   C53       1.0  0.57185  0.89479  0.59470  1.0000
  H   H49       1.0  0.57205  0.88978  0.55609  1.0000
  C   C54       1.0  0.58398  0.89338  0.44113  1.0000
  H   H50       1.0  0.55888  0.92366  0.46683  1.0000
  C   C55       1.0  0.37086  0.93020  0.51986  1.0000
  C   C56       1.0  0.52337  0.95694  0.60420  1.0000
  C   C57       1.0  0.18089  0.02827  0.38974  1.0000
  C   C58       1.0  0.23814  0.01863  0.47149  1.0000
  H   H51       1.0  0.40094  0.91607  0.60051  1.0000
  H   H52       1.0  0.35722  0.92589  0.44114  1.0000
  C   C59       1.0  0.37419  0.22186  0.38596  1.0000
  H   H53       1.0  0.43616  0.03031  0.47210  1.0000
  H   H54       1.0  0.46855  0.13288  0.40432  1.0000
  H   H55       1.0  0.26385  0.06845  0.39431  1.0000
  C   C60       1.0  0.51829  0.16201  0.53218  1.0000
  C   C61       1.0  0.29054  0.18139  0.43420  1.0000
  C   C62       1.0  0.41931  0.14669  0.41372  1.0000
  C   C63       1.0  0.14448  0.96968  0.47161  1.0000
  H   H56       1.0  0.24001  0.19522  0.44066  1.0000
  C   C64       1.0  0.55560  0.21337  0.51157  1.0000
  H   H57       1.0  0.56994  0.10947  0.45369  1.0000
  C   C65       1.0  0.23050  0.04182  0.41663  1.0000
  H   H58       1.0  0.24025  0.80149  0.45391  1.0000
  H   H59       1.0  0.50496  0.95280  0.37825  1.0000
  H   H60       1.0  0.28167  0.93323  0.60870  1.0000
  C   C66       1.0  0.40028  0.08838  0.45166  1.0000
  C   C67       1.0  0.27520  0.14705  0.61360  1.0000
  C   C68       1.0  0.13780  0.99232  0.41717  1.0000
  C   C69       1.0  0.28649  0.12917  0.56738  1.0000
  H   H61       1.0  0.29517  0.17521  0.53465  1.0000
  C   C70       1.0  0.13233  0.82288  0.60929  1.0000
  C   C71       1.0  0.27829  0.99397  0.60885  1.0000
  H   H62       1.0  0.54189  0.09866  0.55429  1.0000
  C   C72       1.0  0.33532  0.10476  0.46154  1.0000
  C   C73       1.0  0.19459  0.98224  0.49882  1.0000
  P   P2        1.0  0.30785  0.02675  0.50585  1.0000
  C   C74       1.0  0.28884  0.05203  0.56463  1.0000
  C   C75       1.0  0.45907  0.81794  0.57795  1.0000
  H   H63       1.0  0.27554  0.20564  0.61580  1.0000
  C   C76       1.0  0.55365  0.91032  0.39097  1.0000
  H   H64       1.0  0.19974  0.96202  0.54094  1.0000
  C   C77       1.0  0.40862  0.89054  0.56910  1.0000
  C   C78       1.0  0.38500  0.89630  0.47971  1.0000
  H   H65       1.0  0.42230  0.15176  0.54091  1.0000
  H   H66       1.0  0.48860  0.22500  0.61665  1.0000
  C   C79       1.0  0.31017  0.23988  0.39690  1.0000
  C   C80       1.0  0.41927  0.27338  0.49453  1.0000
  H   H67       1.0  0.29801  0.80871  0.53294  1.0000
  C   C81       1.0  0.45047  0.19192  0.52409  1.0000
  H   H68       1.0  0.48615  0.99924  0.57276  1.0000
  C   C82       1.0  0.22234  0.79302  0.41903  1.0000
  S   S17       1.0  0.33327  0.81751  0.38033  1.0000
  C   C83       1.0  0.43599  0.82423  0.48864  1.0000
  H   H69       1.0  0.59792  0.05249  0.38293  1.0000
  C   C84       1.0  0.61791  0.10250  0.44212  1.0000
  H   H70       1.0  0.44641  0.79892  0.45727  1.0000
  C   C85       1.0  0.45109  0.28139  0.61272  1.0000
  H   H71       1.0  0.48896  0.78814  0.61560  1.0000
  Fe  Fe10      1.0  0.20207  0.65419  0.85524  1.0000
  H   H72       1.0  0.25377  0.46666  0.67699  1.0000
  S   S18       1.0  0.39819  0.35938  0.74473  1.0000
  C   C86       1.0  0.18880  0.57346  0.68703  1.0000
  C   C87       1.0  0.33065  0.35089  0.82994  1.0000
  C   C88       1.0  0.45640  0.71920  0.73278  1.0000
  C   C89       1.0  0.35315  0.65243  0.64765  1.0000
  H   H73       1.0  0.36905  0.51606  0.75560  1.0000
  H   H74       1.0  0.46431  0.55544  0.86619  1.0000
  S   S19       1.0  0.59312  0.52877  0.83810  1.0000
  S   S20       1.0  0.25973  0.73643  0.86292  1.0000
  H   H75       1.0  0.48780  0.37629  0.82224  1.0000
  C   C90       1.0  0.15512  0.49035  0.64323  1.0000
  C   C91       1.0  0.34375  0.35083  0.62701  1.0000
  S   S21       1.0  0.19292  0.69568  0.76810  1.0000
  C   C92       1.0  0.59187  0.34227  0.83171  1.0000
  H   H76       1.0  0.35562  0.64094  0.68944  1.0000
  C   C93       1.0  0.29160  0.38714  0.86203  1.0000
  H   H77       1.0  0.40648  0.52884  0.65539  1.0000
  C   C94       1.0  0.20405  0.50654  0.66933  1.0000
  C   C95       1.0  0.28053  0.46998  0.85544  1.0000
  H   H78       1.0  0.33911  0.28704  0.83497  1.0000
  H   H79       1.0  0.30538  0.57695  0.81485  1.0000
  C   C96       1.0  0.51910  0.60152  0.80586  1.0000
  H   H80       1.0  0.22682  0.58536  0.70754  1.0000
  C   C97       1.0  0.51605  0.66067  0.75753  1.0000
  H   H81       1.0  0.36081  0.65962  0.82335  1.0000
  H   H82       1.0  0.45430  0.76632  0.69639  1.0000
  C   C98       1.0  0.40005  0.71937  0.75655  1.0000
  H   H83       1.0  0.29892  0.34838  0.64283  1.0000
  H   H84       1.0  0.25339  0.29129  0.74851  1.0000
  H   H85       1.0  0.30232  0.78019  0.62855  1.0000
  C   C99       1.0  0.31031  0.51500  0.81805  1.0000
  H   H86       1.0  0.18373  0.41283  0.76642  1.0000
  C   C100      1.0  0.34695  0.48008  0.78483  1.0000
  H   H87       1.0  0.55971  0.66292  0.73982  1.0000
  C   C101      1.0  0.38197  0.58939  0.62817  1.0000
  C   C102      1.0  0.35619  0.39854  0.78997  1.0000
  C   C103      1.0  0.14913  0.34287  0.83243  1.0000
  C   C104      1.0  0.40343  0.65991  0.80455  1.0000
  C   C105      1.0  0.53179  0.34864  0.84985  1.0000
  H   H88       1.0  0.59381  0.36615  0.79022  1.0000
  C   C106      1.0  0.46257  0.60102  0.82910  1.0000
  C   C107      1.0  0.18458  0.35224  0.79003  1.0000
  Fe  Fe11      1.0  0.24554  0.78187  0.77541  1.0000
  H   H89       1.0  0.53840  0.42915  0.62651  1.0000
  H   H90       1.0  0.16757  0.43788  0.63001  1.0000
  H   H91       1.0  0.30426  0.30536  0.01203  1.0000
  H   H92       1.0  0.15724  0.46641  0.97710  1.0000
  C   C108      1.0  0.31406  0.67956  0.00687  1.0000
  P   P3        1.0  0.30114  0.53513  0.07333  1.0000
  C   C109      1.0  0.18168  0.59615  0.10544  1.0000
  H   H93       1.0  0.18611  0.33949  0.95564  1.0000
  C   C110      1.0  0.13530  0.37282  0.95303  1.0000
  C   C111      1.0  0.45289  0.78601  0.88654  1.0000
  C   C112      1.0  0.51535  0.76268  0.91313  1.0000
  C   C113      1.0  0.53240  0.52153  0.98343  1.0000
  C   C114      1.0  0.36376  0.63884  0.09624  1.0000
  C   C115      1.0  0.38372  0.70864  0.08378  1.0000
  C   C116      1.0  0.17792  0.59797  0.01572  1.0000
  C   C117      1.0  0.54256  0.76614  0.08378  1.0000
  H   H94       1.0  0.28582  0.66995  0.97705  1.0000
  C   C118      1.0  0.58517  0.29088  0.93943  1.0000
  C   C119      1.0  0.57446  0.37705  0.06869  1.0000
  C   C120      1.0  0.15503  0.34607  0.11394  1.0000
  C   C121      1.0  0.36908  0.76380  0.03289  1.0000
  H   H95       1.0  0.59150  0.32189  0.10222  1.0000
  H   H96       1.0  0.51753  0.57730  0.95012  1.0000
  H   H97       1.0  0.41216  0.78213  0.90807  1.0000
  C   C122      1.0  0.52834  0.32258  0.90343  1.0000
  H   H98       1.0  0.26972  0.35125  0.89155  1.0000
  H   H99       1.0  0.56392  0.75976  0.04922  1.0000
  C   C123      1.0  0.38874  0.43878  0.96549  1.0000
  S   S22       1.0  0.22950  0.51812  0.89322  1.0000
  H   H100      1.0  0.21496  0.77435  0.07474  1.0000
  C   C124      1.0  0.36873  0.49002  0.99530  1.0000
  C   C125      1.0  0.33369  0.74958  0.99457  1.0000
  H   H101      1.0  0.42068  0.45207  0.93647  1.0000
  H   H102      1.0  0.52228  0.74113  0.95550  1.0000
  C   C126      1.0  0.56498  0.37299  0.01818  1.0000
  C   C127      1.0  0.54517  0.44609  0.97552  1.0000
  H   H103      1.0  0.38211  0.33149  0.94949  1.0000
  C   C128      1.0  0.36639  0.37149  0.97227  1.0000
  C   C129      1.0  0.32212  0.35692  0.00741  1.0000
  H   H104      1.0  0.26675  0.39705  0.06358  1.0000
  C   C130      1.0  0.33007  0.62279  0.05756  1.0000
  H   H105      1.0  0.48114  0.33083  0.91650  1.0000
  H   H106      1.0  0.20194  0.58682  0.98304  1.0000
  C   C131      1.0  0.32400  0.47585  0.03055  1.0000
  C   C132      1.0  0.21378  0.57680  0.06485  1.0000
  H   H107      1.0  0.56975  0.45582  0.11510  1.0000
  C   C133      1.0  0.54054  0.52490  0.03391  1.0000
  C   C134      1.0  0.56209  0.45272  0.07633  1.0000
  H   H108      1.0  0.53983  0.44586  0.93580  1.0000
  H   H109      1.0  0.38826  0.54015  0.99060  1.0000
  C   C135      1.0  0.30078  0.40913  0.03627  1.0000
  H   H110      1.0  0.53176  0.58325  0.04019  1.0000
  C   C136      1.0  0.12953  0.30560  0.08615  1.0000
  C   C137      1.0  0.56792  0.77075  0.88517  1.0000
  H   H111      1.0  0.40952  0.72072  0.11391  1.0000
  H   H112      1.0  0.21757  0.32173  0.29010  1.0000
  C   C138      1.0  0.43422  0.37543  0.19741  1.0000
  C   C139      1.0  0.39649  0.33778  0.23095  1.0000
  C   C140      1.0  0.54573  0.63941  0.32867  1.0000
  S   S23       1.0  0.62575  0.61583  0.13327  1.0000
  H   H113      1.0  0.13299  0.43690  0.15203  1.0000
  C   C141      1.0  0.17636  0.77060  0.32888  1.0000
  C   C142      1.0  0.35519  0.54463  0.25678  1.0000
  C   C143      1.0  0.29980  0.42206  0.17015  1.0000
  S   S24       1.0  0.59407  0.41694  0.22254  1.0000
  H   H114      1.0  0.41183  0.61777  0.21469  1.0000
  H   H115      1.0  0.42242  0.57465  0.35858  1.0000
  C   C144      1.0  0.41265  0.56376  0.24641  1.0000
  H   H116      1.0  0.30119  0.32924  0.24277  1.0000
  H   H117      1.0  0.24816  0.43701  0.15972  1.0000
  C   C145      1.0  0.48716  0.78351  0.17304  1.0000
  S   S25       1.0  0.19245  0.53757  0.34031  1.0000
  S   S26       1.0  0.14453  0.49960  0.23682  1.0000
  H   H118      1.0  0.56361  0.74814  0.28192  1.0000
  C   C146      1.0  0.53463  0.71025  0.17591  1.0000
  H   H119      1.0  0.48628  0.35640  0.20799  1.0000
  C   C147      1.0  0.58157  0.69422  0.31619  1.0000
  H   H120      1.0  0.15985  0.76092  0.29419  1.0000
  H   H121      1.0  0.41566  0.37483  0.36358  1.0000
  C   C148      1.0  0.35621  0.47605  0.29881  1.0000
  C   C149      1.0  0.41475  0.42713  0.33077  1.0000
  H   H122      1.0  0.51532  0.52946  0.26966  1.0000
  C   C150      1.0  0.47123  0.51384  0.27762  1.0000
  H   H123      1.0  0.30328  0.61450  0.34017  1.0000
  S   S27       1.0  0.28229  0.60836  0.21788  1.0000
  Fe  Fe12      1.0  0.19645  0.58157  0.25397  1.0000
  S   S28       1.0  0.54564  0.38429  0.35879  1.0000
  H   H124      1.0  0.31211  0.46042  0.30651  1.0000
  C   C151      1.0  0.18477  0.28746  0.28790  1.0000
  C   C152      1.0  0.56257  0.70223  0.13121  1.0000
  Fe  Fe13      1.0  0.13257  0.46416  0.32189  1.0000
  C   C153      1.0  0.47228  0.44555  0.31978  1.0000
  C   C154      1.0  0.40481  0.43692  0.15029  1.0000
  C   C155      1.0  0.32957  0.36036  0.21711  1.0000
  H   H125      1.0  0.50157  0.65054  0.30370  1.0000
  H   H126      1.0  0.20873  0.58428  0.14269  1.0000
  C   C156      1.0  0.33706  0.46223  0.13690  1.0000
  H   H127      1.0  0.37341  0.59879  0.13629  1.0000
  H   H128      1.0  0.55014  0.66060  0.21256  1.0000
  S   S29       1.0  0.13174  0.33769  0.36665  1.0000
  Fe  Fe14      1.0  0.62100  0.40001  0.30638  1.0000
  H   H129      1.0  0.43495  0.46435  0.12417  1.0000
  C   C157      1.0  0.14183  0.76062  0.37188  1.0000
  H   H130      1.0  0.41911  0.29063  0.26757  1.0000
  H   H131      1.0  0.20703  0.32931  0.12422  1.0000
  H   H132      1.0  0.43197  0.38808  0.45093  1.0000
  C   C158      1.0  0.35376  0.42608  0.60314  1.0000
  H   H133      1.0  0.35076  0.69987  0.49793  1.0000
  H   H134      1.0  0.27527  0.29841  0.37540  1.0000
  C   C159      1.0  0.41274  0.42936  0.58399  1.0000
  C   C160      1.0  0.61532  0.47707  0.59899  1.0000
  C   C161      1.0  0.38052  0.60538  0.57400  1.0000
  C   C162      1.0  0.50579  0.52807  0.55265  1.0000
  C   C163      1.0  0.32074  0.74736  0.55949  1.0000
  H   H135      1.0  0.59995  0.64185  0.49144  1.0000
  C   C164      1.0  0.46095  0.35639  0.58814  1.0000
  C   C165      1.0  0.42376  0.54867  0.44187  1.0000
  C   C166      1.0  0.52349  0.58958  0.51566  1.0000
  H   H136      1.0  0.51304  0.72991  0.54500  1.0000
  H   H137      1.0  0.13773  0.76581  0.45015  1.0000
  H   H138      1.0  0.50576  0.35711  0.57180  1.0000
  C   C167      1.0  0.56680  0.57037  0.37322  1.0000
  C   C168      1.0  0.32637  0.59493  0.38012  1.0000
  C   C169      1.0  0.58696  0.59366  0.51983  1.0000
  C   C170      1.0  0.28876  0.59295  0.42106  1.0000
  C   C171      1.0  0.38597  0.55125  0.48268  1.0000
  C   C172      1.0  0.35034  0.68504  0.53981  1.0000
  C   C173      1.0  0.52399  0.29546  0.48297  1.0000
  H   H139      1.0  0.14377  0.56167  0.44698  1.0000
  P   P4        1.0  0.42266  0.52654  0.54870  1.0000
  C   C174      1.0  0.45606  0.32512  0.47415  1.0000
  C   C175      1.0  0.31825  0.57179  0.47210  1.0000
  H   H140      1.0  0.23652  0.61049  0.41292  1.0000
  H   H141      1.0  0.47606  0.52852  0.44943  1.0000
  C   C176      1.0  0.16398  0.77385  0.41664  1.0000
  H   H142      1.0  0.36672  0.29648  0.48756  1.0000
  H   H143      1.0  0.54001  0.52687  0.38209  1.0000
  H   H144      1.0  0.55156  0.33644  0.46680  1.0000
  H   H145      1.0  0.28802  0.57330  0.50301  1.0000
  C   C177      1.0  0.32279  0.73123  0.61334  1.0000
  H   H146      1.0  0.13488  0.43901  0.42853  1.0000
  C   C178      1.0  0.55175  0.47340  0.59531  1.0000
  H   H147      1.0  0.31557  0.48165  0.59961  1.0000
  H   H148      1.0  0.48788  0.63554  0.48412  1.0000
  C   C179      1.0  0.39378  0.57270  0.39057  1.0000
  C   C180      1.0  0.62249  0.55728  0.40623  1.0000
  H   H149      1.0  0.15996  0.76160  0.61145  1.0000
  C   C181      1.0  0.47306  0.78517  0.53778  1.0000
  C   C182      1.0  0.91853  0.00965  0.64444  1.0000
  H   H150      1.0  0.64193  0.05101  0.70777  1.0000
  H   H151      1.0  0.84723  0.80713  0.79716  1.0000
  H   H152      1.0  0.65329  0.79973  0.71737  1.0000
  C   C183      1.0  0.66207  0.04138  0.67330  1.0000
  C   C184      1.0  0.83446  0.15472  0.64961  1.0000
  H   H153      1.0  0.03277  0.02628  0.71710  1.0000
  H   H154      1.0  0.80206  0.21067  0.65200  1.0000
  C   C185      1.0  0.12253  0.94317  0.63387  1.0000
  C   C186      1.0  0.99114  0.27271  0.86604  1.0000
  C   C187      1.0  0.77503  0.12638  0.79359  1.0000
  S   S30       1.0  0.68167  0.06126  0.83667  1.0000
  C   C188      1.0  0.05246  0.11365  0.64964  1.0000
  Fe  Fe15      1.0  0.10178  0.78900  0.77006  1.0000
  C   C189      1.0  0.70375  0.96491  0.67665  1.0000
  C   C190      1.0  0.93488  0.08207  0.62540  1.0000
  C   C191      1.0  0.79635  0.18873  0.76128  1.0000
  H   H155      1.0  0.95068  0.95233  0.64414  1.0000
  C   C192      1.0  0.94099  0.24657  0.85060  1.0000
  H   H156      1.0  0.66577  0.89689  0.85089  1.0000
  C   C193      1.0  0.08700  0.09577  0.74001  1.0000
  C   C194      1.0  0.75151  0.26485  0.73390  1.0000
  C   C195      1.0  0.75559  0.86066  0.82070  1.0000
  H   H157      1.0  0.80958  0.06733  0.81435  1.0000
  C   C196      1.0  0.89261  0.15456  0.62882  1.0000
  C   C197      1.0  0.66436  0.21609  0.77084  1.0000
  C   C198      1.0  0.86112  0.00970  0.66652  1.0000
  S   S31       1.0  0.01227  0.80519  0.71885  1.0000
  C   C199      1.0  0.81901  0.08233  0.66908  1.0000
  H   H158      1.0  0.77515  0.08247  0.68717  1.0000
  H   H159      1.0  0.71515  0.91516  0.71331  1.0000
  C   C200      1.0  0.70880  0.13989  0.79795  1.0000
  C   C201      1.0  0.64491  0.10454  0.62530  1.0000
  H   H160      1.0  0.75888  0.89104  0.63467  1.0000
  H   H161      1.0  0.75390  0.92297  0.80008  1.0000
  H   H162      1.0  0.84740  0.17775  0.75718  1.0000
  H   H163      1.0  0.85032  0.95282  0.68276  1.0000
  C   C202      1.0  0.05486  0.07448  0.70342  1.0000
  C   C203      1.0  0.72841  0.95134  0.63218  1.0000
  C   C204      1.0  0.08084  0.17650  0.63298  1.0000
  H   H164      1.0  0.90527  0.14429  0.85863  1.0000
  C   C205      1.0  0.11618  0.15712  0.72313  1.0000
  C   C206      1.0  0.11252  0.19811  0.66972  1.0000
  H   H165      1.0  0.08990  0.06388  0.78153  1.0000
  C   C207      1.0  0.70536  0.84568  0.84941  1.0000
  C   C208      1.0  0.80821  0.79571  0.81942  1.0000
  H   H166      1.0  0.95489  0.25780  0.73874  1.0000
  C   C209      1.0  0.68566  0.27868  0.73908  1.0000
  C   C210      1.0  0.94364  0.16476  0.87126  1.0000
  H   H167      1.0  0.06095  0.14456  0.12016  1.0000
  C   C211      1.0  0.99695  0.10886  0.90682  1.0000
  H   H168      1.0  0.03437  0.05325  0.07598  1.0000
  C   C212      1.0  0.04691  0.13499  0.92263  1.0000
  H   H169      1.0  0.78101  0.09565  0.91362  1.0000
  H   H170      1.0  0.90700  0.87779  0.02756  1.0000
  H   H171      1.0  0.71814  0.00113  0.11885  1.0000
  C   C213      1.0  0.76745  0.09131  0.11021  1.0000
  C   C214      1.0  0.04339  0.21782  0.90370  1.0000
  C   C215      1.0  0.65834  0.11994  0.06950  1.0000
  H   H172      1.0  0.83318  0.90159  0.09936  1.0000
  H   H173      1.0  0.91765  0.22383  0.97960  1.0000
  C   C216      1.0  0.01209  0.05986  0.11023  1.0000
  H   H174      1.0  0.08321  0.15718  0.02255  1.0000
  C   C217      1.0  0.76354  0.17320  0.08743  1.0000
  H   H175      1.0  0.69012  0.25897  0.94752  1.0000
  C   C218      1.0  0.81581  0.06652  0.94897  1.0000
  P   P5        1.0  0.10974  0.25114  0.92152  1.0000
  C   C219      1.0  0.05192  0.87163  0.04607  1.0000
  C   C220      1.0  0.84308  0.98178  0.96732  1.0000
  H   H176      1.0  0.01428  0.89216  0.01352  1.0000
  C   C221      1.0  0.90441  0.99033  0.04137  1.0000
  C   C222      1.0  0.03897  0.88534  0.09364  1.0000
  H   H177      1.0  0.74672  0.87729  0.02365  1.0000
  H   H178      1.0  0.00072  0.04462  0.92105  1.0000
  C   C223      1.0  0.88713  0.94375  0.01331  1.0000
  C   C224      1.0  0.64569  0.28225  0.92083  1.0000
  C   C225      1.0  0.90098  0.28474  0.98204  1.0000
  H   H179      1.0  0.88834  0.11287  0.04359  1.0000
  C   C226      1.0  0.65324  0.20294  0.04757  1.0000
  C   C227      1.0  0.64336  0.81794  0.95738  1.0000
  C   C228      1.0  0.71514  0.06454  0.10090  1.0000
  H   H180      1.0  0.64349  0.98169  0.02294  1.0000
  C   C229      1.0  0.70675  0.22879  0.05598  1.0000
  H   H181      1.0  0.08910  0.08964  0.94819  1.0000
  H   H182      1.0  0.80407  0.19377  0.09494  1.0000
  C   C230      1.0  0.64350  0.93543  0.00539  1.0000
  P   P6        1.0  0.95809  0.94035  0.10281  1.0000
  C   C231      1.0  0.70155  0.87643  0.00587  1.0000
  C   C232      1.0  0.70148  0.81800  0.98190  1.0000
  H   H183      1.0  0.81132  0.17902  0.96227  1.0000
  C   C233      1.0  0.83288  0.11337  0.97643  1.0000
  H   H184      1.0  0.95264  0.25052  0.05852  1.0000
  C   C234      1.0  0.87692  0.07553  0.02245  1.0000
  H   H185      1.0  0.82943  0.94574  0.94591  1.0000
  C   C235      1.0  0.11510  0.83178  0.03943  1.0000
  H   H186      1.0  0.12483  0.82101  0.00281  1.0000
  C   C236      1.0  0.87763  0.24146  0.23447  1.0000
  H   H187      1.0  0.86278  0.20713  0.26975  1.0000
  C   C237      1.0  0.64421  0.89171  0.24280  1.0000
  C   C238      1.0  0.83414  0.81759  0.17445  1.0000
  C   C239      1.0  0.84671  0.25249  0.18552  1.0000
  C   C240      1.0  0.02743  0.11113  0.13493  1.0000
  H   H188      1.0  0.01537  0.15523  0.20023  1.0000
  C   C241      1.0  0.63192  0.88244  0.15577  1.0000
  H   H189      1.0  0.05988  0.23488  0.34624  1.0000
  C   C242      1.0  0.97050  0.01449  0.13111  1.0000
  C   C243      1.0  0.92321  0.87283  0.14945  1.0000
  C   C244      1.0  0.09580  0.23867  0.31974  1.0000
  C   C245      1.0  0.86127  0.86737  0.13720  1.0000
  C   C246      1.0  0.95936  0.07371  0.20095  1.0000
  C   C247      1.0  0.92664  0.27648  0.23793  1.0000
  H   H190      1.0  0.63845  0.92942  0.26763  1.0000
  H   H191      1.0  0.00195  0.83582  0.21188  1.0000
  C   C248      1.0  0.09115  0.86034  0.13359  1.0000
  H   H192      1.0  0.70612  0.03838  0.35313  1.0000
  S   S32       1.0  0.68209  0.22259  0.19724  1.0000
  H   H193      1.0  0.08385  0.87253  0.16999  1.0000
  H   H194      1.0  0.81070  0.04866  0.13546  1.0000
  H   H195      1.0  0.78721  0.81209  0.16447  1.0000
  H   H196      1.0  0.06661  0.16427  0.28060  1.0000
  H   H197      1.0  0.80817  0.22612  0.18301  1.0000
  C   C249      1.0  0.95592  0.82984  0.20029  1.0000
  H   H198      1.0  0.91108  0.98934  0.19361  1.0000
  C   C250      1.0  0.00158  0.11743  0.18043  1.0000
  H   H199      1.0  0.94021  0.07771  0.23679  1.0000
  H   H200      1.0  0.94984  0.26907  0.27595  1.0000
  C   C251      1.0  0.09913  0.19936  0.28216  1.0000
  C   C252      1.0  0.94323  0.02313  0.17620  1.0000
  C   C253      1.0  0.66770  0.80627  0.26401  1.0000
  C   C254      1.0  0.65908  0.79786  0.17630  1.0000
  H   H201      1.0  0.78559  0.81687  0.35825  1.0000
  C   C255      1.0  0.69867  0.26869  0.55560  1.0000
  C   C256      1.0  0.74112  0.08369  0.40990  1.0000
  C   C257      1.0  0.94134  0.25631  0.46018  1.0000
  H   H202      1.0  0.90503  0.21077  0.61613  1.0000
  H   H203      1.0  0.98784  0.96811  0.55417  1.0000
  C   C258      1.0  0.71198  0.01452  0.58425  1.0000
  H   H204      1.0  0.68910  0.23730  0.59399  1.0000
  C   C259      1.0  0.06202  0.15050  0.51354  1.0000
  H   H205      1.0  0.90047  0.19993  0.52649  1.0000
  C   C260      1.0  0.64593  0.83679  0.45811  1.0000
  H   H206      1.0  0.73090  0.00179  0.55032  1.0000
  C   C261      1.0  0.94509  0.20130  0.51012  1.0000
  C   C262      1.0  0.03537  0.93963  0.57715  1.0000
  H   H207      1.0  0.79483  0.78796  0.53864  1.0000
  H   H208      1.0  0.05060  0.82780  0.55952  1.0000
  H   H209      1.0  0.67541  0.28510  0.42713  1.0000
  P   P7        1.0  0.64282  0.17111  0.51739  1.0000
  C   C263      1.0  0.05796  0.20515  0.46342  1.0000
  H   H210      1.0  0.10154  0.20620  0.44494  1.0000
  P   P8        1.0  0.01304  0.08152  0.60372  1.0000
  C   C264      1.0  0.68038  0.25055  0.51151  1.0000
  C   C265      1.0  0.00572  0.14910  0.53767  1.0000
  H   H211      1.0  0.10012  0.98059  0.39618  1.0000
  C   C266      1.0  0.99772  0.25888  0.43705  1.0000
  H   H212      1.0  0.10920  0.11013  0.53379  1.0000
  C   C267      1.0  0.66338  0.12707  0.46611  1.0000
  H   H213      1.0  0.76208  0.13266  0.46903  1.0000
  C   C268      1.0  0.66991  0.09174  0.58032  1.0000
  C   C269      1.0  0.69498  0.06116  0.38548  1.0000
  C   C270      1.0  0.06036  0.98085  0.60518  1.0000
  H   H214      1.0  0.66847  0.82215  0.49773  1.0000
  H   H215      1.0  0.07887  0.20897  0.59195  1.0000
  C   C271      1.0  0.07082  0.86032  0.57998  1.0000
  H   H216      1.0  0.11151  0.94078  0.49253  1.0000
  H   H217      1.0  0.78846  0.07768  0.39678  1.0000
  C   C272      1.0  0.72570  0.11569  0.45045  1.0000
  C   C273      1.0  0.64782  0.81520  0.37365  1.0000
  C   C274      1.0  0.63380  0.06950  0.40213  1.0000
  C   C275      1.0  0.67764  0.79727  0.42467  1.0000
  S   S33       1.0  0.90765  0.50954  0.82231  1.0000
  Fe  Fe16      1.0  0.70766  0.63866  0.68820  1.0000
  S   S34       1.0  0.76238  0.43276  0.80145  1.0000
  C   C276      1.0  0.93558  0.34911  0.66266  1.0000
  Fe  Fe17      1.0  0.74828  0.45268  0.71584  1.0000
  C   C277      1.0  0.93862  0.58849  0.79012  1.0000
  C   C278      1.0  0.92329  0.72206  0.72622  1.0000
  H   H218      1.0  0.07784  0.41104  0.71071  1.0000
  H   H219      1.0  0.85212  0.66544  0.84722  1.0000
  H   H220      1.0  0.02649  0.64820  0.64788  1.0000
  C   C279      1.0  0.00129  0.58550  0.80692  1.0000
  C   C280      1.0  0.09045  0.54115  0.63489  1.0000
  H   H221      1.0  0.92854  0.58818  0.65921  1.0000
  H   H222      1.0  0.69539  0.30224  0.85248  1.0000
  H   H223      1.0  0.85123  0.65926  0.73632  1.0000
  C   C281      1.0  0.96909  0.30735  0.71295  1.0000
  H   H224      1.0  0.89280  0.77516  0.69543  1.0000
  H   H225      1.0  0.04601  0.29835  0.76912  1.0000
  C   C282      1.0  0.00567  0.43537  0.64558  1.0000
  Fe  Fe18      1.0  0.81121  0.52941  0.77977  1.0000
  S   S35       1.0  0.65160  0.54856  0.70098  1.0000
  H   H226      1.0  0.89530  0.33225  0.64976  1.0000
  Fe  Fe19      1.0  0.66992  0.53563  0.78554  1.0000
  S   S36       1.0  0.80299  0.54328  0.69486  1.0000
  S   S37       1.0  0.72013  0.63120  0.77220  1.0000
  C   C283      1.0  0.64895  0.30734  0.86704  1.0000
  C   C284      1.0  0.02033  0.33014  0.72996  1.0000
  C   C285      1.0  0.07560  0.60807  0.65307  1.0000
  C   C286      1.0  0.81097  0.71583  0.84757  1.0000
  C   C287      1.0  0.89992  0.65630  0.74921  1.0000
  C   C288      1.0  0.98520  0.72019  0.74437  1.0000
  S   S38       1.0  0.77737  0.34152  0.69147  1.0000
  C   C289      1.0  0.03868  0.39383  0.69643  1.0000
  H   H227      1.0  0.03170  0.53300  0.83810  1.0000
  C   C290      1.0  0.02456  0.65118  0.78403  1.0000
  H   H228      1.0  0.07296  0.64825  0.79749  1.0000
  H   H229      1.0  0.65087  0.33738  0.71813  1.0000
  H   H230      1.0  0.98953  0.33564  0.84776  1.0000
  H   H231      1.0  0.65052  0.43471  0.63194  1.0000
  S   S39       1.0  0.10694  0.74365  0.85726  1.0000
  H   H232      1.0  0.12004  0.39697  0.83980  1.0000
  H   H233      1.0  0.11217  0.67569  0.69288  1.0000
  C   C291      1.0  0.12461  0.62402  0.67891  1.0000
  H   H234      1.0  0.90064  0.28969  0.82178  1.0000
  H   H235      1.0  0.82766  0.70461  0.63176  1.0000
  C   C292      1.0  0.95302  0.41370  0.62937  1.0000
  H   H236      1.0  0.04427  0.29133  0.05400  1.0000
  C   C293      1.0  0.83860  0.52494  0.10524  1.0000
  C   C294      1.0  0.69981  0.53517  0.04342  1.0000
  C   C295      1.0  0.88471  0.64868  0.04514  1.0000
  H   H237      1.0  0.68138  0.66196  0.03393  1.0000
  C   C296      1.0  0.66831  0.58504  0.93531  1.0000
  C   C297      1.0  0.83961  0.42727  0.94272  1.0000
  H   H238      1.0  0.95516  0.50145  0.93785  1.0000
  C   C298      1.0  0.85968  0.34814  0.94043  1.0000
  C   C299      1.0  0.91506  0.56770  0.04860  1.0000
  C   C300      1.0  0.02118  0.39033  0.93354  1.0000
  H   H239      1.0  0.70955  0.51587  0.08557  1.0000
  C   C301      1.0  0.90374  0.38026  0.02814  1.0000
  H   H240      1.0  0.08389  0.65450  0.96952  1.0000
  H   H241      1.0  0.68386  0.45829  0.94544  1.0000
  H   H242      1.0  0.84450  0.50526  0.98721  1.0000
  H   H243      1.0  0.04174  0.54848  0.96742  1.0000
  C   C302      1.0  0.66849  0.64320  0.95965  1.0000
  C   C303      1.0  0.68515  0.50235  0.96473  1.0000
  C   C304      1.0  0.05422  0.49122  0.95986  1.0000
  H   H244      1.0  0.80822  0.47658  0.91000  1.0000
  H   H245      1.0  0.80962  0.72951  0.07113  1.0000
  C   C305      1.0  0.00535  0.46408  0.94386  1.0000
  C   C306      1.0  0.70127  0.47742  0.01886  1.0000
  H   H246      1.0  0.65501  0.60398  0.89340  1.0000
  P   P9        1.0  0.93273  0.40047  0.08473  1.0000
  H   H247      1.0  0.84399  0.33639  0.90598  1.0000
  H   H248      1.0  0.71295  0.41393  0.04221  1.0000
  H   H249      1.0  0.74694  0.77444  0.98070  1.0000
  C   C307      1.0  0.80738  0.60604  0.10065  1.0000
  H   H250      1.0  0.95666  0.55364  0.02825  1.0000
  C   C308      1.0  0.01980  0.38232  0.09287  1.0000
  C   C309      1.0  0.86101  0.44334  0.98652  1.0000
  P   P10       1.0  0.64658  0.74914  0.92033  1.0000
  H   H251      1.0  0.76580  0.63830  0.89897  1.0000
  H   H252      1.0  0.90336  0.69646  0.02282  1.0000
  H   H253      1.0  0.02686  0.68143  0.04357  1.0000
  C   C310      1.0  0.68356  0.61797  0.01402  1.0000
  C   C311      1.0  0.89303  0.50506  0.07970  1.0000
  C   C312      1.0  0.70755  0.76558  0.87768  1.0000
  C   C313      1.0  0.83149  0.66757  0.07184  1.0000
  H   H254      1.0  0.98217  0.37090  0.92186  1.0000
  C   C314      1.0  0.11436  0.63245  0.09793  1.0000
  C   C315      1.0  0.06225  0.32391  0.07533  1.0000
  H   H255      1.0  0.70406  0.29202  0.03876  1.0000
  H   H256      1.0  0.83644  0.31159  0.10291  1.0000
  C   C316      1.0  0.07883  0.65214  0.04927  1.0000
  C   C317      1.0  0.08639  0.34469  0.93712  1.0000
  C   C318      1.0  0.92201  0.30046  0.02608  1.0000
  C   C319      1.0  0.11915  0.44515  0.96505  1.0000
  C   C320      1.0  0.04613  0.42378  0.12000  1.0000
  C   C321      1.0  0.11077  0.63613  0.00793  1.0000
  C   C322      1.0  0.76119  0.70066  0.87677  1.0000
  H   H257      1.0  0.76574  0.62058  0.12112  1.0000
  P   P11       1.0  0.68238  0.75407  0.33378  1.0000
  C   C323      1.0  0.94931  0.43197  0.27817  1.0000
  H   H258      1.0  0.66412  0.76134  0.15066  1.0000
  C   C324      1.0  0.63923  0.67978  0.34802  1.0000
  C   C325      1.0  0.76909  0.70775  0.35120  1.0000
  S   S40       1.0  0.07641  0.72123  0.37185  1.0000
  H   H259      1.0  0.08992  0.64719  0.12952  1.0000
  C   C326      1.0  0.93176  0.56040  0.20871  1.0000
  H   H260      1.0  0.82062  0.47802  0.12940  1.0000
  S   S41       1.0  0.96621  0.63122  0.17038  1.0000
  C   C327      1.0  0.86354  0.30026  0.14009  1.0000
  H   H261      1.0  0.78979  0.54417  0.25396  1.0000
  S   S42       1.0  0.71209  0.29730  0.31682  1.0000
  C   C328      1.0  0.92852  0.78058  0.23752  1.0000
  C   C329      1.0  0.84099  0.52752  0.25021  1.0000
  C   C330      1.0  0.94474  0.32276  0.19255  1.0000
  S   S43       1.0  0.66899  0.49831  0.28830  1.0000
  H   H262      1.0  0.98241  0.34989  0.19648  1.0000
  C   C331      1.0  0.88331  0.45299  0.28301  1.0000
  H   H263      1.0  0.83390  0.64202  0.19119  1.0000
  H   H264      1.0  0.95480  0.74691  0.27637  1.0000
  S   S44       1.0  0.74252  0.41028  0.20686  1.0000
  Fe  Fe20      1.0  0.05389  0.60273  0.22694  1.0000
  S   S45       1.0  0.03943  0.56358  0.31137  1.0000
  S   S46       1.0  0.85396  0.38540  0.32967  1.0000
  H   H265      1.0  0.01499  0.46837  0.13483  1.0000
  Fe  Fe21      1.0  0.68791  0.31976  0.23128  1.0000
  S   S47       1.0  0.10640  0.68796  0.23647  1.0000
  H   H266      1.0  0.77128  0.59272  0.34077  1.0000
  H   H267      1.0  0.98217  0.37478  0.30343  1.0000
  Fe  Fe22      1.0  0.64999  0.50597  0.20488  1.0000
  C   C332      1.0  0.79936  0.62818  0.35096  1.0000
  H   H268      1.0  0.84760  0.73381  0.25291  1.0000
  C   C333      1.0  0.97309  0.48444  0.24007  1.0000
  Fe  Fe23      1.0  0.09944  0.64061  0.32190  1.0000
  Fe  Fe24      1.0  0.75795  0.39643  0.29167  1.0000
  H   H269      1.0  0.69520  0.69376  0.24554  1.0000
  C   C334      1.0  0.86562  0.58231  0.21401  1.0000
  C   C335      1.0  0.91331  0.33504  0.14318  1.0000
  C   C336      1.0  0.67683  0.75979  0.23018  1.0000
  H   H270      1.0  0.02417  0.46673  0.23630  1.0000
  C   C337      1.0  0.80767  0.75398  0.36061  1.0000
  C   C338      1.0  0.11334  0.40596  0.13013  1.0000
  C   C339      1.0  0.86792  0.77381  0.22447  1.0000
  H   H271      1.0  0.89000  0.53215  0.36327  1.0000
  C   C340      1.0  0.86680  0.59367  0.36345  1.0000
  H   H272      1.0  0.70124  0.60159  0.42022  1.0000
  C   C341      1.0  0.09254  0.54237  0.51423  1.0000
  H   H273      1.0  0.72423  0.75089  0.43941  1.0000
  C   C342      1.0  0.87849  0.71900  0.51277  1.0000
  H   H274      1.0  0.68186  0.54098  0.56532  1.0000
  C   C343      1.0  0.65868  0.61187  0.39386  1.0000
  C   C344      1.0  0.63299  0.53709  0.56135  1.0000
  C   C345      1.0  0.87514  0.71937  0.37285  1.0000
  C   C346      1.0  0.74413  0.36883  0.50155  1.0000
  C   C347      1.0  0.91508  0.62418  0.61812  1.0000
  H   H275      1.0  0.03234  0.38255  0.56022  1.0000
  C   C348      1.0  0.05591  0.42284  0.53597  1.0000
  H   H276      1.0  0.89460  0.29691  0.43908  1.0000
  H   H277      1.0  0.07854  0.35068  0.48460  1.0000
  H   H278      1.0  0.86422  0.75593  0.47202  1.0000
  C   C349      1.0  0.72494  0.35235  0.45734  1.0000
  C   C350      1.0  0.83951  0.73736  0.55018  1.0000
  S   S48       1.0  0.67654  0.75779  0.62186  1.0000
  C   C351      1.0  0.93586  0.65311  0.52790  1.0000
  H   H279      1.0  0.74348  0.34237  0.58455  1.0000
  H   H280      1.0  0.95675  0.61212  0.38501  1.0000
  C   C352      1.0  0.72996  0.32810  0.55046  1.0000
  H   H281      1.0  0.96500  0.64006  0.49814  1.0000
  C   C353      1.0  0.85801  0.69022  0.60280  1.0000
  H   H282      1.0  0.73486  0.38475  0.41909  1.0000
  C   C354      1.0  0.95448  0.60493  0.58082  1.0000
  H   H283      1.0  0.92550  0.44671  0.59092  1.0000
  H   H284      1.0  0.99452  0.30233  0.39849  1.0000
  C   C355      1.0  0.11434  0.45375  0.46150  1.0000
  H   H285      1.0  0.09665  0.59664  0.52141  1.0000
  H   H286      1.0  0.76911  0.41401  0.49776  1.0000
  C   C356      1.0  0.06031  0.49276  0.54654  1.0000
  P   P12       1.0  0.02775  0.51867  0.60184  1.0000
  C   C357      1.0  0.11945  0.52277  0.47199  1.0000
  H   H287      1.0  0.90508  0.75503  0.37995  1.0000
  C   C358      1.0  0.08255  0.40388  0.49335  1.0000
  C   C359      1.0  0.90452  0.63886  0.37514  1.0000
  C   C360      1.0  0.69185  0.29496  0.46212  1.0000
  H   H288      1.0  0.63694  0.50509  0.44158  1.0000
