data_image0
_chemical_formula_structural       FeS2FeS2FeSFeS3FeSFeS2FeSFeS3FeS2CSHCHCH2C6H4C6H4C3H2C2H3C4HC2H3C9HPC2H2SHCSC2FeCPHC6PHC4HC2HCH2C4H7CHCHC6H3CHC2HCH4C2H3C2H2C2H2C2H3CPH3C2H3CHCH6C3HCHCHC3HCH2C2HCHC2HC2HC12HC2HC3H2C3H2CHC4H3C2H3C3H2P2HCH4C4H3C2HC3H2C2H7CHFeHC2FeS2FeS2FeSFeS3FeSFeS2FeSFeS3FeSHCSCH4C7H4C6H4C6HCH3C2PHC3H3C4H2CH3C2HCHCHCHCH2CHCHC4HC2H2C3PC4HC2HCHC8HC2HCHC3HC3H11C4H3CH2CHPC7HC6H2C2H2SC4H3CH6C2HC4HC2PHC2H3CHCHC2HC4PC3HCHCH4SHC6HC3HCH2C3H3CH3CHCHC3HC2HC2HC2H2CFeHC2SPCH3CH2CHCH3C3HFeS2CHFeSH2SC2HC6HCH2C3H2CHCH6C2HCHC5H2CH4C6H3CHC2HC3HC2SH2CSCHC2H4CH4CHC2HSPC2H2C5HCH2CHCFeH4CHCFeSC2SFeSH2SHCSC6H4C6H5C2H3C2HC4HPHCH3CH6CHC2HC8PSCHC2HC7H3CH3CPC2H2CHCH4SCHCH2C2H2C6HC2HC2HC7H4CH8C4HC5SHCH2CSFeH2C2H2C3HCH2CH2SH2FeSFeSFeS2FeSFeS3FeS2FeS2FeSFeS3C5H3CHC6H4C2H2C4H2C6H5C2HC6H3CFeC6PC18H19C4HCH5C4H3C4HC4HCH2CH4C4HCH4CH4CH2CH2C3H2C2HCH3C2H2CHC7HCHC7HC4H3C2H3CHPCHCHC3SCSH3C2H4CSC2H2C2FeCHCH2CSH2CHC3HPH3SCHFeSFeSFeSCFeSFeS3FeS2FeS2FeSFeS3C6HFeHC7H5C3HCHC2HC6H4CHCHC2H3C4H8SH3SC2HCHC4H4C4HC4HC4HC2H4CHC3H3SHSCHC2PCHCHCHC3HCH3C2PC2HC3FeCH3CH2C7H3C6PC3HC8H5CH2CH6C5PCH4C4PHCHCHC3HCHCHCHC2H6CHCHPH2C6H2C3HC2HFeS2FeS2FeSFeS3FeS2FeS2FeSFeS2HSC2FeSH4CHC4HC7H4C3H2CH2CHCHPCHC6H4CHCHC11H2C5H3C4HC3H2CH2C4HC2H2CHC3HCH2C10H4CHC4H2CH2CH9CHCH8CHCH2C8PC18H2CH3C2H15CH3C4HPHC6H2CPH5CH2CH2C3H2CHCSC3SHSCH2CHC4FeS2FeS2FeSFeS3FeS2FeS2FeSFeS2HSCHFeSC4HC13H4CH4CH2CSC2H3C6H4C6PC4H2C12H7CH12C6HC4HC6H6CH6CH2C4HC2HPH2CHC2HC3HCH2C3HC3HCH2C3H3CFeCH4CH2C5H3CH2C3H4C2HC3H3CH2CHC3HC3H2C2HCHC3PC2H2C2HCH2CH2SCH3C2HCHC2H2C2HC2HPCH2C2HSH2FeSCHSC2FeSHSC6HSH2C8H4CFeH8SHCHCHC2FeC5H2C8HCFeHC5H3C2H2C3HC2H2PCH4C2HCH2CSC3H3SHCHC4H2C3SHSHCH4CH2CHSHPFeSH2SH2FeSHSC6H4C6H4CSHCHCH2C2H2C2HC3FeC4HCSHPHCFeC3H2CHC2HC2HC6HCH2SH3CSC2H3CH2CHC2H3CHCPC11HC2HC6H2C2HSCHCFeC2FeSH2SC2SFeSCFeSFeS3FeS2FeS2FeSFeS3C3H2C2HSCHC5H4C6H4C6H6CPC4HCHC4H6CH4CHCHPC14HC3HCH5CH5PC2H4C2HC2PCH3C2HCH2C5H2CHCPH2C2HCHC2H2CHCHCHCH2CHCHCH2C2HCH2CHPHC6HC2HC9H7CHCHC4H2C3H3C4HCHCHCHCHC2HC7HC3FeC2H3C4HC3HC2HCH3C3HCH3FeSCHSFeHSFeSCFeSFeS3FeS2FeS2FeSFeS3C2H2C4HC3HC2H5C6H4C6H4CHCH2C7PC8H4C7H8CH8C4H2CPHCH2CH2CHC2HCH2C4HPCH2CHC4HC2H2C2HC4SC2H2C4H4C2HC2HCH2C6H5C2HC4H3CH2CHC4H2C2H2C2HCHCHCHCPHCH3CH3C4PC2H2C2H2C2H2CH3CHC2HC2HSH
_chemical_formula_sum              "Fe96 S192 C1440 H1152 P48"
_cell_length_a       33.6855
_cell_length_b       67.3072
_cell_length_c       47.7096
_cell_angle_alpha    89.9258
_cell_angle_beta     90.1247
_cell_angle_gamma    90.1867

_space_group_name_H-M_alt    "P 1"
_space_group_IT_number       1

loop_
  _space_group_symop_operation_xyz
  'x, y, z'

loop_
  _atom_site_type_symbol
  _atom_site_label
  _atom_site_symmetry_multiplicity
  _atom_site_fract_x
  _atom_site_fract_y
  _atom_site_fract_z
  _atom_site_occupancy
  Fe  Fe1       1.0  0.11773  0.17497  0.10632  1.0000
  S   S1        1.0  0.13340  0.20716  0.10164  1.0000
  S   S2        1.0  0.05469  0.16604  0.12065  1.0000
  Fe  Fe2       1.0  0.20527  0.16207  0.09300  1.0000
  S   S3        1.0  0.22503  0.19398  0.08739  1.0000
  S   S4        1.0  0.24758  0.13706  0.07862  1.0000
  Fe  Fe3       1.0  0.18877  0.20002  0.12631  1.0000
  S   S5        1.0  0.20452  0.22344  0.15934  1.0000
  Fe  Fe4       1.0  0.16799  0.19817  0.06345  1.0000
  S   S6        1.0  0.15542  0.21284  0.02118  1.0000
  S   S7        1.0  0.17178  0.16797  0.13327  1.0000
  S   S8        1.0  0.14961  0.16610  0.06686  1.0000
  Fe  Fe5       1.0  0.24632  0.26786  0.35873  1.0000
  S   S9        1.0  0.23731  0.23478  0.35410  1.0000
  Fe  Fe6       1.0  0.33704  0.26294  0.35560  1.0000
  S   S10       1.0  0.33324  0.22986  0.35083  1.0000
  S   S11       1.0  0.39584  0.28018  0.35634  1.0000
  Fe  Fe7       1.0  0.28327  0.23583  0.32027  1.0000
  S   S12       1.0  0.27876  0.21501  0.28233  1.0000
  Fe  Fe8       1.0  0.28722  0.23142  0.38487  1.0000
  S   S13       1.0  0.28221  0.20713  0.41796  1.0000
  S   S14       1.0  0.28976  0.26913  0.32277  1.0000
  S   S15       1.0  0.29374  0.26422  0.39177  1.0000
  Fe  Fe9       1.0  0.43649  0.05731  0.10516  1.0000
  S   S16       1.0  0.39382  0.08252  0.11857  1.0000
  S   S17       1.0  0.18646  0.28365  0.36404  1.0000
  C   C1        1.0  0.41646  0.20468  0.45765  1.0000
  S   S18       1.0  0.42715  0.02427  0.11100  1.0000
  H   H1        1.0  0.07009  0.26984  0.27565  1.0000
  C   C2        1.0  0.40267  0.27996  0.28326  1.0000
  H   H2        1.0  0.11004  0.27573  0.42815  1.0000
  C   C3        1.0  0.34429  0.00912  0.15991  1.0000
  H   H3        1.0  0.01996  0.24449  0.03844  1.0000
  H   H4        1.0  0.46323  0.14498  0.21985  1.0000
  C   C4        1.0  0.28778  0.12186  0.09054  1.0000
  C   C5        1.0  0.30741  0.10964  0.07102  1.0000
  C   C6        1.0  0.33983  0.09760  0.07906  1.0000
  C   C7        1.0  0.35289  0.09735  0.10694  1.0000
  C   C8        1.0  0.33316  0.10950  0.12649  1.0000
  C   C9        1.0  0.30093  0.12168  0.11841  1.0000
  H   H5        1.0  0.29757  0.10958  0.04942  1.0000
  H   H6        1.0  0.35471  0.08854  0.06365  1.0000
  H   H7        1.0  0.34275  0.10943  0.14812  1.0000
  H   H8        1.0  0.28622  0.13088  0.13374  1.0000
  C   C10       1.0  0.22434  0.22044  0.19368  1.0000
  C   C11       1.0  0.24241  0.20283  0.20248  1.0000
  C   C12       1.0  0.25863  0.20142  0.22972  1.0000
  C   C13       1.0  0.25643  0.21742  0.24863  1.0000
  C   C14       1.0  0.23733  0.23481  0.24007  1.0000
  C   C15       1.0  0.22181  0.23638  0.21265  1.0000
  H   H9        1.0  0.24433  0.19038  0.18823  1.0000
  H   H10       1.0  0.27305  0.18782  0.23620  1.0000
  H   H11       1.0  0.23478  0.24701  0.25463  1.0000
  H   H12       1.0  0.20734  0.24991  0.20607  1.0000
  C   C16       1.0  0.28014  0.21146  0.45448  1.0000
  C   C17       1.0  0.14867  0.23498  0.39663  1.0000
  C   C18       1.0  0.46569  0.27906  0.43914  1.0000
  H   H13       1.0  0.10332  0.24641  0.02135  1.0000
  H   H14       1.0  0.14393  0.22551  0.37857  1.0000
  C   C19       1.0  0.28962  0.22993  0.46611  1.0000
  C   C20       1.0  0.15736  0.23466  0.29379  1.0000
  H   H15       1.0  0.23627  0.22705  0.03122  1.0000
  H   H16       1.0  0.17627  0.30332  0.30583  1.0000
  H   H17       1.0  0.29878  0.24204  0.45265  1.0000
  C   C21       1.0  0.33684  0.26025  0.26084  1.0000
  C   C22       1.0  0.44414  0.26991  0.36108  1.0000
  C   C23       1.0  0.44984  0.24992  0.36798  1.0000
  C   C24       1.0  0.36339  0.25005  0.27817  1.0000
  H   H18       1.0  0.42440  0.24020  0.37014  1.0000
  C   C25       1.0  0.13752  0.23251  0.26822  1.0000
  C   C26       1.0  0.00581  0.17262  0.10887  1.0000
  H   H19       1.0  0.22487  0.27903  0.23051  1.0000
  H   H20       1.0  0.02367  0.18659  0.07034  1.0000
  H   H21       1.0  0.14030  0.30940  0.20581  1.0000
  C   C27       1.0  0.27223  0.26068  0.15135  1.0000
  C   C28       1.0  0.16257  0.26013  0.44250  1.0000
  C   C29       1.0  0.45936  0.98339  0.00729  1.0000
  C   C30       1.0  0.46570  0.12291  0.15598  1.0000
  C   C31       1.0  0.18729  0.24376  0.43766  1.0000
  C   C32       1.0  0.37494  0.00818  0.17973  1.0000
  C   C33       1.0  0.13016  0.26351  0.42457  1.0000
  C   C34       1.0  0.38182  0.19109  0.41725  1.0000
  C   C35       1.0  0.08321  0.21887  0.21231  1.0000
  H   H22       1.0  0.35435  0.14566  0.06678  1.0000
  P   P1        1.0  0.44729  0.22378  0.47304  1.0000
  C   C36       1.0  0.24679  0.28392  0.45415  1.0000
  C   C37       1.0  0.16842  0.30843  0.36532  1.0000
  H   H23       1.0  0.34423  0.16581  0.42517  1.0000
  H   H24       1.0  0.37352  0.19207  0.39532  1.0000
  S   S19       1.0  0.47071  0.05312  0.06486  1.0000
  H   H25       1.0  0.44015  0.21692  0.07507  1.0000
  C   C38       1.0  0.39627  0.25991  0.28943  1.0000
  S   S20       1.0  0.45102  0.99391  0.04160  1.0000
  C   C39       1.0  0.14544  0.24920  0.31276  1.0000
  C   C40       1.0  0.19677  0.29033  0.26725  1.0000
  Fe  Fe10      1.0  0.46584  0.01991  0.07231  1.0000
  C   C41       1.0  0.40251  0.25227  0.44464  1.0000
  P   P2        1.0  0.30799  0.29352  0.23253  1.0000
  H   H26       1.0  0.21192  0.24063  0.45155  1.0000
  C   C42       1.0  0.23791  0.07972  0.14860  1.0000
  C   C43       1.0  0.22578  0.08834  0.12335  1.0000
  C   C44       1.0  0.23371  0.07882  0.09801  1.0000
  C   C45       1.0  0.25424  0.06079  0.09781  1.0000
  C   C46       1.0  0.26784  0.05238  0.12303  1.0000
  C   C47       1.0  0.25844  0.06167  0.14849  1.0000
  P   P3        1.0  0.29349  0.02883  0.12295  1.0000
  H   H27       1.0  0.14429  0.27607  0.03168  1.0000
  C   C48       1.0  0.32077  0.02551  0.09082  1.0000
  C   C49       1.0  0.13540  0.29442  0.19822  1.0000
  C   C50       1.0  0.36590  0.02054  0.04199  1.0000
  C   C51       1.0  0.22265  0.28076  0.47768  1.0000
  H   H28       1.0  0.47367  0.29782  0.35317  1.0000
  C   C52       1.0  0.46672  0.17252  0.04694  1.0000
  C   C53       1.0  0.44297  0.18694  0.05954  1.0000
  H   H29       1.0  0.37754  0.24218  0.44669  1.0000
  C   C54       1.0  0.17566  0.16578  0.47000  1.0000
  H   H30       1.0  0.31354  0.99352  0.08947  1.0000
  H   H31       1.0  0.34748  0.22002  0.00424  1.0000
  C   C55       1.0  0.33095  0.02761  0.15000  1.0000
  C   C56       1.0  0.34968  0.04502  0.15943  1.0000
  C   C57       1.0  0.38057  0.04401  0.17897  1.0000
  C   C58       1.0  0.39297  0.02562  0.18930  1.0000
  H   H32       1.0  0.25227  0.30278  0.18782  1.0000
  H   H33       1.0  0.23465  0.28251  0.43317  1.0000
  H   H34       1.0  0.23153  0.08710  0.16823  1.0000
  H   H35       1.0  0.21053  0.10252  0.12330  1.0000
  H   H36       1.0  0.22442  0.08565  0.07847  1.0000
  H   H37       1.0  0.25971  0.05358  0.07794  1.0000
  H   H38       1.0  0.26725  0.05508  0.16825  1.0000
  C   C59       1.0  0.00756  0.24507  0.25282  1.0000
  H   H39       1.0  0.40405  0.12898  0.16585  1.0000
  C   C60       1.0  0.20375  0.98928  0.10729  1.0000
  H   H40       1.0  0.05613  0.21330  0.02813  1.0000
  C   C61       1.0  0.14333  0.26952  0.16218  1.0000
  C   C62       1.0  0.16545  0.18541  0.47611  1.0000
  C   C63       1.0  0.30270  0.29150  0.48442  1.0000
  C   C64       1.0  0.40106  0.18922  0.47425  1.0000
  C   C65       1.0  0.22869  0.28823  0.24882  1.0000
  C   C66       1.0  0.42588  0.10437  0.18958  1.0000
  H   H41       1.0  0.34125  0.05937  0.15115  1.0000
  H   H42       1.0  0.39559  0.05748  0.18548  1.0000
  H   H43       1.0  0.15488  0.26495  0.14199  1.0000
  C   C67       1.0  0.33954  0.04184  0.07820  1.0000
  H   H44       1.0  0.26187  0.00810  0.17241  1.0000
  C   C68       1.0  0.40536  0.14453  0.09406  1.0000
  C   C69       1.0  0.42867  0.28359  0.42762  1.0000
  H   H45       1.0  0.10533  0.27324  0.32084  1.0000
  C   C70       1.0  0.11388  0.26175  0.30615  1.0000
  H   H46       1.0  0.16912  0.28264  0.26316  1.0000
  H   H47       1.0  0.38559  0.99394  0.18723  1.0000
  H   H48       1.0  0.16092  0.25085  0.33251  1.0000
  H   H49       1.0  0.44130  0.99152  0.44096  1.0000
  C   C71       1.0  0.46122  0.98389  0.45513  1.0000
  C   C72       1.0  0.12211  0.25586  0.17846  1.0000
  H   H50       1.0  0.41332  0.98562  0.13388  1.0000
  H   H51       1.0  0.16611  0.29939  0.15929  1.0000
  H   H52       1.0  0.38082  0.30374  0.20317  1.0000
  C   C73       1.0  0.25570  0.01006  0.12726  1.0000
  C   C74       1.0  0.29448  0.28039  0.20083  1.0000
  H   H53       1.0  0.30512  0.29188  0.43935  1.0000
  H   H54       1.0  0.31379  0.23817  0.16381  1.0000
  C   C75       1.0  0.30106  0.25247  0.16890  1.0000
  C   C76       1.0  0.12712  0.31145  0.36455  1.0000
  H   H55       1.0  0.46391  0.10573  0.09805  1.0000
  H   H56       1.0  0.34602  0.18020  0.14204  1.0000
  C   C77       1.0  0.18030  0.23122  0.41484  1.0000
  C   C78       1.0  0.20087  0.30188  0.29138  1.0000
  H   H57       1.0  0.19980  0.21874  0.41104  1.0000
  H   H58       1.0  0.18698  0.98422  0.08923  1.0000
  H   H59       1.0  0.36233  0.16365  0.47552  1.0000
  C   C79       1.0  0.19085  0.22498  0.99963  1.0000
  P   P4        1.0  0.17062  0.27527  0.47316  1.0000
  H   H60       1.0  0.23278  0.28519  0.14437  1.0000
  H   H61       1.0  0.41595  0.25226  0.30381  1.0000
  H   H62       1.0  0.01921  0.21446  0.21136  1.0000
  C   C80       1.0  0.19526  0.98165  0.13389  1.0000
  C   C81       1.0  0.45863  0.20573  0.06537  1.0000
  H   H63       1.0  0.31669  0.16860  0.09727  1.0000
  H   H64       1.0  0.42721  0.28776  0.29310  1.0000
  H   H65       1.0  0.42036  0.13394  0.08085  1.0000
  C   C82       1.0  0.34655  0.16415  0.10310  1.0000
  H   H66       1.0  0.07890  0.10021  0.43254  1.0000
  C   C83       1.0  0.13098  0.29055  0.99242  1.0000
  H   H67       1.0  0.20950  0.98270  0.17791  1.0000
  H   H68       1.0  0.26265  0.25271  0.13277  1.0000
  H   H69       1.0  0.11713  0.24115  0.17000  1.0000
  H   H70       1.0  0.14691  0.21850  0.20768  1.0000
  H   H71       1.0  0.35765  0.23467  0.28364  1.0000
  H   H72       1.0  0.16355  0.30358  0.42679  1.0000
  C   C84       1.0  0.21643  0.98843  0.15724  1.0000
  C   C85       1.0  0.00659  0.23348  0.02479  1.0000
  C   C86       1.0  0.36303  0.17057  0.12841  1.0000
  H   H73       1.0  0.31062  0.25258  0.25337  1.0000
  C   C87       1.0  0.26527  0.29741  0.25466  1.0000
  H   H74       1.0  0.18243  0.22515  0.29873  1.0000
  C   C88       1.0  0.11445  0.28074  0.21465  1.0000
  H   H75       1.0  0.33367  0.29554  0.48697  1.0000
  C   C89       1.0  0.26610  0.28874  0.18273  1.0000
  C   C90       1.0  0.36530  0.17624  0.43411  1.0000
  C   C91       1.0  0.32605  0.00649  0.07937  1.0000
  H   H76       1.0  0.08681  0.06623  0.45195  1.0000
  C   C92       1.0  0.40768  0.20514  0.42886  1.0000
  H   H77       1.0  0.42463  0.29721  0.41577  1.0000
  H   H78       1.0  0.26172  0.18145  0.46343  1.0000
  C   C93       1.0  0.37643  0.29014  0.26562  1.0000
  C   C94       1.0  0.09405  0.25972  0.28051  1.0000
  H   H79       1.0  0.41995  0.21660  0.41544  1.0000
  C   C95       1.0  0.28669  0.28927  0.45757  1.0000
  H   H80       1.0  0.46796  0.18598  0.12303  1.0000
  C   C96       1.0  0.08598  0.09820  0.45453  1.0000
  C   C97       1.0  0.12356  0.25108  0.40152  1.0000
  H   H81       1.0  0.14954  0.30331  0.99709  1.0000
  C   C98       1.0  0.36778  0.15119  0.08592  1.0000
  C   C99       1.0  0.00955  0.20148  0.00194  1.0000
  H   H82       1.0  0.14963  0.18511  0.18753  1.0000
  C   C100      1.0  0.10563  0.24504  0.26121  1.0000
  C   C101      1.0  0.36165  0.03941  0.05371  1.0000
  C   C102      1.0  0.99881  0.18242  0.08341  1.0000
  C   C103      1.0  0.04958  0.18943  0.19432  1.0000
  C   C104      1.0  0.03068  0.25146  0.23002  1.0000
  C   C105      1.0  0.34848  0.00406  0.05496  1.0000
  C   C106      1.0  0.02697  0.21590  0.01907  1.0000
  C   C107      1.0  0.11963  0.21032  0.20499  1.0000
  C   C108      1.0  0.12119  0.19141  0.19311  1.0000
  C   C109      1.0  0.08617  0.18097  0.18770  1.0000
  C   C110      1.0  0.22832  0.23036  0.00975  1.0000
  C   C111      1.0  0.42245  0.15115  0.11927  1.0000
  H   H83       1.0  0.38383  0.01853  0.02335  1.0000
  C   C112      1.0  0.24955  0.17396  0.01731  1.0000
  C   C113      1.0  0.10811  0.26124  0.20512  1.0000
  H   H84       1.0  0.41237  0.18362  0.06474  1.0000
  C   C114      1.0  0.26855  0.19585  0.47228  1.0000
  C   C115      1.0  0.40080  0.16411  0.13650  1.0000
  C   C116      1.0  0.14706  0.29925  0.47032  1.0000
  H   H85       1.0  0.46443  0.18184  0.22159  1.0000
  H   H86       1.0  0.08628  0.12948  0.46331  1.0000
  C   C117      1.0  0.04800  0.20824  0.20675  1.0000
  C   C118      1.0  0.34361  0.28024  0.25384  1.0000
  C   C119      1.0  0.47065  0.99267  0.48140  1.0000
  H   H87       1.0  0.39766  0.10174  0.19980  1.0000
  H   H88       1.0  0.14786  0.22115  0.25417  1.0000
  C   C120      1.0  0.25503  0.27889  0.15811  1.0000
  H   H89       1.0  0.23945  0.00957  0.08332  1.0000
  C   C121      1.0  0.23366  0.00355  0.10399  1.0000
  C   C122      1.0  0.28952  0.17309  0.02495  1.0000
  C   C123      1.0  0.39705  0.27030  0.43062  1.0000
  C   C124      1.0  0.31264  0.26239  0.19333  1.0000
  H   H90       1.0  0.37635  0.05206  0.04421  1.0000
  H   H91       1.0  0.22687  0.16876  0.03167  1.0000
  H   H92       1.0  0.09935  0.25413  0.38721  1.0000
  C   C125      1.0  0.12793  0.27523  0.01213  1.0000
  C   C126      1.0  0.09042  0.11475  0.47199  1.0000
  H   H93       1.0  0.45463  0.15790  0.04257  1.0000
  H   H94       1.0  0.41731  0.02481  0.20418  1.0000
  H   H95       1.0  0.10742  0.29877  0.36326  1.0000
  C   C127      1.0  0.44012  0.24720  0.45520  1.0000
  C   C128      1.0  0.37527  0.17516  0.46252  1.0000
  C   C129      1.0  0.09036  0.07905  0.46547  1.0000
  H   H96       1.0  0.02062  0.23612  0.26932  1.0000
  H   H97       1.0  0.10317  0.28547  0.23475  1.0000
  P   P5        1.0  0.47094  0.14255  0.13030  1.0000
  P   P6        1.0  0.08179  0.24367  0.22709  1.0000
  H   H98       1.0  0.41278  0.16890  0.15647  1.0000
  C   C130      1.0  0.23704  0.31121  0.29723  1.0000
  H   H99       1.0  0.29748  0.16716  0.04529  1.0000
  H   H100      1.0  0.33553  0.25580  0.20614  1.0000
  H   H101      1.0  0.36863  0.27379  0.42127  1.0000
  H   H102      1.0  0.45480  0.07954  0.20957  1.0000
  C   C131      1.0  0.24634  0.00272  0.15401  1.0000
  C   C132      1.0  0.42968  0.11987  0.17018  1.0000
  C   C133      1.0  0.14993  0.28879  0.17202  1.0000
  C   C134      1.0  0.45798  0.09184  0.19503  1.0000
  H   H103      1.0  0.08730  0.16651  0.17772  1.0000
  H   H104      1.0  0.33768  0.05639  0.08764  1.0000
  H   H105      1.0  0.28405  0.24461  0.00026  1.0000
  C   C135      1.0  0.01256  0.26218  0.20822  1.0000
  C   C136      1.0  0.31882  0.17966  0.00633  1.0000
  H   H106      1.0  0.02941  0.26661  0.18992  1.0000
  C   C137      1.0  0.10484  0.25847  0.00630  1.0000
  C   C138      1.0  0.15732  0.15009  0.48431  1.0000
  C   C139      1.0  0.47125  0.26109  0.45335  1.0000
  H   H107      1.0  0.33158  0.99544  0.15198  1.0000
  H   H108      1.0  0.35342  0.98937  0.04636  1.0000
  C   C140      1.0  0.47769  0.28232  0.35842  1.0000
  C   C141      1.0  0.14932  0.30995  0.44505  1.0000
  H   H109      1.0  0.19792  0.16277  0.45421  1.0000
  H   H110      1.0  0.02524  0.18774  0.99788  1.0000
  H   H111      1.0  0.38127  0.30583  0.26203  1.0000
  H   H112      1.0  0.45816  0.00690  0.48694  1.0000
  H   H113      1.0  0.34961  0.17891  0.01271  1.0000
  H   H114      1.0  0.17978  0.19757  0.46510  1.0000
  H   H115      1.0  0.02245  0.18148  0.18923  1.0000
  C   C142      1.0  0.48799  0.98878  0.20494  1.0000
  H   H116      1.0  0.36817  0.25490  0.01087  1.0000
  Fe  Fe11      1.0  0.48391  0.02376  0.13623  1.0000
  H   H117      1.0  0.16601  0.13500  0.47954  1.0000
  C   C143      1.0  0.26928  0.30883  0.27912  1.0000
  C   C144      1.0  0.25546  0.24020  0.99208  1.0000
  Fe  Fe12      1.0  0.16295  0.18261  0.60122  1.0000
  S   S21       1.0  0.19128  0.21273  0.60443  1.0000
  S   S22       1.0  0.09853  0.18621  0.58565  1.0000
  Fe  Fe13      1.0  0.24298  0.16264  0.61582  1.0000
  S   S23       1.0  0.27491  0.19196  0.61978  1.0000
  S   S24       1.0  0.27732  0.13512  0.63078  1.0000
  Fe  Fe14      1.0  0.22128  0.20213  0.64359  1.0000
  S   S25       1.0  0.22333  0.22586  0.67762  1.0000
  Fe  Fe15      1.0  0.24229  0.20035  0.58043  1.0000
  S   S26       1.0  0.27108  0.22171  0.54946  1.0000
  S   S27       1.0  0.19034  0.17256  0.64211  1.0000
  S   S28       1.0  0.21324  0.17048  0.57453  1.0000
  Fe  Fe16      1.0  0.24375  0.29262  0.85160  1.0000
  S   S29       1.0  0.22521  0.26237  0.86758  1.0000
  Fe  Fe17      1.0  0.33343  0.28003  0.85040  1.0000
  S   S30       1.0  0.31913  0.24939  0.86588  1.0000
  S   S31       1.0  0.39698  0.28920  0.83730  1.0000
  Fe  Fe18      1.0  0.26754  0.25006  0.83561  1.0000
  S   S32       1.0  0.25117  0.22251  0.81000  1.0000
  Fe  Fe19      1.0  0.27786  0.26444  0.89626  1.0000
  S   S33       1.0  0.28167  0.25650  0.94274  1.0000
  S   S34       1.0  0.28386  0.27987  0.81808  1.0000
  S   S35       1.0  0.29464  0.29550  0.88244  1.0000
  Fe  Fe20      1.0  0.44010  0.04915  0.59175  1.0000
  S   S36       1.0  0.39044  0.06959  0.57507  1.0000
  H   H118      1.0  0.09906  0.18151  0.74558  1.0000
  C   C145      1.0  0.41854  0.13201  0.62567  1.0000
  S   S37       1.0  0.44116  0.01554  0.59565  1.0000
  C   C146      1.0  0.17629  0.24633  0.51479  1.0000
  H   H119      1.0  0.44153  0.10277  0.56507  1.0000
  H   H120      1.0  0.20589  0.11524  0.61520  1.0000
  H   H121      1.0  0.39694  0.25945  0.92348  1.0000
  H   H122      1.0  0.20757  0.18280  0.98572  1.0000
  C   C147      1.0  0.39456  0.19133  0.68109  1.0000
  C   C148      1.0  0.30945  0.11745  0.61467  1.0000
  C   C149      1.0  0.31781  0.11760  0.58595  1.0000
  C   C150      1.0  0.34307  0.10304  0.57431  1.0000
  C   C151      1.0  0.36084  0.08832  0.59122  1.0000
  C   C152      1.0  0.35276  0.08832  0.61996  1.0000
  C   C153      1.0  0.32693  0.10264  0.63149  1.0000
  H   H123      1.0  0.30432  0.12872  0.57267  1.0000
  H   H124      1.0  0.34870  0.10307  0.55200  1.0000
  H   H125      1.0  0.36571  0.07699  0.63322  1.0000
  H   H126      1.0  0.32040  0.10219  0.65368  1.0000
  C   C154      1.0  0.23096  0.22428  0.71439  1.0000
  C   C155      1.0  0.23668  0.24196  0.72954  1.0000
  C   C156      1.0  0.24319  0.24161  0.75869  1.0000
  C   C157      1.0  0.24368  0.22354  0.77316  1.0000
  C   C158      1.0  0.23781  0.20581  0.75805  1.0000
  C   C159      1.0  0.23160  0.20615  0.72878  1.0000
  H   H127      1.0  0.23614  0.25606  0.71865  1.0000
  H   H128      1.0  0.24759  0.25536  0.77000  1.0000
  H   H129      1.0  0.23805  0.19176  0.76906  1.0000
  H   H130      1.0  0.22708  0.19243  0.71741  1.0000
  C   C160      1.0  0.24583  0.24443  0.96401  1.0000
  C   C161      1.0  0.12899  0.29081  0.88882  1.0000
  C   C162      1.0  0.15218  0.12986  0.60200  1.0000
  C   C163      1.0  0.27440  0.21728  0.51300  1.0000
  C   C164      1.0  0.03688  0.12843  0.55596  1.0000
  C   C165      1.0  0.08497  0.25691  0.98067  1.0000
  H   H131      1.0  0.06494  0.24871  0.53494  1.0000
  C   C166      1.0  0.36813  0.98285  0.55216  1.0000
  H   H132      1.0  0.03903  0.30600  0.91309  1.0000
  H   H133      1.0  0.32930  0.15470  0.52741  1.0000
  H   H134      1.0  0.09099  0.27056  0.49746  1.0000
  C   C167      1.0  0.44636  0.28188  0.84714  1.0000
  C   C168      1.0  0.45397  0.26683  0.86676  1.0000
  P   P7        1.0  0.45731  0.14487  0.57676  1.0000
  H   H135      1.0  0.42934  0.25912  0.87639  1.0000
  C   C169      1.0  0.04257  0.16569  0.61816  1.0000
  C   C170      1.0  0.04968  0.17998  0.59743  1.0000
  C   C171      1.0  0.01684  0.18927  0.58465  1.0000
  H   H136      1.0  0.06731  0.15830  0.62810  1.0000
  H   H137      1.0  0.02184  0.20024  0.56847  1.0000
  H   H138      1.0  0.19097  0.28631  0.94604  1.0000
  C   C172      1.0  0.10134  0.29953  0.90694  1.0000
  C   C173      1.0  0.28734  0.27007  0.66753  1.0000
  C   C174      1.0  0.34946  0.02338  0.54832  1.0000
  C   C175      1.0  0.13685  0.12812  0.55229  1.0000
  H   H139      1.0  0.10173  0.06158  0.50248  1.0000
  H   H140      1.0  0.30089  0.01665  0.57597  1.0000
  C   C176      1.0  0.41295  0.23653  0.56483  1.0000
  H   H141      1.0  0.41894  0.99036  0.52670  1.0000
  H   H142      1.0  0.39278  0.27470  0.97054  1.0000
  H   H143      1.0  0.44073  0.09705  0.67495  1.0000
  C   C177      1.0  0.09615  0.24827  0.52953  1.0000
  C   C178      1.0  0.32585  0.01069  0.56449  1.0000
  H   H144      1.0  0.06816  0.24357  0.97591  1.0000
  C   C179      1.0  0.33969  0.17735  0.55833  1.0000
  H   H145      1.0  0.40459  0.23976  0.58626  1.0000
  C   C180      1.0  0.45667  0.98830  0.73034  1.0000
  H   H146      1.0  0.30004  0.20727  0.69225  1.0000
  C   C181      1.0  0.34966  0.16040  0.54310  1.0000
  H   H147      1.0  0.39179  0.13705  0.53711  1.0000
  C   C182      1.0  0.31627  0.26037  0.68350  1.0000
  H   H148      1.0  0.38873  0.12156  0.66287  1.0000
  H   H149      1.0  0.28594  0.17192  0.68264  1.0000
  C   C183      1.0  0.03704  0.16072  0.70621  1.0000
  H   H150      1.0  0.05356  0.11732  0.56734  1.0000
  C   C184      1.0  0.99761  0.13214  0.56379  1.0000
  H   H151      1.0  0.32169  0.26536  0.70472  1.0000
  C   C185      1.0  0.07655  0.28300  0.85575  1.0000
  C   C186      1.0  0.46921  0.12909  0.54743  1.0000
  C   C187      1.0  0.04611  0.14057  0.70327  1.0000
  C   C188      1.0  0.36522  0.18444  0.57917  1.0000
  H   H152      1.0  0.27091  0.28230  0.67653  1.0000
  C   C189      1.0  0.48707  0.98403  0.95977  1.0000
  C   C190      1.0  0.10333  0.09295  0.51143  1.0000
  H   H153      1.0  0.18065  0.22316  0.54567  1.0000
  H   H154      1.0  0.25528  0.18676  0.51476  1.0000
  C   C191      1.0  0.26786  0.18822  0.97254  1.0000
  C   C192      1.0  0.41766  0.14622  0.97205  1.0000
  C   C193      1.0  0.27844  0.26350  0.64044  1.0000
  P   P8        1.0  0.34650  0.19400  0.95485  1.0000
  C   C194      1.0  0.36056  0.21967  0.95984  1.0000
  C   C195      1.0  0.38954  0.17854  0.96095  1.0000
  C   C196      1.0  0.42791  0.18682  0.96164  1.0000
  C   C197      1.0  0.46930  0.25162  0.64941  1.0000
  H   H155      1.0  0.04041  0.23094  0.60583  1.0000
  C   C198      1.0  0.17231  0.11763  0.54793  1.0000
  C   C199      1.0  0.39435  0.22664  0.51778  1.0000
  H   H156      1.0  0.44965  0.22501  0.72025  1.0000
  C   C200      1.0  0.35888  0.22831  0.98655  1.0000
  H   H157      1.0  0.22453  0.10495  0.56726  1.0000
  C   C201      1.0  0.38707  0.25062  0.94119  1.0000
  C   C202      1.0  0.37523  0.23089  0.93722  1.0000
  C   C203      1.0  0.32799  0.19069  0.91948  1.0000
  C   C204      1.0  0.30127  0.20454  0.90814  1.0000
  C   C205      1.0  0.28612  0.20204  0.88107  1.0000
  C   C206      1.0  0.29808  0.18593  0.86482  1.0000
  C   C207      1.0  0.32486  0.17211  0.87579  1.0000
  C   C208      1.0  0.33972  0.17442  0.90304  1.0000
  H   H158      1.0  0.34223  0.22469  0.63632  1.0000
  C   C209      1.0  0.11065  0.23843  0.75544  1.0000
  C   C210      1.0  0.19820  0.30192  0.94349  1.0000
  H   H159      1.0  0.25837  0.19435  0.95272  1.0000
  C   C211      1.0  0.38472  0.15811  0.96607  1.0000
  H   H160      1.0  0.43262  0.20248  0.95763  1.0000
  C   C212      1.0  0.43404  0.22834  0.50911  1.0000
  C   C213      1.0  0.99406  0.29936  0.98469  1.0000
  C   C214      1.0  0.11102  0.28916  0.96662  1.0000
  H   H161      1.0  0.25511  0.27062  0.62848  1.0000
  C   C215      1.0  0.06099  0.29960  0.89935  1.0000
  C   C216      1.0  0.23812  0.30766  0.94337  1.0000
  C   C217      1.0  0.45232  0.23886  0.55617  1.0000
  H   H162      1.0  0.41997  0.18003  0.60139  1.0000
  H   H163      1.0  0.37696  0.22458  0.91639  1.0000
  H   H164      1.0  0.29190  0.21728  0.92028  1.0000
  H   H165      1.0  0.26527  0.21272  0.87252  1.0000
  H   H166      1.0  0.28654  0.18428  0.84369  1.0000
  H   H167      1.0  0.33401  0.15959  0.86314  1.0000
  H   H168      1.0  0.36030  0.16351  0.91104  1.0000
  H   H169      1.0  0.14460  0.13482  0.62287  1.0000
  H   H170      1.0  0.47384  0.30320  0.81949  1.0000
  H   H171      1.0  0.41364  0.13046  0.97601  1.0000
  H   H172      1.0  0.40631  0.25054  0.64299  1.0000
  C   C218      1.0  0.23860  0.28363  0.50460  1.0000
  C   C219      1.0  0.46079  0.17488  0.96764  1.0000
  C   C220      1.0  0.15155  0.26020  0.50146  1.0000
  C   C221      1.0  0.18678  0.11892  0.59764  1.0000
  H   H173      1.0  0.15196  0.22539  0.96367  1.0000
  H   H174      1.0  0.48148  0.14370  0.67366  1.0000
  H   H175      1.0  0.15303  0.23090  0.78770  1.0000
  C   C222      1.0  0.44408  0.10647  0.65665  1.0000
  H   H176      1.0  0.16030  0.29059  0.89394  1.0000
  H   H177      1.0  0.43999  0.00174  0.73406  1.0000
  C   C223      1.0  0.28715  0.23274  0.49530  1.0000
  H   H178      1.0  0.20050  0.24227  0.93232  1.0000
  P   P9        1.0  0.05271  0.20143  0.70074  1.0000
  C   C224      1.0  0.06341  0.17534  0.69629  1.0000
  C   C225      1.0  0.07038  0.21497  0.67036  1.0000
  C   C226      1.0  0.04573  0.21802  0.64695  1.0000
  C   C227      1.0  0.05935  0.22902  0.62399  1.0000
  C   C228      1.0  0.09756  0.23713  0.62421  1.0000
  C   C229      1.0  0.12238  0.23404  0.64726  1.0000
  C   C230      1.0  0.10920  0.22275  0.67000  1.0000
  H   H179      1.0  0.10973  0.22504  0.55927  1.0000
  C   C231      1.0  0.04870  0.29137  0.87385  1.0000
  C   C232      1.0  0.08200  0.13486  0.69114  1.0000
  C   C233      1.0  0.10886  0.14931  0.68196  1.0000
  C   C234      1.0  0.09954  0.16948  0.68437  1.0000
  C   C235      1.0  0.08043  0.21056  0.73073  1.0000
  C   C236      1.0  0.10145  0.19743  0.74823  1.0000
  H   H180      1.0  0.41030  0.16122  0.67071  1.0000
  H   H181      1.0  0.40030  0.26492  0.72545  1.0000
  C   C237      1.0  0.39218  0.99579  0.53654  1.0000
  C   C238      1.0  0.43040  0.24650  0.65687  1.0000
  H   H182      1.0  0.01622  0.21176  0.64598  1.0000
  H   H183      1.0  0.34273  0.03910  0.54724  1.0000
  S   S38       1.0  0.47623  0.05317  0.63084  1.0000
  C   C239      1.0  0.41490  0.12036  0.64986  1.0000
  C   C240      1.0  0.16131  0.23392  0.53575  1.0000
  C   C241      1.0  0.00323  0.16043  0.62539  1.0000
  C   C242      1.0  0.33525  0.99050  0.56658  1.0000
  H   H184      1.0  0.10825  0.24550  0.60635  1.0000
  H   H185      1.0  0.15224  0.24011  0.64739  1.0000
  H   H186      1.0  0.12962  0.22016  0.68720  1.0000
  C   C243      1.0  0.34702  0.22932  0.77713  1.0000
  H   H187      1.0  0.39620  0.27347  0.77578  1.0000
  H   H188      1.0  0.08915  0.11925  0.68905  1.0000
  H   H189      1.0  0.13700  0.14487  0.67309  1.0000
  H   H190      1.0  0.12064  0.18052  0.67722  1.0000
  H   H191      1.0  0.46973  0.18528  0.55490  1.0000
  H   H192      1.0  0.26115  0.29662  0.94589  1.0000
  C   C244      1.0  0.34880  0.22440  0.74868  1.0000
  C   C245      1.0  0.38269  0.01594  0.53442  1.0000
  H   H193      1.0  0.34056  0.14890  0.67145  1.0000
  C   C246      1.0  0.32442  0.19731  0.68793  1.0000
  C   C247      1.0  0.05438  0.13914  0.53386  1.0000
  C   C248      1.0  0.13207  0.22527  0.77228  1.0000
  C   C249      1.0  0.32761  0.23756  0.64507  1.0000
  H   H194      1.0  0.01766  0.29157  0.86801  1.0000
  C   C250      1.0  0.11899  0.17369  0.51121  1.0000
  C   C251      1.0  0.12721  0.20480  0.76884  1.0000
  P   P10       1.0  0.10457  0.13359  0.52302  1.0000
  H   H195      1.0  0.36251  0.25086  0.80882  1.0000
  C   C252      1.0  0.38522  0.15047  0.54867  1.0000
  C   C253      1.0  0.20836  0.23903  0.95384  1.0000
  H   H196      1.0  0.13842  0.27649  0.84910  1.0000
  H   H197      1.0  0.09782  0.17707  0.52755  1.0000
  H   H198      1.0  0.31178  0.18477  0.55430  1.0000
  C   C254      1.0  0.12819  0.15392  0.50462  1.0000
  H   H199      1.0  0.40189  0.02590  0.52278  1.0000
  C   C255      1.0  0.36421  0.24694  0.78682  1.0000
  H   H200      1.0  0.35331  0.22923  0.55207  1.0000
  C   C256      1.0  0.29862  0.24727  0.62918  1.0000
  C   C257      1.0  0.12132  0.23494  0.54326  1.0000
  H   H201      1.0  0.14436  0.19467  0.78170  1.0000
  C   C258      1.0  0.38548  0.25478  0.73966  1.0000
  C   C259      1.0  0.38328  0.25971  0.76808  1.0000
  C   C260      1.0  0.12759  0.13468  0.57939  1.0000
  C   C261      1.0  0.46573  0.09692  0.52451  1.0000
  P   P11       1.0  0.37283  0.23066  0.69303  1.0000
  C   C262      1.0  0.38638  0.17131  0.67555  1.0000
  C   C263      1.0  0.47547  0.98573  0.70416  1.0000
  C   C264      1.0  0.36865  0.23696  0.72976  1.0000
  H   H202      1.0  0.18076  0.11298  0.52707  1.0000
  C   C265      1.0  0.19713  0.11302  0.57058  1.0000
  H   H203      1.0  0.07316  0.27038  0.94090  1.0000
  C   C266      1.0  0.36356  0.20449  0.68739  1.0000
  H   H204      1.0  0.39467  0.14209  0.62048  1.0000
  H   H205      1.0  0.45641  0.08146  0.52483  1.0000
  H   H206      1.0  0.06966  0.24155  0.72119  1.0000
  H   H207      1.0  0.29088  0.29067  0.52877  1.0000
  S   S39       1.0  0.47182  0.00504  0.67765  1.0000
  H   H208      1.0  0.10154  0.14361  0.58316  1.0000
  C   C267      1.0  0.40085  0.17459  0.58480  1.0000
  C   C268      1.0  0.33666  0.24403  0.67237  1.0000
  C   C269      1.0  0.31634  0.17730  0.68247  1.0000
  C   C270      1.0  0.45180  0.12995  0.60816  1.0000
  C   C271      1.0  0.46279  0.23497  0.52834  1.0000
  C   C272      1.0  0.18092  0.22947  0.97166  1.0000
  H   H209      1.0  0.35693  0.19741  0.59121  1.0000
  C   C273      1.0  0.30830  0.18681  0.97961  1.0000
  C   C274      1.0  0.03093  0.15251  0.51843  1.0000
  C   C275      1.0  0.48055  0.11565  0.61493  1.0000
  H   H210      1.0  0.33452  0.21086  0.74176  1.0000
  C   C276      1.0  0.45743  0.10907  0.54745  1.0000
  H   H211      1.0  0.06729  0.27690  0.83577  1.0000
  H   H212      1.0  0.35540  0.15141  0.96556  1.0000
  C   C277      1.0  0.08808  0.27215  0.96082  1.0000
  C   C278      1.0  0.11659  0.28266  0.86331  1.0000
  C   C279      1.0  0.34725  0.16432  0.67613  1.0000
  H   H213      1.0  0.12928  0.20451  0.50149  1.0000
  H   H214      1.0  0.33176  0.21961  0.79171  1.0000
  H   H215      1.0  0.48113  0.14532  0.97747  1.0000
  C   C280      1.0  0.13092  0.30850  0.49407  1.0000
  H   H216      1.0  0.13104  0.30108  0.51422  1.0000
  H   H217      1.0  0.29084  0.24185  0.60847  1.0000
  H   H218      1.0  0.20710  0.24484  0.50879  1.0000
  C   C281      1.0  0.38471  0.25923  0.96775  1.0000
  H   H219      1.0  0.42490  0.19645  0.68011  1.0000
  C   C282      1.0  0.48571  0.10465  0.50128  1.0000
  H   H220      1.0  0.11498  0.25430  0.75788  1.0000
  C   C283      1.0  0.99963  0.20485  0.70461  1.0000
  C   C284      1.0  0.08488  0.23114  0.73478  1.0000
  C   C285      1.0  0.41127  0.15761  0.56941  1.0000
  H   H221      1.0  0.04287  0.16016  0.50036  1.0000
  C   C286      1.0  0.42290  0.23679  0.68240  1.0000
  C   C287      1.0  0.45487  0.23223  0.70025  1.0000
  H   H222      1.0  0.02559  0.29654  0.98326  1.0000
  C   C288      1.0  0.38400  0.23057  0.54558  1.0000
  C   C289      1.0  0.45567  0.15459  0.97288  1.0000
  H   H223      1.0  0.47482  0.25954  0.63002  1.0000
  C   C290      1.0  0.11109  0.26074  0.50849  1.0000
  C   C291      1.0  0.26508  0.19879  0.50138  1.0000
  H   H224      1.0  0.10916  0.09063  0.53353  1.0000
  H   H225      1.0  0.22019  0.28195  0.52304  1.0000
  C   C292      1.0  0.47704  0.10427  0.63930  1.0000
  Fe  Fe21      1.0  0.48173  0.01963  0.63340  1.0000
  H   H226      1.0  0.29479  0.24701  0.50418  1.0000
  C   C293      1.0  0.27860  0.28877  0.50793  1.0000
  C   C294      1.0  0.13713  0.18933  0.49670  1.0000
  S   S40       1.0  0.19044  0.31216  0.83865  1.0000
  P   P12       1.0  0.11653  0.30871  0.94089  1.0000
  C   C295      1.0  0.48162  0.99300  0.98643  1.0000
  H   H227      1.0  0.02536  0.12938  0.71057  1.0000
  H   H228      1.0  0.99821  0.14900  0.64096  1.0000
  H   H229      1.0  0.00953  0.16477  0.71635  1.0000
  C   C296      1.0  0.09989  0.11224  0.50044  1.0000
  H   H230      1.0  0.37121  0.22248  0.50305  1.0000
  H   H231      1.0  0.00353  0.22555  0.73931  1.0000
  C   C297      1.0  0.09885  0.07643  0.49393  1.0000
  H   H232      1.0  0.48169  0.17667  0.69689  1.0000
  C   C298      1.0  0.99161  0.15614  0.52629  1.0000
  H   H233      1.0  0.47421  0.98654  0.87842  1.0000
  H   H234      1.0  0.40820  0.18820  0.49633  1.0000
  H   H235      1.0  0.47456  0.24404  0.57090  1.0000
  C   C299      1.0  0.47911  0.29154  0.83466  1.0000
  C   C300      1.0  0.37082  0.24806  0.99045  1.0000
  C   C301      1.0  0.23874  0.18166  0.99125  1.0000
  H   H236      1.0  0.02483  0.41693  0.43102  1.0000
  Fe  Fe22      1.0  0.02578  0.39645  0.36747  1.0000
  S   S41       1.0  0.11762  0.37206  0.37032  1.0000
  S   S42       1.0  0.19618  0.64275  0.09313  1.0000
  C   C302      1.0  0.10802  0.44520  0.38889  1.0000
  H   H237      1.0  0.12199  0.64043  0.99955  1.0000
  Fe  Fe23      1.0  0.03322  0.55109  0.12142  1.0000
  S   S43       1.0  0.08529  0.57091  0.13666  1.0000
  H   H238      1.0  0.01554  0.59974  0.21760  1.0000
  H   H239      1.0  0.18544  0.44073  0.40804  1.0000
  S   S44       1.0  0.03294  0.51730  0.12152  1.0000
  C   C303      1.0  0.19824  0.38556  0.42955  1.0000
  C   C304      1.0  0.36441  0.31736  0.20648  1.0000
  H   H240      1.0  0.07079  0.59760  0.18360  1.0000
  C   C305      1.0  0.11599  0.59071  0.12373  1.0000
  C   C306      1.0  0.11057  0.59938  0.09728  1.0000
  C   C307      1.0  0.13529  0.61525  0.08843  1.0000
  C   C308      1.0  0.16587  0.62273  0.10577  1.0000
  C   C309      1.0  0.17122  0.61410  0.13221  1.0000
  C   C310      1.0  0.14657  0.59821  0.14101  1.0000
  H   H241      1.0  0.08758  0.59373  0.08357  1.0000
  C   C311      1.0  0.00502  0.61989  0.11512  1.0000
  H   H242      1.0  0.30588  0.36636  0.21682  1.0000
  H   H243      1.0  0.15133  0.59161  0.16144  1.0000
  C   C312      1.0  0.13598  0.34734  0.36748  1.0000
  C   C313      1.0  0.17732  0.34427  0.36853  1.0000
  C   C314      1.0  0.19350  0.32495  0.36741  1.0000
  H   H244      1.0  0.06313  0.64664  0.13621  1.0000
  H   H245      1.0  0.99917  0.64625  0.09042  1.0000
  C   C315      1.0  0.11096  0.33074  0.36548  1.0000
  H   H246      1.0  0.19695  0.35696  0.37035  1.0000
  C   C316      1.0  0.05882  0.38610  0.40037  1.0000
  H   H247      1.0  0.03406  0.61621  0.10694  1.0000
  H   H248      1.0  0.07917  0.33267  0.36501  1.0000
  H   H249      1.0  0.09585  0.41669  0.34411  1.0000
  H   H250      1.0  0.05548  0.48014  0.99616  1.0000
  H   H251      1.0  0.06262  0.45945  0.41375  1.0000
  H   H252      1.0  0.02430  0.48940  0.21156  1.0000
  C   C317      1.0  0.00409  0.63677  0.48200  1.0000
  C   C318      1.0  0.04434  0.42212  0.44742  1.0000
  H   H253      1.0  0.27784  0.33483  0.23398  1.0000
  C   C319      1.0  0.06226  0.61192  0.19212  1.0000
  H   H254      1.0  0.15230  0.46666  0.33206  1.0000
  C   C320      1.0  0.07874  0.40380  0.38660  1.0000
  C   C321      1.0  0.30661  0.33473  0.22395  1.0000
  C   C322      1.0  0.10808  0.48067  0.35779  1.0000
  C   C323      1.0  0.10797  0.43453  0.46334  1.0000
  C   C324      1.0  0.15526  0.41256  0.41449  1.0000
  H   H255      1.0  0.15256  0.43543  0.35932  1.0000
  H   H256      1.0  0.99753  0.63234  0.23832  1.0000
  C   C325      1.0  0.06448  0.38789  0.33711  1.0000
  H   H257      1.0  0.01153  0.62606  0.03909  1.0000
  H   H258      1.0  0.19465  0.61948  0.14578  1.0000
  H   H259      1.0  0.37109  0.36693  0.19279  1.0000
  H   H260      1.0  0.13098  0.62166  0.06787  1.0000
  C   C326      1.0  0.16034  0.39292  0.42376  1.0000
  C   C327      1.0  0.99961  0.48273  0.22259  1.0000
  C   C328      1.0  0.08443  0.42617  0.44199  1.0000
  C   C329      1.0  0.32229  0.35267  0.21404  1.0000
  C   C330      1.0  0.22647  0.41785  0.41934  1.0000
  C   C331      1.0  0.08266  0.62909  0.18400  1.0000
  H   H261      1.0  0.13514  0.33725  0.42363  1.0000
  H   H262      1.0  0.26074  0.39226  0.43155  1.0000
  H   H263      1.0  0.07637  0.61571  0.01969  1.0000
  C   C332      1.0  0.23135  0.39799  0.42716  1.0000
  H   H264      1.0  0.10709  0.62784  0.16939  1.0000
  C   C333      1.0  0.13355  0.32911  0.44319  1.0000
  C   C334      1.0  0.03117  0.61314  0.21133  1.0000
  H   H265      1.0  0.06289  0.49046  0.38650  1.0000
  C   C335      1.0  0.99708  0.48548  0.01289  1.0000
  C   C336      1.0  0.04182  0.36935  0.38272  1.0000
  C   C337      1.0  0.11611  0.33789  0.46661  1.0000
  H   H266      1.0  0.40833  0.33557  0.18588  1.0000
  C   C338      1.0  0.18857  0.42518  0.41331  1.0000
  C   C339      1.0  0.08114  0.40462  0.35470  1.0000
  S   S45       1.0  0.01364  0.43085  0.36850  1.0000
  H   H267      1.0  0.03660  0.46929  0.25461  1.0000
  H   H268      1.0  0.35938  0.55686  0.48003  1.0000
  C   C340      1.0  0.04474  0.37019  0.35116  1.0000
  S   S46       1.0  0.00273  0.55270  0.07961  1.0000
  C   C341      1.0  0.35901  0.35299  0.20046  1.0000
  H   H269      1.0  0.05846  0.38472  0.42293  1.0000
  C   C342      1.0  0.13340  0.44749  0.36576  1.0000
  C   C343      1.0  0.00652  0.47124  0.24717  1.0000
  H   H270      1.0  0.00278  0.59404  0.14151  1.0000
  H   H271      1.0  0.10394  0.35275  0.46503  1.0000
  H   H272      1.0  0.06742  0.38837  0.31454  1.0000
  H   H273      1.0  0.10735  0.49418  0.34541  1.0000
  C   C344      1.0  0.02855  0.42544  0.47408  1.0000
  H   H274      1.0  0.25205  0.42759  0.41796  1.0000
  H   H275      1.0  0.20182  0.37017  0.43569  1.0000
  H   H276      1.0  0.02860  0.35653  0.39274  1.0000
  H   H277      1.0  0.13500  0.38316  0.42611  1.0000
  C   C345      1.0  0.08307  0.47860  0.38094  1.0000
  H   H278      1.0  0.13867  0.43841  0.45949  1.0000
  C   C346      1.0  0.03162  0.63714  0.03052  1.0000
  C   C347      1.0  0.06813  0.63129  0.01952  1.0000
  H   H279      1.0  0.03344  0.35805  0.33860  1.0000
  S   S47       1.0  0.01562  0.50076  0.04118  1.0000
  P   P13       1.0  0.10576  0.42188  0.40778  1.0000
  C   C348      1.0  0.13336  0.46515  0.35027  1.0000
  C   C349      1.0  0.08308  0.46097  0.39646  1.0000
  H   H280      1.0  0.03974  0.35237  0.00457  1.0000
  H   H281      1.0  0.06164  0.52816  0.00375  1.0000
  C   C350      1.0  0.02408  0.47737  0.99341  1.0000
  C   C351      1.0  0.09413  0.64545  0.00831  1.0000
  C   C352      1.0  0.02094  0.63152  0.22284  1.0000
  C   C353      1.0  0.09175  0.43842  0.48974  1.0000
  C   C354      1.0  0.38000  0.33533  0.19660  1.0000
  H   H282      1.0  0.03381  0.49375  0.48247  1.0000
  C   C355      1.0  0.32789  0.31697  0.22059  1.0000
  H   H283      1.0  0.99061  0.62791  0.46555  1.0000
  H   H284      1.0  0.01424  0.47009  0.44482  1.0000
  C   C356      1.0  0.99556  0.47181  0.46296  1.0000
  H   H285      1.0  0.99745  0.42238  0.47805  1.0000
  C   C357      1.0  0.00660  0.48531  0.48451  1.0000
  Fe  Fe24      1.0  0.99787  0.51914  0.08070  1.0000
  H   H286      1.0  0.07977  0.32278  0.99361  1.0000
  H   H287      1.0  0.22529  0.32287  0.36843  1.0000
  H   H288      1.0  0.24037  0.31985  0.31623  1.0000
  H   H289      1.0  0.29752  0.31559  0.28448  1.0000
  C   C358      1.0  0.07148  0.64773  0.19443  1.0000
  H   H290      1.0  0.27070  0.64733  0.99351  1.0000
  C   C359      1.0  0.01642  0.61392  0.62139  1.0000
  Fe  Fe25      1.0  0.03678  0.40462  0.86782  1.0000
  S   S48       1.0  0.09859  0.39125  0.87660  1.0000
  C   C360      1.0  0.01673  0.48077  0.74818  1.0000
  C   C361      1.0  0.30869  0.60337  0.58827  1.0000
  S   S49       1.0  0.02807  0.43792  0.87041  1.0000
  Fe  Fe26      1.0  0.03415  0.55161  0.61610  1.0000
  S   S50       1.0  0.09303  0.56729  0.62788  1.0000
  H   H291      1.0  0.05533  0.36798  0.75779  1.0000
  H   H292      1.0  0.08250  0.35198  0.67235  1.0000
  S   S51       1.0  0.02759  0.51803  0.61540  1.0000
  H   H293      1.0  0.00345  0.61284  0.51214  1.0000
  C   C362      1.0  0.33562  0.61897  0.63942  1.0000
  S   S52       1.0  0.19657  0.64195  0.58578  1.0000
  C   C363      1.0  0.11951  0.58888  0.61632  1.0000
  C   C364      1.0  0.14942  0.59688  0.63370  1.0000
  C   C365      1.0  0.17248  0.61338  0.62515  1.0000
  C   C366      1.0  0.16660  0.62193  0.59871  1.0000
  C   C367      1.0  0.13653  0.61402  0.58135  1.0000
  C   C368      1.0  0.11295  0.59773  0.59013  1.0000
  H   H294      1.0  0.15491  0.59018  0.65396  1.0000
  H   H295      1.0  0.19518  0.61929  0.63889  1.0000
  H   H296      1.0  0.13176  0.62037  0.56080  1.0000
  H   H297      1.0  0.09052  0.59164  0.57632  1.0000
  C   C369      1.0  0.12277  0.36872  0.86662  1.0000
  C   C370      1.0  0.10441  0.35429  0.84986  1.0000
  C   C371      1.0  0.12532  0.33698  0.84199  1.0000
  C   C372      1.0  0.16465  0.33364  0.85103  1.0000
  C   C373      1.0  0.18265  0.34787  0.86824  1.0000
  C   C374      1.0  0.16189  0.36527  0.87590  1.0000
  H   H298      1.0  0.07442  0.35666  0.84249  1.0000
  H   H299      1.0  0.25094  0.57233  0.60002  1.0000
  H   H300      1.0  0.21299  0.34571  0.87502  1.0000
  H   H301      1.0  0.17650  0.37627  0.88886  1.0000
  H   H302      1.0  0.39439  0.61457  0.62330  1.0000
  C   C375      1.0  0.02998  0.51739  0.93764  1.0000
  C   C376      1.0  0.29196  0.61602  0.53255  1.0000
  H   H303      1.0  0.16085  0.57258  0.51767  1.0000
  H   H304      1.0  0.10725  0.36818  0.79438  1.0000
  H   H305      1.0  0.05040  0.37226  0.91938  1.0000
  C   C377      1.0  0.32384  0.57534  0.54158  1.0000
  C   C378      1.0  0.34168  0.56178  0.56007  1.0000
  H   H306      1.0  0.38035  0.53650  0.56417  1.0000
  C   C379      1.0  0.05204  0.43383  0.49513  1.0000
  C   C380      1.0  0.36291  0.61278  0.61926  1.0000
  C   C381      1.0  0.04188  0.36401  0.96257  1.0000
  C   C382      1.0  0.06293  0.52345  0.98202  1.0000
  H   H307      1.0  0.27954  0.33186  0.93885  1.0000
  P   P14       1.0  0.29133  0.59432  0.55484  1.0000
  H   H308      1.0  0.99285  0.31761  0.94792  1.0000
  C   C383      1.0  0.43885  0.63800  0.56739  1.0000
  H   H309      1.0  0.15682  0.34762  0.93349  1.0000
  H   H310      1.0  0.02937  0.49882  0.71140  1.0000
  H   H311      1.0  0.03409  0.63295  0.54995  1.0000
  C   C384      1.0  0.36647  0.54685  0.54978  1.0000
  H   H312      1.0  0.08864  0.34231  0.90761  1.0000
  H   H313      1.0  0.14349  0.56511  0.83289  1.0000
  H   H314      1.0  0.22640  0.58900  0.51431  1.0000
  H   H315      1.0  0.22979  0.62303  0.53821  1.0000
  H   H316      1.0  0.22697  0.35727  0.93282  1.0000
  H   H317      1.0  0.07367  0.45552  0.67972  1.0000
  C   C385      1.0  0.08653  0.33006  0.94958  1.0000
  H   H318      1.0  0.01597  0.35033  0.87507  1.0000
  C   C386      1.0  0.21893  0.34185  0.93619  1.0000
  C   C387      1.0  0.08860  0.55387  0.84992  1.0000
  H   H319      1.0  0.18504  0.55642  0.60299  1.0000
  C   C388      1.0  0.05080  0.37280  0.69818  1.0000
  C   C389      1.0  0.01193  0.50013  0.84727  1.0000
  C   C390      1.0  0.04600  0.44813  0.68484  1.0000
  C   C391      1.0  0.15129  0.53646  0.85232  1.0000
  C   C392      1.0  0.37310  0.54518  0.52097  1.0000
  C   C393      1.0  0.06517  0.50944  0.92662  1.0000
  C   C394      1.0  0.02844  0.63960  0.52959  1.0000
  C   C395      1.0  0.32923  0.64020  0.50518  1.0000
  P   P15       1.0  0.06786  0.50133  0.89057  1.0000
  S   S53       1.0  0.00069  0.40204  0.82838  1.0000
  C   C396      1.0  0.05022  0.34998  0.98338  1.0000
  H   H320      1.0  0.02139  0.33733  0.65167  1.0000
  C   C397      1.0  0.09841  0.51626  0.97091  1.0000
  C   C398      1.0  0.07773  0.34417  0.92880  1.0000
  H   H321      1.0  0.03870  0.53915  0.86887  1.0000
  C   C399      1.0  0.17893  0.33623  0.93651  1.0000
  C   C400      1.0  0.09524  0.47846  0.88706  1.0000
  C   C401      1.0  0.10089  0.46578  0.91011  1.0000
  C   C402      1.0  0.12070  0.44770  0.90677  1.0000
  C   C403      1.0  0.13480  0.44212  0.88041  1.0000
  C   C404      1.0  0.12889  0.45455  0.85732  1.0000
  C   C405      1.0  0.10881  0.47256  0.86053  1.0000
  H   H322      1.0  0.02494  0.37724  0.96750  1.0000
  H   H323      1.0  0.09897  0.43171  0.79996  1.0000
  H   H324      1.0  0.05569  0.60314  0.65359  1.0000
  C   C406      1.0  0.18064  0.57270  0.53559  1.0000
  H   H325      1.0  0.04936  0.43190  0.76211  1.0000
  H   H326      1.0  0.07151  0.56673  0.84360  1.0000
  H   H327      1.0  0.10221  0.33464  0.51039  1.0000
  C   C407      1.0  0.07007  0.53818  0.86410  1.0000
  P   P16       1.0  0.00982  0.40006  0.73108  1.0000
  C   C408      1.0  0.99841  0.61093  0.67029  1.0000
  C   C409      1.0  0.01920  0.34919  0.66691  1.0000
  H   H328      1.0  0.47191  0.64445  0.64204  1.0000
  H   H329      1.0  0.11106  0.32615  0.82858  1.0000
  C   C410      1.0  0.29496  0.61753  0.63400  1.0000
  H   H330      1.0  0.03905  0.43730  0.51531  1.0000
  C   C411      1.0  0.34956  0.60502  0.59372  1.0000
  H   H331      1.0  0.10970  0.44532  0.50591  1.0000
  H   H332      1.0  0.14931  0.42788  0.87777  1.0000
  H   H333      1.0  0.13902  0.44998  0.83681  1.0000
  H   H334      1.0  0.10319  0.48170  0.84224  1.0000
  S   S54       1.0  0.00292  0.45705  0.79519  1.0000
  C   C412      1.0  0.02651  0.60908  0.64895  1.0000
  H   H335      1.0  0.08927  0.46953  0.93052  1.0000
  C   C413      1.0  0.04591  0.43134  0.70215  1.0000
  H   H336      1.0  0.03777  0.61170  0.60478  1.0000
  H   H337      1.0  0.07388  0.42563  0.70987  1.0000
  C   C414      1.0  0.99080  0.34052  0.87833  1.0000
  C   C415      1.0  0.24282  0.58287  0.55738  1.0000
  H   H338      1.0  0.33630  0.56269  0.58242  1.0000
  H   H339      1.0  0.12746  0.50404  0.93488  1.0000
  C   C416      1.0  0.16896  0.56346  0.56051  1.0000
  C   C417      1.0  0.09966  0.50945  0.94323  1.0000
  C   C418      1.0  0.02880  0.52408  0.96538  1.0000
  C   C419      1.0  0.23148  0.57282  0.58196  1.0000
  C   C420      1.0  0.25752  0.62735  0.52851  1.0000
  C   C421      1.0  0.05602  0.36117  0.93539  1.0000
  H   H340      1.0  0.12834  0.39984  0.81625  1.0000
  C   C422      1.0  0.04977  0.40003  0.75631  1.0000
  C   C423      1.0  0.12916  0.55297  0.84392  1.0000
  H   H341      1.0  0.03229  0.45958  0.95593  1.0000
  C   C424      1.0  0.19445  0.56344  0.58361  1.0000
  C   C425      1.0  0.32797  0.62272  0.52105  1.0000
  H   H342      1.0  0.18281  0.53585  0.84792  1.0000
  C   C426      1.0  0.07285  0.33316  0.97703  1.0000
  C   C427      1.0  0.06231  0.41792  0.76855  1.0000
  C   C428      1.0  0.09062  0.41786  0.79001  1.0000
  C   C429      1.0  0.10695  0.39994  0.79923  1.0000
  C   C430      1.0  0.09478  0.38206  0.78703  1.0000
  C   C431      1.0  0.06576  0.38204  0.76601  1.0000
  C   C432      1.0  0.21762  0.58216  0.53389  1.0000
  H   H343      1.0  0.27376  0.62264  0.64942  1.0000
  H   H344      1.0  0.34608  0.62548  0.65888  1.0000
  H   H345      1.0  0.00618  0.60623  0.69131  1.0000
  H   H346      1.0  0.25009  0.61000  0.60398  1.0000
  C   C433      1.0  0.28158  0.61016  0.60831  1.0000
  H   H347      1.0  0.37111  0.60067  0.57813  1.0000
  H   H348      1.0  0.12422  0.43772  0.92444  1.0000
  H   H349      1.0  0.43531  0.62487  0.58026  1.0000
  H   H350      1.0  0.13997  0.55647  0.56213  1.0000
  H   H351      1.0  0.15058  0.50822  0.87319  1.0000
  H   H352      1.0  0.07775  0.37931  0.70659  1.0000
  H   H353      1.0  0.39224  0.53357  0.51302  1.0000
  H   H354      1.0  0.04728  0.48068  0.75517  1.0000
  C   C434      1.0  0.25883  0.64478  0.51255  1.0000
  C   C435      1.0  0.05360  0.35741  0.67860  1.0000
  C   C436      1.0  0.01347  0.37981  0.70656  1.0000
  C   C437      1.0  0.24852  0.32757  0.93954  1.0000
  H   H355      1.0  0.03461  0.50642  0.83388  1.0000
  C   C438      1.0  0.32988  0.57330  0.51262  1.0000
  C   C439      1.0  0.01102  0.46570  0.97040  1.0000
  C   C440      1.0  0.13283  0.52074  0.86647  1.0000
  C   C441      1.0  0.09191  0.52134  0.87196  1.0000
  C   C442      1.0  0.01969  0.49599  0.87563  1.0000
  S   S55       1.0  0.99735  0.55560  0.57726  1.0000
  H   H356      1.0  0.01017  0.46894  0.66149  1.0000
  C   C443      1.0  0.00662  0.49116  0.72322  1.0000
  H   H357      1.0  0.99273  0.32852  0.83661  1.0000
  H   H358      1.0  0.35522  0.61464  0.52481  1.0000
  C   C444      1.0  0.00992  0.42213  0.70951  1.0000
  S   S56       1.0  0.99868  0.50560  0.53520  1.0000
  Fe  Fe27      1.0  0.98866  0.43507  0.83197  1.0000
  H   H359      1.0  0.12476  0.51574  0.98395  1.0000
  H   H360      1.0  0.99661  0.48193  0.91308  1.0000
  C   C445      1.0  0.01029  0.45564  0.67438  1.0000
  C   C446      1.0  0.01119  0.62826  0.50828  1.0000
  H   H361      1.0  0.00123  0.52937  0.97429  1.0000
  H   H362      1.0  0.00332  0.51834  0.92506  1.0000
  C   C447      1.0  0.99061  0.48626  0.89163  1.0000
  C   C448      1.0  0.35467  0.55834  0.50239  1.0000
  C   C449      1.0  0.16818  0.31619  0.94011  1.0000
  H   H363      1.0  0.99341  0.64392  0.70344  1.0000
  C   C450      1.0  0.47680  0.64467  0.56038  1.0000
  H   H364      1.0  0.37630  0.64389  0.56510  1.0000
  H   H365      1.0  0.35715  0.64541  0.49667  1.0000
  C   C451      1.0  0.11500  0.32764  0.49209  1.0000
  H   H366      1.0  0.31525  0.58316  0.49793  1.0000
  H   H367      1.0  0.48509  0.98063  0.13026  1.0000
  S   S57       1.0  0.42668  0.92806  0.34315  1.0000
  H   H368      1.0  0.08604  0.70258  0.26456  1.0000
  H   H369      1.0  0.99253  0.66168  0.03849  1.0000
  Fe  Fe28      1.0  0.42688  0.89460  0.34887  1.0000
  S   S58       1.0  0.37246  0.87471  0.33851  1.0000
  Fe  Fe29      1.0  0.24810  0.66310  0.10728  1.0000
  S   S59       1.0  0.23076  0.69307  0.12436  1.0000
  Fe  Fe30      1.0  0.33749  0.67678  0.10120  1.0000
  S   S60       1.0  0.32361  0.70734  0.11719  1.0000
  S   S61       1.0  0.39896  0.67003  0.08211  1.0000
  Fe  Fe31      1.0  0.28687  0.69161  0.14994  1.0000
  S   S62       1.0  0.29700  0.69898  0.19629  1.0000
  Fe  Fe32      1.0  0.26894  0.70580  0.08994  1.0000
  S   S63       1.0  0.24635  0.73167  0.06342  1.0000
  S   S64       1.0  0.30279  0.66068  0.13498  1.0000
  S   S65       1.0  0.28445  0.67625  0.07193  1.0000
  Fe  Fe33      1.0  0.21569  0.78210  0.37250  1.0000
  S   S66       1.0  0.24243  0.75342  0.35687  1.0000
  S   S67       1.0  0.25833  0.80642  0.38890  1.0000
  Fe  Fe34      1.0  0.12947  0.76368  0.37425  1.0000
  S   S68       1.0  0.15277  0.73449  0.35881  1.0000
  S   S69       1.0  0.06481  0.76212  0.39052  1.0000
  Fe  Fe35      1.0  0.20337  0.73853  0.38916  1.0000
  S   S70       1.0  0.21674  0.71233  0.41820  1.0000
  Fe  Fe36      1.0  0.18915  0.75212  0.32810  1.0000
  S   S71       1.0  0.18323  0.74485  0.28132  1.0000
  S   S72       1.0  0.17895  0.76690  0.40603  1.0000
  S   S73       1.0  0.16372  0.78164  0.34214  1.0000
  C   C452      1.0  0.24030  0.73010  0.02645  1.0000
  C   C453      1.0  0.01991  0.69967  0.10521  1.0000
  C   C454      1.0  0.26160  0.73134  0.45908  1.0000
  C   C455      1.0  0.23815  0.71491  0.45204  1.0000
  C   C456      1.0  0.10191  0.67153  0.14570  1.0000
  H   H370      1.0  0.24248  0.65558  0.18044  1.0000
  H   H371      1.0  0.34892  0.78933  0.46444  1.0000
  H   H372      1.0  0.26654  0.74291  0.44372  1.0000
  C   C457      1.0  0.11549  0.70653  0.01551  1.0000
  H   H373      1.0  0.07982  0.71119  0.37738  1.0000
  C   C458      1.0  0.26468  0.71161  0.21961  1.0000
  C   C459      1.0  0.27626  0.71406  0.24777  1.0000
  C   C460      1.0  0.25183  0.72418  0.26699  1.0000
  C   C461      1.0  0.21544  0.73197  0.25820  1.0000
  C   C462      1.0  0.20384  0.72952  0.23004  1.0000
  C   C463      1.0  0.22822  0.71936  0.21084  1.0000
  H   H374      1.0  0.30443  0.70815  0.25474  1.0000
  H   H375      1.0  0.26116  0.72597  0.28855  1.0000
  H   H376      1.0  0.17593  0.73564  0.22299  1.0000
  H   H377      1.0  0.21897  0.71759  0.18926  1.0000
  C   C464      1.0  0.00955  0.77537  0.35063  1.0000
  C   C465      1.0  0.01615  0.76565  0.37617  1.0000
  H   H378      1.0  0.06777  0.74224  0.33361  1.0000
  H   H379      1.0  0.03456  0.78088  0.33871  1.0000
  C   C466      1.0  0.02520  0.70587  0.27792  1.0000
  C   C467      1.0  0.08412  0.71988  0.01085  1.0000
  C   C468      1.0  0.44902  0.67288  0.09449  1.0000
  C   C469      1.0  0.45818  0.67829  0.12212  1.0000
  H   H380      1.0  0.04507  0.70221  0.11897  1.0000
  H   H381      1.0  0.43439  0.68106  0.13677  1.0000
  C   C470      1.0  0.34183  0.85542  0.35311  1.0000
  C   C471      1.0  0.31042  0.84770  0.33680  1.0000
  C   C472      1.0  0.28544  0.83237  0.34696  1.0000
  C   C473      1.0  0.29078  0.82479  0.37403  1.0000
  C   C474      1.0  0.32204  0.83258  0.39046  1.0000
  C   C475      1.0  0.34763  0.84761  0.38003  1.0000
  H   H382      1.0  0.30515  0.85383  0.31620  1.0000
  H   H383      1.0  0.26132  0.82680  0.33419  1.0000
  H   H384      1.0  0.32643  0.82699  0.41150  1.0000
  H   H385      1.0  0.37142  0.85336  0.39297  1.0000
  H   H386      1.0  0.36705  0.96691  0.10311  1.0000
  C   C476      1.0  0.10059  0.76776  0.46532  1.0000
  C   C477      1.0  0.27920  0.73263  0.48586  1.0000
  H   H387      1.0  0.38625  0.95226  0.45271  1.0000
  C   C478      1.0  0.02561  0.70418  0.43670  1.0000
  C   C479      1.0  0.12539  0.68665  0.13397  1.0000
  C   C480      1.0  0.47723  0.96542  0.44693  1.0000
  C   C481      1.0  0.17957  0.66119  0.18176  1.0000
  C   C482      1.0  0.14441  0.71124  0.03568  1.0000
  C   C483      1.0  0.05589  0.73204  0.31810  1.0000
  H   H388      1.0  0.10909  0.75590  0.05774  1.0000
  H   H389      1.0  0.42917  0.66494  0.47923  1.0000
  H   H390      1.0  0.42632  0.69519  0.19674  1.0000
  C   C484      1.0  0.02105  0.65720  0.03028  1.0000
  Fe  Fe37      1.0  0.47992  0.92440  0.31492  1.0000
  C   C485      1.0  0.40490  0.83497  0.22365  1.0000
  C   C486      1.0  0.41476  0.85101  0.24098  1.0000
  C   C487      1.0  0.40264  0.85107  0.26895  1.0000
  C   C488      1.0  0.38092  0.83507  0.27967  1.0000
  C   C489      1.0  0.37107  0.81882  0.26249  1.0000
  C   C490      1.0  0.38288  0.81898  0.23429  1.0000
  P   P17       1.0  0.34095  0.79879  0.27628  1.0000
  C   C491      1.0  0.34729  0.77690  0.25475  1.0000
  C   C492      1.0  0.35785  0.79330  0.31152  1.0000
  C   C493      1.0  0.33125  0.78657  0.33209  1.0000
  C   C494      1.0  0.34423  0.78346  0.35960  1.0000
  C   C495      1.0  0.38358  0.78742  0.36699  1.0000
  C   C496      1.0  0.41037  0.79394  0.34665  1.0000
  C   C497      1.0  0.39779  0.79648  0.31893  1.0000
  C   C498      1.0  0.31959  0.77225  0.23364  1.0000
  C   C499      1.0  0.32440  0.75526  0.21719  1.0000
  C   C500      1.0  0.35729  0.74302  0.22117  1.0000
  C   C501      1.0  0.38561  0.74782  0.24151  1.0000
  C   C502      1.0  0.38064  0.76467  0.25835  1.0000
  C   C503      1.0  0.28927  0.80613  0.27642  1.0000
  C   C504      1.0  0.27857  0.82613  0.27266  1.0000
  C   C505      1.0  0.23865  0.83175  0.27308  1.0000
  C   C506      1.0  0.20903  0.81745  0.27684  1.0000
  C   C507      1.0  0.21930  0.79750  0.28007  1.0000
  C   C508      1.0  0.25918  0.79183  0.28001  1.0000
  H   H391      1.0  0.41389  0.83506  0.20186  1.0000
  H   H392      1.0  0.43137  0.86353  0.23272  1.0000
  H   H393      1.0  0.40957  0.86365  0.28237  1.0000
  H   H394      1.0  0.37145  0.83554  0.30134  1.0000
  H   H395      1.0  0.37489  0.80688  0.22042  1.0000
  H   H396      1.0  0.30021  0.78424  0.32738  1.0000
  H   H397      1.0  0.39301  0.78582  0.38859  1.0000
  H   H398      1.0  0.44063  0.79753  0.35251  1.0000
  H   H399      1.0  0.41901  0.80151  0.30348  1.0000
  H   H400      1.0  0.29408  0.78161  0.22981  1.0000
  H   H401      1.0  0.30237  0.75138  0.20147  1.0000
  H   H402      1.0  0.23158  0.64830  0.03735  1.0000
  H   H403      1.0  0.41128  0.73840  0.24419  1.0000
  H   H404      1.0  0.40281  0.76813  0.27405  1.0000
  H   H405      1.0  0.30081  0.83755  0.26974  1.0000
  H   H406      1.0  0.23074  0.84726  0.27074  1.0000
  H   H407      1.0  0.17809  0.82179  0.27734  1.0000
  H   H408      1.0  0.19626  0.78641  0.28273  1.0000
  H   H409      1.0  0.26639  0.77624  0.28268  1.0000
  C   C509      1.0  0.08170  0.73759  0.02600  1.0000
  C   C510      1.0  0.46199  0.73291  0.29432  1.0000
  C   C511      1.0  0.12551  0.77858  0.48323  1.0000
  C   C512      1.0  0.36871  0.71668  0.03579  1.0000
  H   H410      1.0  0.15460  0.72534  0.46026  1.0000
  C   C513      1.0  0.08575  0.65996  0.09882  1.0000
  H   H411      1.0  0.11305  0.67595  0.06494  1.0000
  H   H412      1.0  0.12952  0.67641  0.23994  1.0000
  H   H413      1.0  0.16397  0.73248  0.06658  1.0000
  H   H414      1.0  0.12927  0.70761  0.20568  1.0000
  H   H415      1.0  0.26777  0.70146  0.02218  1.0000
  C   C514      1.0  0.34427  0.73231  0.02729  1.0000
  C   C515      1.0  0.24199  0.65455  0.99371  1.0000
  C   C516      1.0  0.09444  0.69525  0.44437  1.0000
  C   C517      1.0  0.47437  0.67968  0.21703  1.0000
  H   H416      1.0  0.11290  0.72587  0.29988  1.0000
  H   H417      1.0  0.37779  0.66333  0.44212  1.0000
  H   H418      1.0  0.42732  0.74433  0.32860  1.0000
  C   C518      1.0  0.36724  0.71171  0.46098  1.0000
  C   C519      1.0  0.24899  0.78283  0.46952  1.0000
  C   C520      1.0  0.16817  0.84108  0.49116  1.0000
  C   C521      1.0  0.11111  0.74860  0.45697  1.0000
  H   H419      1.0  0.11839  0.69016  0.45768  1.0000
  C   C522      1.0  0.39256  0.70703  0.01622  1.0000
  C   C523      1.0  0.44309  0.96457  0.00088  1.0000
  C   C524      1.0  0.10933  0.67498  0.08736  1.0000
  C   C525      1.0  0.06603  0.70973  0.27908  1.0000
  H   H420      1.0  0.16977  0.70174  0.03926  1.0000
  C   C526      1.0  0.01476  0.65656  0.47684  1.0000
  H   H421      1.0  0.41115  0.69477  0.02301  1.0000
  H   H422      1.0  0.21238  0.75880  0.02319  1.0000
  C   C527      1.0  0.41842  0.69584  0.48909  1.0000
  H   H423      1.0  0.07178  0.64918  0.08516  1.0000
  H   H424      1.0  0.09631  0.73855  0.21968  1.0000
  H   H425      1.0  0.03376  0.66267  0.22456  1.0000
  H   H426      1.0  0.22351  0.78049  0.45608  1.0000
  C   C528      1.0  0.25323  0.71355  0.01140  1.0000
  C   C529      1.0  0.34308  0.73812  0.99912  1.0000
  C   C530      1.0  0.01515  0.71267  0.19748  1.0000
  C   C531      1.0  0.01518  0.72807  0.31723  1.0000
  H   H427      1.0  0.28963  0.78318  0.43477  1.0000
  C   C532      1.0  0.42467  0.97480  0.11923  1.0000
  H   H428      1.0  0.02341  0.74213  0.21438  1.0000
  H   H429      1.0  0.32548  0.73963  0.04250  1.0000
  H   H430      1.0  0.47306  0.93848  0.20861  1.0000
  H   H431      1.0  0.29577  0.66495  0.48896  1.0000
  C   C533      1.0  0.48010  0.71267  0.19728  1.0000
  H   H432      1.0  0.36054  0.72974  0.20849  1.0000
  H   H433      1.0  0.32317  0.77876  0.37547  1.0000
  H   H434      1.0  0.32287  0.74983  0.99300  1.0000
  H   H435      1.0  0.14848  0.69957  0.09607  1.0000
  C   C534      1.0  0.08130  0.72285  0.29907  1.0000
  H   H436      1.0  0.42612  0.92157  0.45265  1.0000
  H   H437      1.0  0.43907  0.72265  0.28743  1.0000
  C   C535      1.0  0.38302  0.67712  0.45326  1.0000
  H   H438      1.0  0.47505  0.96614  0.17441  1.0000
  H   H439      1.0  0.34970  0.72470  0.45592  1.0000
  C   C536      1.0  0.19219  0.67110  0.23803  1.0000
  C   C537      1.0  0.41729  0.92814  0.47244  1.0000
  C   C538      1.0  0.04724  0.67146  0.01944  1.0000
  H   H440      1.0  0.47561  0.84882  0.34036  1.0000
  H   H441      1.0  0.19738  0.67528  0.25967  1.0000
  C   C539      1.0  0.03435  0.70904  0.40886  1.0000
  C   C540      1.0  0.10289  0.69986  0.41640  1.0000
  H   H442      1.0  0.03842  0.68686  0.01954  1.0000
  C   C541      1.0  0.45422  0.94630  0.08239  1.0000
  H   H443      1.0  0.01589  0.68288  0.18138  1.0000
  H   H444      1.0  0.42597  0.95684  0.01664  1.0000
  H   H445      1.0  0.33742  0.69313  0.43083  1.0000
  C   C542      1.0  0.03765  0.72834  0.20844  1.0000
  C   C543      1.0  0.31992  0.78797  0.47403  1.0000
  H   H446      1.0  0.01414  0.69559  0.26236  1.0000
  H   H447      1.0  0.46700  0.72498  0.18592  1.0000
  C   C544      1.0  0.99946  0.71509  0.29700  1.0000
  H   H448      1.0  0.03929  0.72111  0.07465  1.0000
  C   C545      1.0  0.09727  0.70858  0.20388  1.0000
  C   C546      1.0  0.17129  0.75094  0.48461  1.0000
  C   C547      1.0  0.39606  0.71272  0.48208  1.0000
  C   C548      1.0  0.08160  0.65835  0.12789  1.0000
  C   C549      1.0  0.14142  0.72881  0.05118  1.0000
  C   C550      1.0  0.11037  0.74204  0.04623  1.0000
  C   C551      1.0  0.03359  0.69483  0.19010  1.0000
  H   H449      1.0  0.01152  0.71499  0.39521  1.0000
  C   C552      1.0  0.08431  0.66574  0.00870  1.0000
  H   H450      1.0  0.09245  0.74055  0.44231  1.0000
  C   C553      1.0  0.36040  0.69389  0.44677  1.0000
  C   C554      1.0  0.15392  0.67196  0.22668  1.0000
  C   C555      1.0  0.07871  0.72633  0.21145  1.0000
  C   C556      1.0  0.48474  0.95664  0.24485  1.0000
  C   C557      1.0  0.05592  0.69790  0.45499  1.0000
  C   C558      1.0  0.23224  0.69988  0.47215  1.0000
  C   C559      1.0  0.07467  0.69246  0.19392  1.0000
  H   H451      1.0  0.36889  0.71187  0.05752  1.0000
  C   C560      1.0  0.07297  0.70696  0.39877  1.0000
  C   C561      1.0  0.28655  0.78446  0.45731  1.0000
  C   C562      1.0  0.12909  0.68834  0.10491  1.0000
  C   C563      1.0  0.45718  0.69587  0.20332  1.0000
  H   H452      1.0  0.14171  0.69684  0.14732  1.0000
  H   H453      1.0  0.00921  0.66286  0.45632  1.0000
  H   H454      1.0  0.11661  0.79334  0.48946  1.0000
  C   C564      1.0  0.22228  0.74586  0.01179  1.0000
  C   C565      1.0  0.45544  0.74504  0.31758  1.0000
  H   H455      1.0  0.45676  0.66648  0.22110  1.0000
  H   H456      1.0  0.05802  0.74803  0.02175  1.0000
  H   H457      1.0  0.25389  0.66497  0.22989  1.0000
  C   C566      1.0  0.22008  0.65522  0.01847  1.0000
  H   H458      1.0  0.47210  0.83124  0.29478  1.0000
  P   P18       1.0  0.09844  0.66963  0.18336  1.0000
  C   C567      1.0  0.99111  0.68555  0.11234  1.0000
  H   H459      1.0  0.13300  0.69844  0.40858  1.0000
  C   C568      1.0  0.01661  0.71035  0.08020  1.0000
  H   H460      1.0  0.02488  0.73507  0.47871  1.0000
  C   C569      1.0  0.14623  0.74012  0.46687  1.0000
  C   C570      1.0  0.39862  0.96413  0.10210  1.0000
  C   C571      1.0  0.18324  0.66470  0.01899  1.0000
  S   S74       1.0  0.46622  0.89643  0.38716  1.0000
  C   C572      1.0  0.39472  0.94551  0.47248  1.0000
  S   S75       1.0  0.48324  0.93564  0.26851  1.0000
  H   H461      1.0  0.07363  0.77438  0.45713  1.0000
  H   H462      1.0  0.16311  0.84902  0.47169  1.0000
  H   H463      1.0  0.17549  0.65713  0.15995  1.0000
  C   C573      1.0  0.48069  0.66925  0.07589  1.0000
  C   C574      1.0  0.41343  0.94999  0.08350  1.0000
  H   H464      1.0  0.39337  0.94187  0.06990  1.0000
  H   H465      1.0  0.47418  0.66499  0.05452  1.0000
  H   H466      1.0  0.17813  0.81323  0.47054  1.0000
  H   H467      1.0  0.21416  0.68709  0.46691  1.0000
  C   C575      1.0  0.22405  0.66524  0.22132  1.0000
  S   S76       1.0  0.46347  0.95486  0.41335  1.0000
  C   C576      1.0  0.41203  0.67808  0.47428  1.0000
  C   C577      1.0  0.14753  0.66755  0.19825  1.0000
  H   H468      1.0  0.99590  0.73517  0.33236  1.0000
  H   H469      1.0  0.99436  0.67719  0.13161  1.0000
  C   C578      1.0  0.47890  0.95341  0.21591  1.0000
  C   C579      1.0  0.46560  0.97173  0.11736  1.0000
  Fe  Fe38      1.0  0.47020  0.92965  0.37982  1.0000
  C   C580      1.0  0.48010  0.96924  0.19626  1.0000
  H   H470      1.0  0.16669  0.66465  0.03838  1.0000
  C   C581      1.0  0.48514  0.75809  0.32667  1.0000
  H   H471      1.0  0.17202  0.97062  0.13643  1.0000
  H   H472      1.0  0.46494  0.93496  0.06827  1.0000
  C   C582      1.0  0.21767  0.66011  0.19331  1.0000
  S   S77       1.0  0.47810  0.89080  0.31902  1.0000
  H   H473      1.0  0.47987  0.76726  0.34492  1.0000
  H   H474      1.0  0.99545  0.70594  0.44403  1.0000
  C   C583      1.0  0.04133  0.64875  0.21470  1.0000
  H   H475      1.0  0.47857  0.92808  0.13732  1.0000
  C   C584      1.0  0.48070  0.95716  0.09935  1.0000
  C   C585      1.0  0.17645  0.82075  0.49061  1.0000
  C   C586      1.0  0.16794  0.67371  0.99466  1.0000
  H   H476      1.0  0.06189  0.71677  0.99505  1.0000
  P   P19       1.0  0.11841  0.68412  0.99465  1.0000
  H   H477      1.0  0.48779  0.69668  0.46023  1.0000
  H   H478      1.0  0.29770  0.74527  0.49100  1.0000
  H   H479      1.0  0.44415  0.97607  0.77158  1.0000
  S   S78       1.0  0.42877  0.92446  0.85079  1.0000
  C   C587      1.0  0.42133  0.73061  0.89996  1.0000
  H   H480      1.0  0.07536  0.70709  0.88363  1.0000
  Fe  Fe39      1.0  0.43936  0.89125  0.85716  1.0000
  S   S79       1.0  0.40310  0.86181  0.85829  1.0000
  Fe  Fe40      1.0  0.24636  0.66252  0.60247  1.0000
  S   S80       1.0  0.22991  0.69479  0.59872  1.0000
  Fe  Fe41      1.0  0.33325  0.67391  0.61878  1.0000
  S   S81       1.0  0.32068  0.70663  0.61619  1.0000
  C   C588      1.0  0.27416  0.93107  0.56636  1.0000
  Fe  Fe42      1.0  0.26376  0.69965  0.63894  1.0000
  S   S82       1.0  0.23220  0.72090  0.66900  1.0000
  Fe  Fe43      1.0  0.28764  0.69908  0.57641  1.0000
  S   S83       1.0  0.29701  0.71972  0.53902  1.0000
  S   S84       1.0  0.27743  0.66708  0.64415  1.0000
  S   S85       1.0  0.30311  0.66669  0.57760  1.0000
  Fe  Fe44      1.0  0.20906  0.78836  0.86760  1.0000
  S   S86       1.0  0.25145  0.76282  0.86965  1.0000
  S   S87       1.0  0.23095  0.82075  0.87153  1.0000
  Fe  Fe45      1.0  0.13562  0.76092  0.85910  1.0000
  S   S88       1.0  0.17535  0.73394  0.85986  1.0000
  S   S89       1.0  0.07022  0.75037  0.85438  1.0000
  Fe  Fe46      1.0  0.20567  0.74787  0.89689  1.0000
  S   S90       1.0  0.22085  0.72526  0.93104  1.0000
  Fe  Fe47      1.0  0.21778  0.75077  0.83248  1.0000
  S   S91       1.0  0.25769  0.73531  0.80041  1.0000
  S   S92       1.0  0.16464  0.77416  0.89768  1.0000
  S   S93       1.0  0.17680  0.77706  0.82886  1.0000
  C   C589      1.0  0.16392  0.77532  0.56681  1.0000
  C   C590      1.0  0.41528  0.73528  0.92832  1.0000
  C   C591      1.0  0.22690  0.66326  0.96935  1.0000
  C   C592      1.0  0.22906  0.72816  0.96759  1.0000
  C   C593      1.0  0.06901  0.68463  0.91588  1.0000
  C   C594      1.0  0.38126  0.77419  0.75362  1.0000
  H   H481      1.0  0.27305  0.68069  0.87920  1.0000
  Fe  Fe48      1.0  0.47527  0.92933  0.88516  1.0000
  H   H482      1.0  0.25921  0.70017  0.97069  1.0000
  C   C595      1.0  0.34944  0.92805  0.59085  1.0000
  C   C596      1.0  0.23911  0.72410  0.70575  1.0000
  C   C597      1.0  0.27043  0.71517  0.72034  1.0000
  C   C598      1.0  0.27533  0.71863  0.74933  1.0000
  C   C599      1.0  0.24893  0.73089  0.76415  1.0000
  C   C600      1.0  0.21730  0.73960  0.74966  1.0000
  C   C601      1.0  0.21264  0.73633  0.72061  1.0000
  H   H483      1.0  0.29098  0.70571  0.70925  1.0000
  H   H484      1.0  0.29964  0.71167  0.76040  1.0000
  H   H485      1.0  0.19675  0.74905  0.76078  1.0000
  H   H486      1.0  0.18832  0.74331  0.70956  1.0000
  H   H487      1.0  0.20202  0.75694  0.97152  1.0000
  C   C602      1.0  0.02107  0.76038  0.85708  1.0000
  C   C603      1.0  0.31571  0.79002  0.50302  1.0000
  C   C604      1.0  0.33060  0.69860  0.93236  1.0000
  H   H488      1.0  0.03839  0.79084  0.86318  1.0000
  C   C605      1.0  0.10449  0.69103  0.95937  1.0000
  H   H489      1.0  0.16077  0.86698  0.51707  1.0000
  C   C606      1.0  0.45166  0.68747  0.60792  1.0000
  C   C607      1.0  0.34597  0.76064  0.93923  1.0000
  H   H490      1.0  0.42700  0.69674  0.60183  1.0000
  C   C608      1.0  0.35483  0.85088  0.86259  1.0000
  C   C609      1.0  0.35138  0.82999  0.86385  1.0000
  C   C610      1.0  0.31396  0.82057  0.86665  1.0000
  C   C611      1.0  0.27920  0.83186  0.86815  1.0000
  C   C612      1.0  0.28269  0.85273  0.86723  1.0000
  C   C613      1.0  0.32011  0.86218  0.86444  1.0000
  H   H491      1.0  0.37788  0.82101  0.86261  1.0000
  H   H492      1.0  0.31186  0.80457  0.86764  1.0000
  H   H493      1.0  0.25617  0.86170  0.86855  1.0000
  H   H494      1.0  0.32202  0.87821  0.86357  1.0000
  C   C614      1.0  0.19534  0.77214  0.54804  1.0000
  H   H495      1.0  0.17720  0.67948  0.53396  1.0000
  C   C615      1.0  0.19024  0.67295  0.96981  1.0000
  H   H496      1.0  0.38327  0.70639  0.55077  1.0000
  C   C616      1.0  0.36248  0.75552  0.75395  1.0000
  C   C617      1.0  0.44844  0.67340  0.53670  1.0000
  H   H497      1.0  0.00811  0.70844  0.94180  1.0000
  H   H498      1.0  0.17460  0.84895  0.56144  1.0000
  H   H499      1.0  0.36098  0.72598  0.73662  1.0000
  C   C618      1.0  0.11920  0.70880  0.94784  1.0000
  C   C619      1.0  0.10842  0.71455  0.92074  1.0000
  C   C620      1.0  0.46810  0.73361  0.54303  1.0000
  C   C621      1.0  0.42915  0.91958  0.49779  1.0000
  H   H500      1.0  0.03682  0.69792  0.71805  1.0000
  H   H501      1.0  0.27522  0.79072  0.53767  1.0000
  H   H502      1.0  0.44514  0.80236  0.91041  1.0000
  H   H503      1.0  0.45563  0.76358  0.70755  1.0000
  H   H504      1.0  0.06592  0.73782  0.78542  1.0000
  H   H505      1.0  0.25736  0.78471  0.93267  1.0000
  H   H506      1.0  0.46506  0.78784  0.84988  1.0000
  H   H507      1.0  0.32338  0.90550  0.61719  1.0000
  S   S94       1.0  0.39493  0.66143  0.63062  1.0000
  H   H508      1.0  0.13959  0.71813  0.95963  1.0000
  H   H509      1.0  0.12015  0.72823  0.91190  1.0000
  H   H510      1.0  0.37857  0.92631  0.60015  1.0000
  S   S95       1.0  0.48561  0.93707  0.77455  1.0000
  C   C622      1.0  0.28059  0.91763  0.58825  1.0000
  C   C623      1.0  0.40840  0.77666  0.86383  1.0000
  H   H511      1.0  0.05005  0.67518  0.90324  1.0000
  C   C624      1.0  0.24943  0.70132  0.49906  1.0000
  H   H512      1.0  0.05179  0.66805  0.54150  1.0000
  C   C625      1.0  0.18308  0.82067  0.54120  1.0000
  C   C626      1.0  0.40960  0.74314  0.71993  1.0000
  C   C627      1.0  0.30526  0.94310  0.55681  1.0000
  C   C628      1.0  0.31826  0.91607  0.60040  1.0000
  H   H513      1.0  0.36561  0.73495  0.57974  1.0000
  H   H514      1.0  0.17980  0.67988  0.95070  1.0000
  H   H515      1.0  0.44680  0.90616  0.49766  1.0000
  H   H516      1.0  0.25649  0.90833  0.59569  1.0000
  C   C629      1.0  0.42943  0.76141  0.72035  1.0000
  C   C630      1.0  0.16007  0.70989  0.54047  1.0000
  C   C631      1.0  0.44872  0.96540  0.62737  1.0000
  C   C632      1.0  0.01192  0.73837  0.95723  1.0000
  H   H517      1.0  0.44775  0.74087  0.78551  1.0000
  C   C633      1.0  0.48655  0.73970  0.93404  1.0000
  C   C634      1.0  0.41868  0.92846  0.52320  1.0000
  C   C635      1.0  0.48768  0.96468  0.61746  1.0000
  C   C636      1.0  0.08327  0.70253  0.90475  1.0000
  H   H518      1.0  0.34380  0.69356  0.95174  1.0000
  C   C637      1.0  0.40485  0.71815  0.55339  1.0000
  C   C638      1.0  0.16702  0.85119  0.51671  1.0000
  C   C639      1.0  0.47439  0.80853  0.90695  1.0000
  C   C640      1.0  0.47804  0.82759  0.89559  1.0000
  H   H519      1.0  0.32022  0.73919  0.89039  1.0000
  C   C641      1.0  0.39683  0.94620  0.52340  1.0000
  C   C642      1.0  0.99249  0.72035  0.95221  1.0000
  H   H520      1.0  0.44423  0.74394  0.96708  1.0000
  H   H521      1.0  0.24848  0.75488  0.54053  1.0000
  H   H522      1.0  0.46858  0.70846  0.76569  1.0000
  H   H523      1.0  0.38400  0.67434  0.53705  1.0000
  C   C643      1.0  0.42122  0.75017  0.57344  1.0000
  H   H524      1.0  0.46946  0.95568  0.54873  1.0000
  C   C644      1.0  0.41693  0.96246  0.60895  1.0000
  C   C645      1.0  0.11990  0.68573  0.51567  1.0000
  C   C646      1.0  0.45794  0.74977  0.55993  1.0000
  H   H525      1.0  0.06849  0.66491  0.95135  1.0000
  H   H526      1.0  0.34153  0.79292  0.51597  1.0000
  H   H527      1.0  0.08725  0.71486  0.74766  1.0000
  S   S96       1.0  0.48225  0.89642  0.89300  1.0000
  H   H528      1.0  0.11671  0.67081  0.50746  1.0000
  S   S97       1.0  0.47908  0.95449  0.91910  1.0000
  C   C647      1.0  0.27332  0.71761  0.50593  1.0000
  H   H529      1.0  0.23214  0.65351  0.50983  1.0000
  C   C648      1.0  0.21649  0.74489  0.98248  1.0000
  C   C649      1.0  0.01370  0.78061  0.86123  1.0000
  P   P20       1.0  0.38282  0.95728  0.55636  1.0000
  C   C650      1.0  0.42393  0.95825  0.58057  1.0000
  H   H530      1.0  0.42797  0.92163  0.54269  1.0000
  C   C651      1.0  0.37632  0.74016  0.73687  1.0000
  H   H531      1.0  0.41042  0.70519  0.97320  1.0000
  C   C652      1.0  0.47078  0.96519  0.95334  1.0000
  H   H532      1.0  0.13500  0.73905  0.54429  1.0000
  C   C653      1.0  0.17468  0.84101  0.54169  1.0000
  C   C654      1.0  0.48165  0.66224  0.54513  1.0000
  C   C655      1.0  0.29467  0.65123  0.50088  1.0000
  H   H533      1.0  0.99489  0.74414  0.79329  1.0000
  C   C656      1.0  0.29066  0.69107  0.89136  1.0000
  H   H534      1.0  0.24390  0.66290  0.95016  1.0000
  H   H535      1.0  0.19039  0.81328  0.56067  1.0000
  H   H536      1.0  0.00664  0.76799  0.97375  1.0000
  C   C657      1.0  0.45967  0.73046  0.88880  1.0000
  C   C658      1.0  0.47704  0.65810  0.63063  1.0000
  P   P21       1.0  0.36569  0.73575  0.94270  1.0000
  C   C659      1.0  0.04393  0.73038  0.77241  1.0000
  C   C660      1.0  0.02738  0.70781  0.73465  1.0000
  H   H537      1.0  0.40026  0.72662  0.49310  1.0000
  C   C661      1.0  0.44883  0.95554  0.97431  1.0000
  C   C662      1.0  0.33486  0.71838  0.92338  1.0000
  C   C663      1.0  0.44199  0.71737  0.54009  1.0000
  Fe  Fe49      1.0  0.48022  0.92377  0.82000  1.0000
  C   C664      1.0  0.00357  0.73388  0.77689  1.0000
  H   H538      1.0  0.33677  0.75286  0.76716  1.0000
  H   H539      1.0  0.24466  0.68976  0.51443  1.0000
  H   H540      1.0  0.18731  0.71379  0.55131  1.0000
  C   C665      1.0  0.15454  0.69062  0.53037  1.0000
  H   H541      1.0  0.99351  0.73174  0.85172  1.0000
  H   H542      1.0  0.37309  0.81364  0.72163  1.0000
  C   C666      1.0  0.22501  0.75841  0.55512  1.0000
  C   C667      1.0  0.22453  0.74889  0.58116  1.0000
  C   C668      1.0  0.19381  0.75250  0.60006  1.0000
  C   C669      1.0  0.16335  0.76562  0.59281  1.0000
  C   C670      1.0  0.36711  0.72856  0.97928  1.0000
  C   C671      1.0  0.44818  0.74005  0.94522  1.0000
  C   C672      1.0  0.24454  0.78458  0.49866  1.0000
  H   H543      1.0  0.24797  0.73855  0.58662  1.0000
  H   H544      1.0  0.19360  0.74499  0.62024  1.0000
  H   H545      1.0  0.13931  0.76821  0.60740  1.0000
  C   C673      1.0  0.24933  0.81011  0.79374  1.0000
  C   C674      1.0  0.22709  0.80075  0.77280  1.0000
  C   C675      1.0  0.24615  0.78937  0.75242  1.0000
  C   C676      1.0  0.28739  0.78709  0.75317  1.0000
  C   C677      1.0  0.30980  0.79591  0.77475  1.0000
  C   C678      1.0  0.29054  0.80787  0.79453  1.0000
  P   P22       1.0  0.36321  0.79386  0.77590  1.0000
  C   C679      1.0  0.38044  0.78716  0.81043  1.0000
  C   C680      1.0  0.42046  0.79022  0.81762  1.0000
  C   C681      1.0  0.43435  0.78503  0.84427  1.0000
  H   H546      1.0  0.40320  0.77545  0.93854  1.0000
  C   C682      1.0  0.36868  0.77336  0.85670  1.0000
  C   C683      1.0  0.35479  0.77829  0.82994  1.0000
  C   C684      1.0  0.38163  0.81813  0.76615  1.0000
  C   C685      1.0  0.39200  0.83207  0.78685  1.0000
  C   C686      1.0  0.40511  0.85105  0.77929  1.0000
  C   C687      1.0  0.40735  0.85642  0.75105  1.0000
  C   C688      1.0  0.39598  0.84285  0.73033  1.0000
  C   C689      1.0  0.38277  0.82383  0.73784  1.0000
  H   H547      1.0  0.23465  0.81906  0.80950  1.0000
  H   H548      1.0  0.19509  0.80232  0.77244  1.0000
  H   H549      1.0  0.22893  0.78216  0.73612  1.0000
  H   H550      1.0  0.30136  0.77846  0.73687  1.0000
  H   H551      1.0  0.30740  0.81553  0.81053  1.0000
  C   C690      1.0  0.30862  0.68503  0.91637  1.0000
  H   H552      1.0  0.44074  0.79693  0.80276  1.0000
  H   H553      1.0  0.46410  0.72672  0.86694  1.0000
  C   C691      1.0  0.07951  0.67887  0.94314  1.0000
  H   H554      1.0  0.34830  0.76737  0.87202  1.0000
  H   H555      1.0  0.32396  0.77536  0.82473  1.0000
  H   H556      1.0  0.38943  0.82855  0.80892  1.0000
  H   H557      1.0  0.41302  0.86170  0.79547  1.0000
  H   H558      1.0  0.41734  0.87121  0.74535  1.0000
  H   H559      1.0  0.30538  0.66984  0.92347  1.0000
  C   C692      1.0  0.30481  0.76361  0.93807  1.0000
  C   C693      1.0  0.28924  0.78262  0.93403  1.0000
  C   C694      1.0  0.31467  0.79892  0.93131  1.0000
  C   C695      1.0  0.35573  0.79623  0.93296  1.0000
  C   C696      1.0  0.37140  0.77718  0.93711  1.0000
  P   P23       1.0  0.04572  0.69368  0.49179  1.0000
  C   C697      1.0  0.99172  0.75390  0.97029  1.0000
  H   H560      1.0  0.44313  0.96897  0.64916  1.0000
  H   H561      1.0  0.30246  0.81362  0.92776  1.0000
  H   H562      1.0  0.37521  0.80899  0.93092  1.0000
  H   H563      1.0  0.42007  0.73122  0.70659  1.0000
  C   C698      1.0  0.24809  0.71277  0.98216  1.0000
  C   C699      1.0  0.41029  0.66631  0.54342  1.0000
  C   C700      1.0  0.34291  0.94195  0.56936  1.0000
  C   C701      1.0  0.09572  0.71928  0.52202  1.0000
  P   P24       1.0  0.45399  0.69657  0.51753  1.0000
  H   H564      1.0  0.36686  0.96793  0.49727  1.0000
  C   C702      1.0  0.44425  0.66978  0.62247  1.0000
  H   H565      1.0  0.39659  0.72709  0.88632  1.0000
  C   C703      1.0  0.29509  0.71063  0.88209  1.0000
  H   H566      1.0  0.28472  0.75118  0.93999  1.0000
  C   C704      1.0  0.41555  0.77685  0.73730  1.0000
  C   C705      1.0  0.13059  0.72414  0.53646  1.0000
  C   C706      1.0  0.05587  0.71740  0.75124  1.0000
  H   H567      1.0  0.07377  0.73073  0.51887  1.0000
  C   C707      1.0  0.48043  0.95604  0.74774  1.0000
  H   H568      1.0  0.04246  0.74043  0.95055  1.0000
  C   C708      1.0  0.09002  0.70000  0.51150  1.0000
  H   H569      1.0  0.30005  0.95330  0.53959  1.0000
  C   C709      1.0  0.31723  0.72417  0.89794  1.0000
  H   H570      1.0  0.28083  0.71541  0.86280  1.0000
  C   C710      1.0  0.46315  0.95762  0.57078  1.0000
  C   C711      1.0  0.45904  0.97368  0.75182  1.0000
  H   H571      1.0  0.39698  0.84719  0.70847  1.0000
  H   H572      1.0  0.41897  0.77286  0.88457  1.0000
  H   H573      1.0  0.13980  0.78519  0.56129  1.0000
  H   H574      1.0  0.43174  0.79076  0.73770  1.0000
  H   H575      1.0  0.24510  0.93213  0.55670  1.0000
  H   H576      1.0  0.45178  0.83614  0.89044  1.0000
  C   C712      1.0  0.39456  0.73447  0.56990  1.0000
  H   H577      1.0  0.43607  0.94109  0.97001  1.0000
  C   C713      1.0  0.03875  0.65944  0.52462  1.0000
  H   H578      1.0  0.47849  0.76207  0.56239  1.0000
  P   P25       1.0  0.19573  0.78426  0.51421  1.0000
  H   H579      1.0  0.41321  0.76272  0.58642  1.0000
  H   H580      1.0  0.38693  0.96407  0.61672  1.0000
  C   C714      1.0  0.18297  0.81027  0.51569  1.0000
  C   C715      1.0  0.47710  0.73926  0.77648  1.0000
  C   C716      1.0  0.27810  0.78859  0.51527  1.0000
  C   C717      1.0  0.38435  0.95450  0.49783  1.0000
  C   C718      1.0  0.00211  0.72899  0.49231  1.0000
  C   C719      1.0  0.39197  0.71298  0.98810  1.0000
  H   H581      1.0  0.01170  0.66429  0.74430  1.0000
  H   H582      1.0  0.45959  0.98018  0.82824  1.0000
  C   C720      1.0  0.00490  0.70942  0.50245  1.0000
  C   C721      1.0  0.03255  0.66799  0.49804  1.0000
  C   C722      1.0  0.40563  0.64876  0.55883  1.0000
  H   H583      1.0  0.19838  0.74416  0.49212  1.0000
  C   C723      1.0  0.16170  0.77043  0.49230  1.0000
  C   C724      1.0  0.98824  0.74742  0.85462  1.0000
  H   H584      1.0  0.31750  0.98108  0.58004  1.0000
  Fe  Fe50      1.0  0.81304  0.18496  0.09455  1.0000
  S   S98       1.0  0.78818  0.21603  0.09474  1.0000
  S   S99       1.0  0.87737  0.18529  0.07763  1.0000
  Fe  Fe51      1.0  0.72999  0.16667  0.10759  1.0000
  S   S100      1.0  0.70221  0.19698  0.10762  1.0000
  S   S101      1.0  0.68248  0.14386  0.12168  1.0000
  Fe  Fe52      1.0  0.73830  0.20351  0.06925  1.0000
  S   S102      1.0  0.70619  0.22089  0.03510  1.0000
  Fe  Fe53      1.0  0.75426  0.20701  0.13326  1.0000
  S   S103      1.0  0.74293  0.23068  0.16678  1.0000
  S   S104      1.0  0.76319  0.17264  0.06712  1.0000
  S   S105      1.0  0.78181  0.17656  0.13519  1.0000
  Fe  Fe54      1.0  0.70780  0.24123  0.33529  1.0000
  S   S106      1.0  0.66937  0.26855  0.33640  1.0000
  S   S107      1.0  0.72706  0.22076  0.29954  1.0000
  Fe  Fe55      1.0  0.71303  0.23898  0.40030  1.0000
  S   S108      1.0  0.67551  0.26630  0.40570  1.0000
  S   S109      1.0  0.73501  0.21592  0.43205  1.0000
  Fe  Fe56      1.0  0.63558  0.25381  0.37175  1.0000
  S   S110      1.0  0.56991  0.24471  0.37685  1.0000
  Fe  Fe57      1.0  0.71247  0.27919  0.37005  1.0000
  S   S111      1.0  0.67173  0.22591  0.36834  1.0000
  S   S112      1.0  0.75214  0.25248  0.36698  1.0000
  H   H585      1.0  0.60799  0.21539  0.13356  1.0000
  S   S113      1.0  0.52210  0.01861  0.09799  1.0000
  C   C725      1.0  0.56047  0.21431  0.44467  1.0000
  C   C726      1.0  0.85816  0.19229  0.99627  1.0000
  Fe  Fe58      1.0  0.52521  0.05204  0.09275  1.0000
  S   S114      1.0  0.58200  0.06833  0.07801  1.0000
  H   H586      1.0  0.83408  0.26631  0.38513  1.0000
  H   H587      1.0  0.70034  0.30765  0.31530  1.0000
  H   H588      1.0  0.63935  0.18454  0.06610  1.0000
  H   H589      1.0  0.98719  0.28256  0.02279  1.0000
  C   C727      1.0  0.53225  0.15877  0.16267  1.0000
  H   H590      1.0  0.63384  0.21318  0.99500  1.0000
  C   C728      1.0  0.77200  0.29479  0.26843  1.0000
  C   C729      1.0  0.52208  0.25496  0.37004  1.0000
  C   C730      1.0  0.51645  0.27490  0.36275  1.0000
  C   C731      1.0  0.97279  0.16723  0.12538  1.0000
  H   H591      1.0  0.54186  0.28467  0.36083  1.0000
  C   C732      1.0  0.85178  0.28200  0.18397  1.0000
  C   C733      1.0  0.65451  0.12310  0.10864  1.0000
  C   C734      1.0  0.66360  0.11354  0.08340  1.0000
  C   C735      1.0  0.64112  0.09690  0.07445  1.0000
  C   C736      1.0  0.60924  0.08948  0.09051  1.0000
  C   C737      1.0  0.60005  0.09907  0.11567  1.0000
  C   C738      1.0  0.62248  0.11573  0.12463  1.0000
  H   H592      1.0  0.68854  0.11862  0.07109  1.0000
  H   H593      1.0  0.64879  0.08955  0.05506  1.0000
  H   H594      1.0  0.57603  0.09341  0.12835  1.0000
  H   H595      1.0  0.61522  0.12283  0.14427  1.0000
  C   C739      1.0  0.92644  0.18078  0.09088  1.0000
  C   C740      1.0  0.89295  0.31321  0.26299  1.0000
  C   C741      1.0  0.93349  0.17139  0.11661  1.0000
  H   H596      1.0  0.95460  0.19353  0.05446  1.0000
  H   H597      1.0  0.90864  0.16689  0.12948  1.0000
  C   C742      1.0  0.74341  0.21806  0.46869  1.0000
  H   H598      1.0  0.60851  0.19921  0.46518  1.0000
  H   H599      1.0  0.73635  0.15691  0.01033  1.0000
  C   C743      1.0  0.69098  0.30433  0.27085  1.0000
  H   H600      1.0  0.77343  0.20681  0.00165  1.0000
  C   C744      1.0  0.84631  0.29043  0.21047  1.0000
  H   H601      1.0  0.85429  0.19883  0.01681  1.0000
  P   P26       1.0  0.80486  0.30592  0.46923  1.0000
  C   C745      1.0  0.66961  0.16926  0.44891  1.0000
  H   H602      1.0  0.72594  0.24865  0.47222  1.0000
  C   C746      1.0  0.73166  0.22413  0.26274  1.0000
  C   C747      1.0  0.72317  0.24219  0.24951  1.0000
  C   C748      1.0  0.72679  0.24392  0.22014  1.0000
  C   C749      1.0  0.73881  0.22766  0.20369  1.0000
  C   C750      1.0  0.74753  0.20967  0.21698  1.0000
  C   C751      1.0  0.74386  0.20793  0.24631  1.0000
  H   H603      1.0  0.71379  0.25477  0.26188  1.0000
  H   H604      1.0  0.72021  0.25793  0.21006  1.0000
  H   H605      1.0  0.75706  0.19708  0.20467  1.0000
  H   H606      1.0  0.75054  0.19389  0.25631  1.0000
  C   C752      1.0  0.54375  0.11657  0.05733  1.0000
  H   H607      1.0  0.56512  0.20590  0.17403  1.0000
  C   C753      1.0  0.83440  0.24970  0.20258  1.0000
  H   H608      1.0  0.69932  0.17352  0.45536  1.0000
  C   C754      1.0  0.61320  0.00323  0.12598  1.0000
  C   C755      1.0  0.79380  0.12687  0.49089  1.0000
  C   C756      1.0  0.81423  0.26016  0.01731  1.0000
  C   C757      1.0  0.57747  0.20325  0.46634  1.0000
  C   C758      1.0  0.83774  0.27273  0.29487  1.0000
  C   C759      1.0  0.81327  0.25632  0.30062  1.0000
  C   C760      1.0  0.82453  0.24225  0.32066  1.0000
  C   C761      1.0  0.85957  0.24481  0.33593  1.0000
  C   C762      1.0  0.88343  0.26149  0.33113  1.0000
  C   C763      1.0  0.72424  0.22709  0.00136  1.0000
  C   C764      1.0  0.82327  0.28357  0.42213  1.0000
  H   H609      1.0  0.83570  0.23409  0.41075  1.0000
  H   H610      1.0  0.63122  0.01589  0.13201  1.0000
  C   C765      1.0  0.51450  0.20299  0.49076  1.0000
  C   C766      1.0  0.85151  0.24523  0.05521  1.0000
  C   C767      1.0  0.83949  0.25124  0.99784  1.0000
  C   C768      1.0  0.96719  0.24982  0.25414  1.0000
  C   C769      1.0  0.87086  0.23909  0.00695  1.0000
  H   H611      1.0  0.80566  0.22945  0.32454  1.0000
  H   H612      1.0  0.86785  0.23400  0.35172  1.0000
  H   H613      1.0  0.91024  0.26370  0.34334  1.0000
  C   C770      1.0  0.87270  0.27537  0.31063  1.0000
  C   C771      1.0  0.83556  0.27847  0.23344  1.0000
  C   C772      1.0  0.49895  0.13273  0.10123  1.0000
  C   C773      1.0  0.52176  0.14188  0.23756  1.0000
  H   H614      1.0  0.95822  0.27498  0.19259  1.0000
  C   C774      1.0  0.55592  0.17427  0.17277  1.0000
  C   C775      1.0  0.82024  0.25717  0.04598  1.0000
  C   C776      1.0  0.70856  0.29993  0.24511  1.0000
  H   H615      1.0  0.76197  0.29220  0.22359  1.0000
  H   H616      1.0  0.78558  0.25423  0.28942  1.0000
  C   C777      1.0  0.58862  0.99400  0.14567  1.0000
  H   H617      1.0  0.97763  0.15956  0.14502  1.0000
  H   H618      1.0  0.84948  0.30636  0.21281  1.0000
  C   C778      1.0  0.72922  0.13311  0.47029  1.0000
  C   C779      1.0  0.81873  0.26514  0.46562  1.0000
  C   C780      1.0  0.49948  0.16275  0.14532  1.0000
  C   C781      1.0  0.84575  0.26164  0.18003  1.0000
  H   H619      1.0  0.52142  0.12579  0.23637  1.0000
  C   C782      1.0  0.49166  0.18252  0.13755  1.0000
  C   C783      1.0  0.73669  0.23572  0.48335  1.0000
  H   H620      1.0  0.90684  0.30040  0.25353  1.0000
  H   H621      1.0  0.91807  0.26399  0.23328  1.0000
  C   C784      1.0  0.52192  0.19586  0.04534  1.0000
  H   H622      1.0  0.82028  0.29729  0.41047  1.0000
  C   C785      1.0  0.95947  0.18633  0.07444  1.0000
  C   C786      1.0  0.87637  0.23599  0.03583  1.0000
  C   C787      1.0  0.76832  0.12640  0.46775  1.0000
  H   H623      1.0  0.66323  0.13228  0.01833  1.0000
  C   C788      1.0  0.51501  0.19804  0.14811  1.0000
  H   H624      1.0  0.78923  0.26892  0.01010  1.0000
  H   H625      1.0  0.67786  0.24851  0.99433  1.0000
  C   C789      1.0  0.68653  0.29461  0.47964  1.0000
  C   C790      1.0  0.82909  0.25804  0.22912  1.0000
  C   C791      1.0  0.83071  0.26595  0.40767  1.0000
  C   C792      1.0  0.48898  0.15270  0.22817  1.0000
  C   C793      1.0  0.53205  0.14302  0.09057  1.0000
  C   C794      1.0  0.97215  0.26686  0.20958  1.0000
  C   C795      1.0  0.94949  0.26068  0.23251  1.0000
  C   C796      1.0  0.65493  0.17644  0.42342  1.0000
  C   C797      1.0  0.57076  0.21636  0.00250  1.0000
  C   C798      1.0  0.64595  0.15705  0.46607  1.0000
  H   H626      1.0  0.67327  0.18616  0.41061  1.0000
  H   H627      1.0  0.50008  0.00692  0.24121  1.0000
  H   H628      1.0  0.81882  0.24850  0.24583  1.0000
  H   H629      1.0  0.65980  0.30816  0.27187  1.0000
  C   C799      1.0  0.49796  0.21017  0.05837  1.0000
  H   H630      1.0  0.89170  0.28813  0.30745  1.0000
  C   C800      1.0  0.52067  0.22001  0.44620  1.0000
  C   C801      1.0  0.59280  0.15927  0.43161  1.0000
  C   C802      1.0  0.61654  0.17147  0.41475  1.0000
  C   C803      1.0  0.49388  0.09475  0.18101  1.0000
  H   H631      1.0  0.57392  0.19709  0.09563  1.0000
  H   H632      1.0  0.95312  0.25017  0.01828  1.0000
  C   C804      1.0  0.60734  0.15214  0.45724  1.0000
  H   H633      1.0  0.87975  0.31170  0.43819  1.0000
  H   H634      1.0  0.82509  0.23339  0.46208  1.0000
  C   C805      1.0  0.51075  0.10635  0.06761  1.0000
  H   H635      1.0  0.54144  0.15709  0.09927  1.0000
  H   H636      1.0  0.89894  0.22588  0.04350  1.0000
  H   H637      1.0  0.50951  0.22492  0.06264  1.0000
  H   H638      1.0  0.76333  0.18772  0.47230  1.0000
  H   H639      1.0  0.61898  0.23981  0.03584  1.0000
  H   H640      1.0  0.65226  0.25770  0.07394  1.0000
  H   H641      1.0  0.81604  0.29962  0.35461  1.0000
  H   H642      1.0  0.69095  0.30022  0.22609  1.0000
  H   H643      1.0  0.49226  0.09510  0.48362  1.0000
  C   C806      1.0  0.81846  0.28340  0.45132  1.0000
  H   H644      1.0  0.50347  0.09189  0.05920  1.0000
  C   C807      1.0  0.71372  0.30391  0.29535  1.0000
  H   H645      1.0  0.56294  0.15554  0.42491  1.0000
  H   H646      1.0  0.60512  0.17732  0.39513  1.0000
  H   H647      1.0  0.85564  0.24245  0.07741  1.0000
  H   H648      1.0  0.69434  0.18567  0.99786  1.0000
  H   H649      1.0  0.51842  0.08466  0.18461  1.0000
  H   H650      1.0  0.82829  0.23404  0.19925  1.0000
  H   H651      1.0  0.67720  0.15410  0.05909  1.0000
  H   H652      1.0  0.52529  0.23595  0.31415  1.0000
  C   C808      1.0  0.61374  0.99642  0.09831  1.0000
  H   H653      1.0  0.64739  0.24559  0.12291  1.0000
  C   C809      1.0  0.95094  0.22216  0.99629  1.0000
  H   H654      1.0  0.56202  0.10982  0.04129  1.0000
  H   H655      1.0  0.57824  0.21867  0.42669  1.0000
  C   C810      1.0  0.48965  0.17345  0.22921  1.0000
  C   C811      1.0  0.75162  0.30682  0.46586  1.0000
  C   C812      1.0  0.61468  0.24365  0.28302  1.0000
  C   C813      1.0  0.58022  0.24770  0.29821  1.0000
  C   C814      1.0  0.55126  0.23299  0.30146  1.0000
  C   C815      1.0  0.55663  0.21424  0.28945  1.0000
  C   C816      1.0  0.59076  0.21020  0.27358  1.0000
  C   C817      1.0  0.62028  0.22487  0.27125  1.0000
  P   P27       1.0  0.60016  0.18528  0.26150  1.0000
  C   C818      1.0  0.62284  0.17328  0.29122  1.0000
  C   C819      1.0  0.55575  0.17263  0.24981  1.0000
  C   C820      1.0  0.55508  0.15179  0.24827  1.0000
  C   C821      1.0  0.96879  0.23663  0.01339  1.0000
  C   C822      1.0  0.75770  0.20142  0.48342  1.0000
  C   C823      1.0  0.59545  0.16869  0.00556  1.0000
  C   C824      1.0  0.52305  0.18341  0.23972  1.0000
  C   C825      1.0  0.59989  0.16238  0.31040  1.0000
  C   C826      1.0  0.61741  0.15458  0.33466  1.0000
  C   C827      1.0  0.65766  0.15798  0.34017  1.0000
  C   C828      1.0  0.68046  0.16909  0.32134  1.0000
  C   C829      1.0  0.66315  0.17668  0.29695  1.0000
  C   C830      1.0  0.63298  0.18421  0.23168  1.0000
  C   C831      1.0  0.65424  0.16669  0.22637  1.0000
  C   C832      1.0  0.67701  0.16491  0.20205  1.0000
  C   C833      1.0  0.67893  0.18061  0.18297  1.0000
  C   C834      1.0  0.65802  0.19811  0.18809  1.0000
  C   C835      1.0  0.63473  0.19987  0.21221  1.0000
  H   H656      1.0  0.63779  0.25480  0.28115  1.0000
  H   H657      1.0  0.57651  0.26200  0.30831  1.0000
  C   C836      1.0  0.61735  0.15127  0.00165  1.0000
  H   H658      1.0  0.53472  0.20277  0.29331  1.0000
  H   H659      1.0  0.64822  0.22166  0.26112  1.0000
  H   H660      1.0  0.58049  0.14319  0.25505  1.0000
  C   C837      1.0  0.74899  0.29533  0.24382  1.0000
  C   C838      1.0  0.55453  0.13481  0.06895  1.0000
  H   H661      1.0  0.82397  0.12149  0.48907  1.0000
  H   H662      1.0  0.52350  0.19950  0.23952  1.0000
  H   H663      1.0  0.56839  0.16024  0.30697  1.0000
  H   H664      1.0  0.59965  0.14616  0.34942  1.0000
  H   H665      1.0  0.67113  0.15226  0.35917  1.0000
  H   H666      1.0  0.71143  0.17226  0.32583  1.0000
  H   H667      1.0  0.68104  0.18568  0.28294  1.0000
  H   H668      1.0  0.65296  0.15430  0.24084  1.0000
  H   H669      1.0  0.69324  0.15135  0.19781  1.0000
  H   H670      1.0  0.69702  0.17921  0.16434  1.0000
  H   H671      1.0  0.66059  0.21042  0.17352  1.0000
  H   H672      1.0  0.61812  0.21338  0.21546  1.0000
  H   H673      1.0  0.50816  0.22855  0.42909  1.0000
  H   H674      1.0  0.79999  0.26365  0.06103  1.0000
  H   H675      1.0  0.70970  0.13218  0.45229  1.0000
  C   C839      1.0  0.54695  0.19391  0.16589  1.0000
  H   H676      1.0  0.52367  0.16554  0.02999  1.0000
  H   H677      1.0  0.58117  0.14223  0.06188  1.0000
  H   H678      1.0  0.82697  0.16568  0.00813  1.0000
  C   C840      1.0  0.64648  0.14587  0.02110  1.0000
  C   C841      1.0  0.65433  0.15810  0.04409  1.0000
  C   C842      1.0  0.63235  0.17542  0.04815  1.0000
  C   C843      1.0  0.60216  0.18068  0.02920  1.0000
  H   H679      1.0  0.77878  0.12066  0.44790  1.0000
  P   P28       1.0  0.57185  0.20245  0.03493  1.0000
  H   H680      1.0  0.85962  0.29132  0.16629  1.0000
  C   C844      1.0  0.59327  0.21719  0.06284  1.0000
  C   C845      1.0  0.58987  0.21066  0.09073  1.0000
  C   C846      1.0  0.60899  0.22100  0.11233  1.0000
  C   C847      1.0  0.63127  0.23801  0.10633  1.0000
  C   C848      1.0  0.63401  0.24485  0.07875  1.0000
  C   C849      1.0  0.61503  0.23455  0.05707  1.0000
  H   H681      1.0  0.63231  0.00382  0.08297  1.0000
  H   H682      1.0  0.58746  0.99948  0.16702  1.0000
  C   C850      1.0  0.75385  0.29879  0.29425  1.0000
  P   P29       1.0  0.82459  0.28974  0.26697  1.0000
  H   H683      1.0  0.84876  0.25512  0.15936  1.0000
  H   H684      1.0  0.49244  0.22705  0.37784  1.0000
  H   H685      1.0  0.58140  0.17093  0.18581  1.0000
  H   H686      1.0  0.50866  0.21326  0.14221  1.0000
  H   H687      1.0  0.58843  0.14283  0.47005  1.0000
  C   C851      1.0  0.93163  0.29506  0.00896  1.0000
  H   H688      1.0  0.94941  0.24476  0.27169  1.0000
  H   H689      1.0  0.54029  0.14372  0.16809  1.0000
  C   C852      1.0  0.72771  0.29514  0.48348  1.0000
  H   H690      1.0  0.81235  0.26437  0.48783  1.0000
  H   H691      1.0  0.63730  0.30480  0.45453  1.0000
  C   C853      1.0  0.82575  0.24748  0.45105  1.0000
  C   C854      1.0  0.97234  0.29140  0.00695  1.0000
  C   C855      1.0  0.83172  0.24787  0.42209  1.0000
  H   H692      1.0  0.77086  0.29841  0.31351  1.0000
  H   H693      1.0  0.51217  0.13065  0.48272  1.0000
  C   C856      1.0  0.84262  0.17333  0.99143  1.0000
  H   H694      1.0  0.91468  0.28890  0.02623  1.0000
  C   C857      1.0  0.55436  0.19727  0.48916  1.0000
  S   S115      1.0  0.73489  0.31166  0.37156  1.0000
  C   C858      1.0  0.49400  0.99201  0.23390  1.0000
  C   C859      1.0  0.49760  0.11007  0.16137  1.0000
  C   C860      1.0  0.50603  0.17694  0.03980  1.0000
  S   S116      1.0  0.49089  0.00958  0.18085  1.0000
  H   H695      1.0  0.52521  0.11166  0.15004  1.0000
  S   S117      1.0  0.49135  0.05716  0.13248  1.0000
  C   C861      1.0  0.49780  0.21507  0.46980  1.0000
  H   H696      1.0  0.50009  0.25798  0.46232  1.0000
  H   H697      1.0  0.50751  0.22258  0.00324  1.0000
  C   C862      1.0  0.66907  0.30552  0.45795  1.0000
  H   H698      1.0  0.49027  0.28932  0.43654  1.0000
  C   C863      1.0  0.48851  0.24254  0.37247  1.0000
  C   C864      1.0  0.48862  0.11424  0.08968  1.0000
  C   C865      1.0  0.85291  0.31247  0.27126  1.0000
  C   C866      1.0  0.53518  0.22446  0.99213  1.0000
  Fe  Fe59      1.0  0.85592  0.17072  0.61459  1.0000
  S   S118      1.0  0.83083  0.20040  0.62733  1.0000
  S   S119      1.0  0.92138  0.16148  0.62153  1.0000
  Fe  Fe60      1.0  0.77040  0.15261  0.60592  1.0000
  S   S120      1.0  0.74115  0.18111  0.61849  1.0000
  S   S121      1.0  0.73748  0.12404  0.59224  1.0000
  Fe  Fe61      1.0  0.78741  0.19591  0.59142  1.0000
  S   S122      1.0  0.76700  0.22178  0.56383  1.0000
  Fe  Fe62      1.0  0.78661  0.18320  0.65304  1.0000
  S   S123      1.0  0.77296  0.18639  0.69973  1.0000
  S   S124      1.0  0.81512  0.16727  0.57697  1.0000
  S   S125      1.0  0.81329  0.15361  0.64211  1.0000
  Fe  Fe63      1.0  0.70865  0.26737  0.81723  1.0000
  S   S126      1.0  0.66764  0.29295  0.82721  1.0000
  S   S127      1.0  0.72150  0.26232  0.77073  1.0000
  Fe  Fe64      1.0  0.72330  0.25874  0.87982  1.0000
  S   S128      1.0  0.68350  0.28350  0.89339  1.0000
  S   S129      1.0  0.76042  0.24007  0.91020  1.0000
  Fe  Fe65      1.0  0.64056  0.27278  0.85995  1.0000
  S   S130      1.0  0.57566  0.26446  0.87174  1.0000
  Fe  Fe66      1.0  0.71415  0.30139  0.85947  1.0000
  S   S131      1.0  0.67957  0.24673  0.84804  1.0000
  S   S132      1.0  0.75609  0.27705  0.84772  1.0000
  H   H699      1.0  0.49680  0.19818  0.50838  1.0000
  S   S133      1.0  0.53782  0.01988  0.60716  1.0000
  C   C867      1.0  0.76779  0.22166  0.96153  1.0000
  H   H700      1.0  0.66230  0.17598  0.59564  1.0000
  Fe  Fe67      1.0  0.53003  0.05333  0.60261  1.0000
  S   S134      1.0  0.56689  0.08223  0.60943  1.0000
  C   C868      1.0  0.53143  0.15799  0.59651  1.0000
  C   C869      1.0  0.78142  0.30722  0.92928  1.0000
  C   C870      1.0  0.61394  0.22652  0.63553  1.0000
  C   C871      1.0  0.65313  0.23205  0.62977  1.0000
  H   H701      1.0  0.84684  0.23123  0.93452  1.0000
  C   C872      1.0  0.68442  0.22247  0.64337  1.0000
  C   C873      1.0  0.74728  0.14865  0.96741  1.0000
  C   C874      1.0  0.52628  0.27154  0.86154  1.0000
  C   C875      1.0  0.51867  0.28644  0.84174  1.0000
  C   C876      1.0  0.87899  0.20234  0.97504  1.0000
  C   C877      1.0  0.54533  0.17975  0.69579  1.0000
  C   C878      1.0  0.66511  0.19928  0.56476  1.0000
  C   C879      1.0  0.68975  0.11275  0.59745  1.0000
  C   C880      1.0  0.65780  0.12287  0.60953  1.0000
  C   C881      1.0  0.62065  0.11330  0.61294  1.0000
  C   C882      1.0  0.61476  0.09341  0.60451  1.0000
  C   C883      1.0  0.64659  0.08335  0.59222  1.0000
  C   C884      1.0  0.68362  0.09300  0.58859  1.0000
  H   H702      1.0  0.66166  0.13810  0.61602  1.0000
  H   H703      1.0  0.59631  0.12131  0.62223  1.0000
  H   H704      1.0  0.64270  0.06813  0.58547  1.0000
  H   H705      1.0  0.70788  0.08500  0.57904  1.0000
  C   C885      1.0  0.49525  0.18135  0.56756  1.0000
  H   H706      1.0  0.67487  0.10524  0.49598  1.0000
  H   H707      1.0  0.49956  0.09337  0.64437  1.0000
  H   H708      1.0  0.65946  0.24379  0.61482  1.0000
  H   H709      1.0  0.95268  0.19159  0.58222  1.0000
  C   C886      1.0  0.74632  0.23546  0.94536  1.0000
  H   H710      1.0  0.54325  0.29418  0.83201  1.0000
  H   H711      1.0  0.87379  0.28892  0.49809  1.0000
  C   C887      1.0  0.75869  0.22000  0.52713  1.0000
  S   S135      1.0  0.51001  0.99346  0.53399  1.0000
  C   C888      1.0  0.71412  0.24522  0.95745  1.0000
  C   C889      1.0  0.60604  0.21150  0.65510  1.0000
  H   H712      1.0  0.77581  0.18935  0.52351  1.0000
  H   H713      1.0  0.75141  0.30188  0.92592  1.0000
  H   H714      1.0  0.69753  0.25597  0.94534  1.0000
  C   C890      1.0  0.73599  0.24093  0.75162  1.0000
  C   C891      1.0  0.73777  0.22205  0.76383  1.0000
  C   C892      1.0  0.74901  0.20551  0.74759  1.0000
  C   C893      1.0  0.75857  0.20767  0.71904  1.0000
  C   C894      1.0  0.75636  0.22649  0.70676  1.0000
  C   C895      1.0  0.74501  0.24300  0.72298  1.0000
  H   H715      1.0  0.73003  0.22018  0.78564  1.0000
  H   H716      1.0  0.75037  0.19097  0.75718  1.0000
  H   H717      1.0  0.76372  0.22837  0.68486  1.0000
  H   H718      1.0  0.74350  0.25754  0.71333  1.0000
  C   C896      1.0  0.71473  0.13326  0.83329  1.0000
  C   C897      1.0  0.69560  0.11687  0.84524  1.0000
  C   C898      1.0  0.68023  0.11815  0.87237  1.0000
  C   C899      1.0  0.68410  0.13580  0.88760  1.0000
  C   C900      1.0  0.70377  0.15227  0.87588  1.0000
  C   C901      1.0  0.71868  0.15093  0.84846  1.0000
  P   P30       1.0  0.70733  0.17523  0.89537  1.0000
  C   C902      1.0  0.66174  0.18908  0.89166  1.0000
  C   C903      1.0  0.71656  0.16959  0.93191  1.0000
  C   C904      1.0  0.70001  0.18127  0.95329  1.0000
  C   C905      1.0  0.71721  0.00536  0.82631  1.0000
  H   H719      1.0  0.53090  0.25150  0.66191  1.0000
  H   H720      1.0  0.71491  0.22671  0.63894  1.0000
  C   C906      1.0  0.74048  0.15330  0.93923  1.0000
  C   C907      1.0  0.66141  0.20946  0.89768  1.0000
  C   C908      1.0  0.62668  0.22047  0.89426  1.0000
  C   C909      1.0  0.59194  0.21130  0.88484  1.0000
  C   C910      1.0  0.59182  0.19096  0.87903  1.0000
  C   C911      1.0  0.62657  0.17985  0.88242  1.0000
  C   C912      1.0  0.74792  0.18991  0.88154  1.0000
  C   C913      1.0  0.74202  0.20178  0.85764  1.0000
  C   C914      1.0  0.77335  0.21291  0.84647  1.0000
  C   C915      1.0  0.81086  0.21219  0.85893  1.0000
  C   C916      1.0  0.81707  0.20038  0.88265  1.0000
  C   C917      1.0  0.78574  0.18930  0.89400  1.0000
  H   H721      1.0  0.72651  0.13229  0.81220  1.0000
  H   H722      1.0  0.69258  0.10319  0.83344  1.0000
  H   H723      1.0  0.66519  0.10547  0.88156  1.0000
  H   H724      1.0  0.67161  0.13664  0.90847  1.0000
  H   H725      1.0  0.73339  0.16343  0.83864  1.0000
  H   H726      1.0  0.68223  0.19418  0.94850  1.0000
  H   H727      1.0  0.66168  0.14898  0.56102  1.0000
  C   C918      1.0  0.76510  0.20232  0.51247  1.0000
  H   H728      1.0  0.94488  0.14917  0.55564  1.0000
  H   H729      1.0  0.75402  0.14424  0.92315  1.0000
  H   H730      1.0  0.68815  0.21695  0.90468  1.0000
  H   H731      1.0  0.62696  0.23631  0.89842  1.0000
  H   H732      1.0  0.56533  0.22011  0.88177  1.0000
  H   H733      1.0  0.56485  0.18389  0.87161  1.0000
  H   H734      1.0  0.62583  0.16418  0.87753  1.0000
  H   H735      1.0  0.71313  0.20261  0.84769  1.0000
  H   H736      1.0  0.76841  0.22246  0.82849  1.0000
  H   H737      1.0  0.83485  0.22110  0.85048  1.0000
  H   H738      1.0  0.84595  0.20020  0.89257  1.0000
  H   H739      1.0  0.79106  0.18059  0.91266  1.0000
  C   C919      1.0  0.63649  0.22454  0.75927  1.0000
  C   C920      1.0  0.61624  0.21533  0.78126  1.0000
  C   C921      1.0  0.59999  0.19639  0.77750  1.0000
  C   C922      1.0  0.60368  0.18674  0.75165  1.0000
  C   C923      1.0  0.62351  0.19606  0.72929  1.0000
  C   C924      1.0  0.64063  0.21489  0.73350  1.0000
  H   H740      1.0  0.66928  0.21910  0.52947  1.0000
  C   C925      1.0  0.66812  0.16583  0.69677  1.0000
  C   C926      1.0  0.58153  0.17094  0.68822  1.0000
  C   C927      1.0  0.58104  0.15220  0.67519  1.0000
  C   C928      1.0  0.54504  0.14250  0.66989  1.0000
  H   H741      1.0  0.65747  0.22220  0.71713  1.0000
  C   C929      1.0  0.68508  0.15974  0.72228  1.0000
  C   C930      1.0  0.71565  0.14570  0.72252  1.0000
  C   C931      1.0  0.72939  0.13763  0.69737  1.0000
  C   C932      1.0  0.71272  0.14365  0.67194  1.0000
  C   C933      1.0  0.68253  0.15784  0.67161  1.0000
  C   C934      1.0  0.90856  0.26269  0.89998  1.0000
  H   H742      1.0  0.61346  0.22290  0.80124  1.0000
  H   H743      1.0  0.58459  0.18921  0.79467  1.0000
  H   H744      1.0  0.59117  0.17200  0.74912  1.0000
  H   H745      1.0  0.52508  0.20917  0.55944  1.0000
  H   H746      1.0  0.60820  0.14476  0.66942  1.0000
  H   H747      1.0  0.54501  0.12789  0.66029  1.0000
  C   C935      1.0  0.49707  0.16283  0.58120  1.0000
  H   H748      1.0  0.58464  0.20054  0.58743  1.0000
  H   H749      1.0  0.72951  0.14147  0.74210  1.0000
  H   H750      1.0  0.75361  0.12708  0.69746  1.0000
  H   H751      1.0  0.72379  0.13753  0.65244  1.0000
  H   H752      1.0  0.67044  0.16262  0.65172  1.0000
  H   H753      1.0  0.54492  0.19409  0.70607  1.0000
  C   C936      1.0  0.66231  0.17953  0.57352  1.0000
  H   H754      1.0  0.57553  0.20769  0.65957  1.0000
  H   H755      1.0  0.49025  0.18139  0.96815  1.0000
  C   C937      1.0  0.91710  0.21010  0.70949  1.0000
  C   C938      1.0  0.74454  0.23670  0.51239  1.0000
  C   C939      1.0  0.97749  0.18440  0.59242  1.0000
  C   C940      1.0  0.85145  0.30085  0.93587  1.0000
  H   H756      1.0  0.73951  0.25043  0.52356  1.0000
  C   C941      1.0  0.80806  0.31440  0.55413  1.0000
  C   C942      1.0  0.60101  0.13114  0.52828  1.0000
  H   H757      1.0  0.79229  0.21371  0.95228  1.0000
  P   P31       1.0  0.62789  0.18353  0.69591  1.0000
  H   H758      1.0  0.67554  0.16605  0.74195  1.0000
  H   H759      1.0  0.66828  0.21105  0.58003  1.0000
  C   C943      1.0  0.49354  0.26177  0.87391  1.0000
  H   H760      1.0  0.89653  0.30799  0.88788  1.0000
  C   C944      1.0  0.74136  0.14102  0.51908  1.0000
  C   C945      1.0  0.55622  0.00662  0.73493  1.0000
  H   H761      1.0  0.51806  0.23427  0.70697  1.0000
  C   C946      1.0  0.93771  0.25268  0.94432  1.0000
  C   C947      1.0  0.60576  0.23017  0.96245  1.0000
  C   C948      1.0  0.66508  0.18857  0.51637  1.0000
  H   H762      1.0  0.53464  0.14371  0.60653  1.0000
  C   C949      1.0  0.53765  0.98530  0.87300  1.0000
  H   H763      1.0  0.91226  0.18954  0.67499  1.0000
  H   H764      1.0  0.59074  0.14607  0.53236  1.0000
  C   C950      1.0  0.75710  0.21765  0.98953  1.0000
  C   C951      1.0  0.86935  0.17387  0.94440  1.0000
  C   C952      1.0  0.93227  0.19741  0.68904  1.0000
  H   H765      1.0  0.70128  0.20060  0.67373  1.0000
  C   C953      1.0  0.98414  0.21763  0.72508  1.0000
  C   C954      1.0  0.67661  0.20753  0.66298  1.0000
  C   C955      1.0  0.50938  0.16998  0.69047  1.0000
  H   H766      1.0  0.87426  0.16656  0.92449  1.0000
  C   C956      1.0  0.81265  0.29380  0.93230  1.0000
  H   H767      1.0  0.54368  0.98694  0.89520  1.0000
  H   H768      1.0  0.64950  0.23916  0.76234  1.0000
  C   C957      1.0  0.87314  0.24004  0.93050  1.0000
  C   C958      1.0  0.63741  0.20189  0.66902  1.0000
  C   C959      1.0  0.66164  0.16425  0.55376  1.0000
  H   H769      1.0  0.74474  0.01267  0.83209  1.0000
  H   H770      1.0  0.90228  0.19996  0.93289  1.0000
  H   H771      1.0  0.91000  0.27115  0.88066  1.0000
  C   C960      1.0  0.59274  0.09567  0.53483  1.0000
  Fe  Fe68      1.0  0.49677  0.01679  0.56906  1.0000
  C   C961      1.0  0.63566  0.12787  0.51255  1.0000
  H   H772      1.0  0.87531  0.29028  0.93824  1.0000
  H   H773      1.0  0.58896  0.16768  0.61084  1.0000
  H   H774      1.0  0.50545  0.11291  0.60114  1.0000
  H   H775      1.0  0.57042  0.24709  0.93320  1.0000
  C   C962      1.0  0.88496  0.19285  0.94918  1.0000
  H   H776      1.0  0.83679  0.14927  0.96202  1.0000
  H   H777      1.0  0.83341  0.25341  0.97581  1.0000
  C   C963      1.0  0.56267  0.17160  0.59891  1.0000
  C   C964      1.0  0.93972  0.26362  0.91936  1.0000
  C   C965      1.0  0.97325  0.19482  0.68659  1.0000
  C   C966      1.0  0.57463  0.99783  0.71189  1.0000
  C   C967      1.0  0.66587  0.20381  0.53622  1.0000
  H   H778      1.0  0.55449  0.11752  0.55294  1.0000
  H   H779      1.0  0.57684  0.08326  0.54416  1.0000
  H   H780      1.0  0.80663  0.27797  0.93149  1.0000
  C   C968      1.0  0.97033  0.16967  0.61255  1.0000
  H   H781      1.0  0.63320  0.23265  0.95121  1.0000
  H   H782      1.0  0.50777  0.24183  0.95927  1.0000
  C   C969      1.0  0.87512  0.25106  0.90570  1.0000
  C   C970      1.0  0.58009  0.11508  0.53972  1.0000
  C   C971      1.0  0.56025  0.19008  0.58570  1.0000
  H   H783      1.0  0.58974  0.23407  0.62510  1.0000
  H   H784      1.0  0.53498  0.01846  0.73161  1.0000
  H   H785      1.0  0.85033  0.25071  0.89109  1.0000
  H   H786      1.0  0.79960  0.13405  0.53474  1.0000
  C   C972      1.0  0.60598  0.21914  0.98730  1.0000
  C   C973      1.0  0.94302  0.22021  0.72749  1.0000
  H   H787      1.0  0.68029  0.02960  0.83982  1.0000
  C   C974      1.0  0.73071  0.16034  0.98848  1.0000
  C   C975      1.0  0.90451  0.24063  0.94998  1.0000
  C   C976      1.0  0.53510  0.23538  0.96712  1.0000
  H   H788      1.0  0.88523  0.21204  0.71135  1.0000
  H   H789      1.0  0.54962  0.00680  0.77955  1.0000
  H   H790      1.0  0.74096  0.28609  0.49979  1.0000
  C   C977      1.0  0.62668  0.09227  0.51881  1.0000
  H   H791      1.0  0.49881  0.25022  0.88921  1.0000
  H   H792      1.0  0.93112  0.23005  0.74332  1.0000
  C   C978      1.0  0.57040  0.23832  0.95236  1.0000
  H   H793      1.0  0.93316  0.30724  0.84329  1.0000
  C   C979      1.0  0.78022  0.13407  0.51656  1.0000
  C   C980      1.0  0.84818  0.16412  0.96552  1.0000
  C   C981      1.0  0.64816  0.10827  0.50776  1.0000
  H   H794      1.0  0.73162  0.14636  0.53929  1.0000
  C   C982      1.0  0.91274  0.30688  0.98885  1.0000
  C   C983      1.0  0.68092  0.01487  0.83072  1.0000
  C   C984      1.0  0.66295  0.16863  0.52497  1.0000
  H   H795      1.0  0.66792  0.19252  0.49452  1.0000
  H   H796      1.0  0.56751  0.18832  0.50562  1.0000
  C   C985      1.0  0.70693  0.17654  0.98142  1.0000
  C   C986      1.0  0.49368  0.23738  0.69274  1.0000
  H   H797      1.0  0.98466  0.12445  0.58156  1.0000
  C   C987      1.0  0.97527  0.31119  0.96455  1.0000
  H   H798      1.0  0.49730  0.15237  0.52303  1.0000
  C   C988      1.0  0.64539  0.00542  0.82325  1.0000
  C   C989      1.0  0.52663  0.19493  0.56996  1.0000
  C   C990      1.0  0.97506  0.14605  0.54907  1.0000
  P   P32       1.0  0.66463  0.14868  0.49966  1.0000
  C   C991      1.0  0.71802  0.98648  0.81416  1.0000
  C   C992      1.0  0.70312  0.24101  0.98528  1.0000
  H   H799      1.0  0.96210  0.25364  0.95904  1.0000
  H   H800      1.0  0.56753  0.00292  0.69088  1.0000
  C   C993      1.0  0.64594  0.98621  0.81185  1.0000
  C   C994      1.0  0.49695  0.12467  0.50085  1.0000
  H   H801      1.0  0.63691  0.07719  0.51564  1.0000
  C   C995      1.0  0.48860  0.13690  0.52379  1.0000
  H   H802      1.0  0.61749  0.01307  0.82634  1.0000
  H   H803      1.0  0.66829  0.28538  0.49308  1.0000
  C   C996      1.0  0.56410  0.99970  0.76203  1.0000
  H   H804      1.0  0.98429  0.18487  0.67062  1.0000
  H   H805      1.0  0.49314  0.23746  0.52171  1.0000
  S   S136      1.0  0.49344  0.05003  0.56326  1.0000
  C   C997      1.0  0.49833  0.98493  0.86359  1.0000
  H   H806      1.0  0.96540  0.27287  0.91507  1.0000
  H   H807      1.0  0.95876  0.19304  0.97766  1.0000
  H   H808      1.0  0.57303  0.17273  0.99029  1.0000
  C   C998      1.0  0.49646  0.98316  0.50023  1.0000
  C   C999      1.0  0.85500  0.29589  0.51360  1.0000
  H   H809      1.0  0.89316  0.28770  0.54802  1.0000
  C   C1000     1.0  0.86623  0.29530  0.54183  1.0000
  H   H810      1.0  0.61178  0.14193  0.98359  1.0000
  C   C1001     1.0  0.50090  0.24710  0.66736  1.0000
  C   C1002     1.0  0.71553  0.14066  0.49595  1.0000
  H   H811      1.0  0.76559  0.13603  0.97299  1.0000
  H   H812      1.0  0.97396  0.16687  0.51487  1.0000
  C   C1003     1.0  0.58989  0.98359  0.76621  1.0000
  C   C1004     1.0  0.81965  0.30532  0.50556  1.0000
  H   H813      1.0  0.50416  0.99175  0.94398  1.0000
  C   C1005     1.0  0.50924  0.15139  0.67747  1.0000
  C   C1006     1.0  0.84266  0.30446  0.56211  1.0000
  H   H814      1.0  0.85130  0.30393  0.58400  1.0000
  P   P33       1.0  0.90174  0.22618  0.98198  1.0000
  C   C1007     1.0  0.97173  0.20456  0.99056  1.0000
  H   H815      1.0  0.88130  0.30987  0.99103  1.0000
  H   H816      1.0  0.59893  0.98201  0.86193  1.0000
  C   C1008     1.0  0.56881  0.98249  0.85407  1.0000
  C   C1009     1.0  0.60129  0.98222  0.71593  1.0000
  H   H817      1.0  0.49453  0.00740  0.99077  1.0000
  S   S137      1.0  0.91707  0.42402  0.36084  1.0000
  H   H818      1.0  0.69669  0.58827  0.10528  1.0000
  H   H819      1.0  0.92447  0.59316  0.45036  1.0000
  Fe  Fe69      1.0  0.93049  0.39088  0.36095  1.0000
  S   S138      1.0  0.89839  0.36050  0.35555  1.0000
  C   C1010     1.0  0.80307  0.51292  0.03307  1.0000
  H   H820      1.0  0.72413  0.60969  0.06787  1.0000
  S   S139      1.0  0.93891  0.51969  0.10302  1.0000
  C   C1011     1.0  0.90676  0.64206  0.05483  1.0000
  C   C1012     1.0  0.88242  0.52533  0.03454  1.0000
  Fe  Fe70      1.0  0.94561  0.55317  0.10429  1.0000
  S   S140      1.0  0.90297  0.57692  0.08710  1.0000
  H   H821      1.0  0.75189  0.32569  0.42901  1.0000
  S   S141      1.0  0.75801  0.62752  0.13570  1.0000
  C   C1013     1.0  0.86450  0.59155  0.10207  1.0000
  C   C1014     1.0  0.84599  0.60597  0.08523  1.0000
  C   C1015     1.0  0.81448  0.61761  0.09549  1.0000
  C   C1016     1.0  0.80005  0.61449  0.12260  1.0000
  C   C1017     1.0  0.81897  0.60028  0.13970  1.0000
  C   C1018     1.0  0.85135  0.58905  0.12963  1.0000
  H   H822      1.0  0.85539  0.60770  0.06378  1.0000
  S   S142      1.0  0.97168  0.39302  0.39796  1.0000
  H   H823      1.0  0.80827  0.59780  0.16078  1.0000
  H   H824      1.0  0.86556  0.57816  0.14293  1.0000
  C   C1019     1.0  0.85266  0.34721  0.36063  1.0000
  C   C1020     1.0  0.85155  0.32656  0.35547  1.0000
  C   C1021     1.0  0.88498  0.63735  0.03070  1.0000
  C   C1022     1.0  0.78104  0.32474  0.36728  1.0000
  C   C1023     1.0  0.78221  0.34534  0.37250  1.0000
  C   C1024     1.0  0.81761  0.35649  0.36922  1.0000
  C   C1025     1.0  0.95663  0.48133  0.00903  1.0000
  C   C1026     1.0  0.86571  0.36139  0.43155  1.0000
  H   H825      1.0  0.75542  0.35282  0.37907  1.0000
  H   H826      1.0  0.81771  0.37230  0.37326  1.0000
  H   H827      1.0  0.94663  0.33080  0.26161  1.0000
  H   H828      1.0  0.79064  0.55641  0.13519  1.0000
  C   C1027     1.0  0.91565  0.33035  0.26761  1.0000
  Fe  Fe71      1.0  0.97397  0.51923  0.14402  1.0000
  H   H829      1.0  0.77867  0.59735  0.03776  1.0000
  H   H830      1.0  0.89939  0.47853  0.21996  1.0000
  H   H831      1.0  0.88881  0.50953  0.99559  1.0000
  H   H832      1.0  0.93320  0.63360  0.05955  1.0000
  H   H833      1.0  0.80647  0.56400  0.04533  1.0000
  H   H834      1.0  0.87699  0.49758  0.14843  1.0000
  H   H835      1.0  0.87831  0.31918  0.34869  1.0000
  H   H836      1.0  0.87942  0.37433  0.42196  1.0000
  S   S143      1.0  0.97618  0.55288  0.14623  1.0000
  H   H837      1.0  0.66640  0.62717  0.18898  1.0000
  C   C1028     1.0  0.80868  0.54330  0.13779  1.0000
  H   H838      1.0  0.70585  0.47301  0.11544  1.0000
  C   C1029     1.0  0.81676  0.52450  0.05561  1.0000
  H   H839      1.0  0.65091  0.50977  0.05279  1.0000
  C   C1030     1.0  0.74114  0.51528  0.08461  1.0000
  C   C1031     1.0  0.83016  0.54104  0.16273  1.0000
  Fe  Fe72      1.0  0.97062  0.42792  0.33227  1.0000
  C   C1032     1.0  0.97505  0.46227  0.26217  1.0000
  C   C1033     1.0  0.67460  0.49001  0.08415  1.0000
  C   C1034     1.0  0.67574  0.50661  0.06656  1.0000
  C   C1035     1.0  0.83634  0.51249  0.12053  1.0000
  C   C1036     1.0  0.83601  0.32923  0.28402  1.0000
  H   H840      1.0  0.93544  0.48700  0.02397  1.0000
  H   H841      1.0  0.81645  0.37775  0.44831  1.0000
  C   C1037     1.0  0.92031  0.59748  0.47203  1.0000
  C   C1038     1.0  0.82900  0.50759  0.01147  1.0000
  C   C1039     1.0  0.73394  0.31745  0.44386  1.0000
  C   C1040     1.0  0.73493  0.56350  0.09587  1.0000
  C   C1041     1.0  0.85655  0.53073  0.05608  1.0000
  C   C1042     1.0  0.81152  0.52899  0.11647  1.0000
  C   C1043     1.0  0.92948  0.47659  0.22738  1.0000
  C   C1044     1.0  0.98727  0.60728  0.13464  1.0000
  H   H842      1.0  0.91075  0.34141  0.41700  1.0000
  C   C1045     1.0  0.92929  0.62853  0.13559  1.0000
  Fe  Fe73      1.0  0.96125  0.42619  0.39694  1.0000
  H   H843      1.0  0.86766  0.53969  0.07324  1.0000
  C   C1046     1.0  0.69281  0.31688  0.44003  1.0000
  C   C1047     1.0  0.93639  0.46511  0.25192  1.0000
  C   C1048     1.0  0.71991  0.58264  0.09179  1.0000
  C   C1049     1.0  0.88340  0.34276  0.42877  1.0000
  C   C1050     1.0  0.82882  0.32759  0.45441  1.0000
  H   H844      1.0  0.91329  0.52996  0.03537  1.0000
  H   H845      1.0  0.87190  0.52288  0.18566  1.0000
  H   H846      1.0  0.77260  0.50788  0.03212  1.0000
  C   C1051     1.0  0.84969  0.64740  0.02475  1.0000
  C   C1052     1.0  0.85463  0.52453  0.16657  1.0000
  H   H847      1.0  0.88610  0.62324  0.46159  1.0000
  H   H848      1.0  0.64887  0.48029  0.08405  1.0000
  C   C1053     1.0  0.85880  0.34633  0.28852  1.0000
  C   C1054     1.0  0.78194  0.56883  0.05820  1.0000
  C   C1055     1.0  0.86864  0.51379  0.01220  1.0000
  H   H849      1.0  0.83961  0.50138  0.10429  1.0000
  C   C1056     1.0  0.70891  0.51917  0.06670  1.0000
  C   C1057     1.0  0.98518  0.63693  0.10599  1.0000
  H   H850      1.0  0.70942  0.53191  0.05278  1.0000
  H   H851      1.0  0.83192  0.64326  0.00671  1.0000
  P   P34       1.0  0.78415  0.53141  0.08398  1.0000
  C   C1058     1.0  0.83006  0.36326  0.44621  1.0000
  H   H852      1.0  0.92516  0.34975  0.99516  1.0000
  H   H853      1.0  0.81849  0.49853  0.99421  1.0000
  H   H854      1.0  0.72240  0.55425  0.11223  1.0000
  H   H855      1.0  0.91631  0.36002  0.28484  1.0000
  C   C1059     1.0  0.73990  0.49845  0.10204  1.0000
  C   C1060     1.0  0.81178  0.34645  0.45778  1.0000
  H   H856      1.0  0.80560  0.32918  0.29118  1.0000
  C   C1061     1.0  0.73535  0.59473  0.07063  1.0000
  H   H857      1.0  0.84596  0.35904  0.29911  1.0000
  H   H858      1.0  0.91169  0.45845  0.26294  1.0000
  C   C1062     1.0  0.96053  0.46056  0.46495  1.0000
  S   S144      1.0  0.94979  0.50001  0.18125  1.0000
  C   C1063     1.0  0.65102  0.64002  0.19722  1.0000
  C   C1064     1.0  0.89856  0.61457  0.47852  1.0000
  C   C1065     1.0  0.89861  0.34687  0.28051  1.0000
  H   H859      1.0  0.89467  0.62535  0.01726  1.0000
  H   H860      1.0  0.67963  0.32476  0.42251  1.0000
  H   H861      1.0  0.60382  0.63862  0.16666  1.0000
  S   S145      1.0  0.94554  0.44252  0.43873  1.0000
  H   H862      1.0  0.80035  0.62846  0.08205  1.0000
  C   C1066     1.0  0.96091  0.48556  0.21236  1.0000
  H   H863      1.0  0.82833  0.55225  0.17893  1.0000
  C   C1067     1.0  0.86532  0.32594  0.44041  1.0000
  C   C1068     1.0  0.93679  0.46332  0.48901  1.0000
  C   C1069     1.0  0.76615  0.58777  0.05373  1.0000
  C   C1070     1.0  0.76629  0.55650  0.07925  1.0000
  H   H864      1.0  0.76430  0.49493  0.11591  1.0000
  H   H865      1.0  0.93483  0.60113  0.15882  1.0000
  C   C1071     1.0  0.85752  0.51023  0.14553  1.0000
  C   C1072     1.0  0.94925  0.61146  0.14464  1.0000
  C   C1073     1.0  0.70667  0.48592  0.10184  1.0000
  S   S146      1.0  0.98561  0.44775  0.29333  1.0000
  H   H866      1.0  0.78419  0.34818  0.46910  1.0000
  S   S147      1.0  0.98028  0.39494  0.33010  1.0000
  H   H867      1.0  0.90986  0.63978  0.27535  1.0000
  C   C1074     1.0  0.94748  0.64167  0.11660  1.0000
  H   H868      1.0  0.81396  0.64052  0.46374  1.0000
  H   H869      1.0  0.89952  0.63104  0.14312  1.0000
  H   H870      1.0  0.92917  0.38507  0.00888  1.0000
  H   H871      1.0  0.95165  0.57206  0.48855  1.0000
  C   C1075     1.0  0.61574  0.64639  0.18472  1.0000
  H   H872      1.0  0.69492  0.64593  0.22899  1.0000
  H   H873      1.0  0.90901  0.64539  0.22396  1.0000
  C   C1076     1.0  0.81613  0.31541  0.35873  1.0000
  H   H874      1.0  0.90962  0.45485  0.49108  1.0000
  S   S148      1.0  0.93340  0.43025  0.85842  1.0000
  H   H875      1.0  0.96951  0.49821  0.81348  1.0000
  P   P35       1.0  0.90970  0.33028  0.94052  1.0000
  Fe  Fe74      1.0  0.94794  0.39742  0.85715  1.0000
  S   S149      1.0  0.91092  0.36920  0.84837  1.0000
  H   H876      1.0  0.91771  0.48206  0.84246  1.0000
  H   H877      1.0  0.88690  0.54900  0.67066  1.0000
  S   S150      1.0  0.93196  0.52494  0.60448  1.0000
  H   H878      1.0  0.94681  0.45249  0.67339  1.0000
  H   H879      1.0  0.94093  0.55849  0.75109  1.0000
  Fe  Fe75      1.0  0.94447  0.55801  0.60626  1.0000
  S   S151      1.0  0.90637  0.58599  0.59808  1.0000
  H   H880      1.0  0.96969  0.62334  0.59360  1.0000
  S   S152      1.0  0.73373  0.62213  0.62360  1.0000
  C   C1077     1.0  0.85831  0.59564  0.60623  1.0000
  C   C1078     1.0  0.85019  0.61572  0.60015  1.0000
  C   C1079     1.0  0.81245  0.62401  0.60527  1.0000
  C   C1080     1.0  0.78205  0.61235  0.61669  1.0000
  C   C1081     1.0  0.79027  0.59233  0.62316  1.0000
  C   C1082     1.0  0.82808  0.58402  0.61799  1.0000
  H   H881      1.0  0.87318  0.62498  0.59130  1.0000
  H   H882      1.0  0.83265  0.35061  0.93261  1.0000
  H   H883      1.0  0.76711  0.58315  0.63210  1.0000
  H   H884      1.0  0.83365  0.56857  0.62281  1.0000
  C   C1083     1.0  0.86203  0.35970  0.85438  1.0000
  C   C1084     1.0  0.85262  0.34048  0.84475  1.0000
  C   C1085     1.0  0.81468  0.33204  0.84914  1.0000
  C   C1086     1.0  0.78515  0.34288  0.86286  1.0000
  C   C1087     1.0  0.79447  0.36217  0.87240  1.0000
  C   C1088     1.0  0.83266  0.37051  0.86833  1.0000
  H   H885      1.0  0.87473  0.33208  0.83352  1.0000
  H   H886      1.0  0.90576  0.36421  0.78427  1.0000
  H   H887      1.0  0.77192  0.37074  0.88298  1.0000
  H   H888      1.0  0.83919  0.38533  0.87579  1.0000
  C   C1089     1.0  0.92188  0.38109  0.98748  1.0000
  S   S153      1.0  0.73641  0.33305  0.86852  1.0000
  H   H889      1.0  0.97994  0.35108  0.91991  1.0000
  C   C1090     1.0  0.73577  0.61960  0.54113  1.0000
  H   H890      1.0  0.91211  0.53568  0.71565  1.0000
  C   C1091     1.0  0.90524  0.39106  0.94019  1.0000
  H   H891      1.0  0.89646  0.36755  0.91051  1.0000
  H   H892      1.0  0.95006  0.37761  0.69951  1.0000
  C   C1092     1.0  0.82771  0.33474  0.93306  1.0000
  C   C1093     1.0  0.98283  0.48810  0.50855  1.0000
  H   H893      1.0  0.89122  0.58491  0.66056  1.0000
  H   H894      1.0  0.93145  0.47403  0.89231  1.0000
  C   C1094     1.0  0.97024  0.34094  0.90372  1.0000
  C   C1095     1.0  0.89919  0.39587  0.78742  1.0000
  H   H895      1.0  0.90184  0.42784  0.78849  1.0000
  C   C1096     1.0  0.96511  0.39831  0.75168  1.0000
  C   C1097     1.0  0.97498  0.49546  0.83555  1.0000
  C   C1098     1.0  0.97422  0.42955  0.69846  1.0000
  Fe  Fe76      1.0  0.97316  0.52232  0.64248  1.0000
  C   C1099     1.0  0.97829  0.62073  0.61515  1.0000
  C   C1100     1.0  0.91067  0.35596  0.95170  1.0000
  C   C1101     1.0  0.94587  0.48621  0.85182  1.0000
  C   C1102     1.0  0.94856  0.47082  0.75432  1.0000
  H   H896      1.0  0.92035  0.62700  0.63090  1.0000
  C   C1103     1.0  0.89234  0.61997  0.50660  1.0000
  S   S154      1.0  0.95203  0.44705  0.93751  1.0000
  H   H897      1.0  0.91721  0.41161  0.97369  1.0000
  P   P36       1.0  0.86100  0.64083  0.51546  1.0000
  H   H898      1.0  0.94051  0.58139  0.53819  1.0000
  C   C1104     1.0  0.91700  0.37853  0.77747  1.0000
  Fe  Fe77      1.0  0.97401  0.43152  0.89672  1.0000
  C   C1105     1.0  0.76837  0.60714  0.54516  1.0000
  C   C1106     1.0  0.95024  0.62282  0.63651  1.0000
  C   C1107     1.0  0.90811  0.60795  0.52795  1.0000
  H   H899      1.0  0.77681  0.62120  0.68353  1.0000
  H   H900      1.0  0.88539  0.62610  0.74520  1.0000
  C   C1108     1.0  0.80620  0.61322  0.53663  1.0000
  H   H901      1.0  0.76456  0.59304  0.55584  1.0000
  C   C1109     1.0  0.90325  0.37112  0.93214  1.0000
  C   C1110     1.0  0.93437  0.31492  0.96634  1.0000
  H   H902      1.0  0.92882  0.47873  0.52862  1.0000
  C   C1111     1.0  0.80459  0.64759  0.66728  1.0000
  C   C1112     1.0  0.84064  0.61960  0.68642  1.0000
  H   H903      1.0  0.76466  0.33799  0.92690  1.0000
  C   C1113     1.0  0.92953  0.59084  0.52143  1.0000
  C   C1114     1.0  0.91317  0.63429  0.74488  1.0000
  C   C1115     1.0  0.91472  0.41440  0.78002  1.0000
  C   C1116     1.0  0.81178  0.63196  0.52419  1.0000
  C   C1117     1.0  0.77873  0.64432  0.52008  1.0000
  C   C1118     1.0  0.91493  0.39607  0.96776  1.0000
  H   H904      1.0  0.90801  0.48103  0.72214  1.0000
  C   C1119     1.0  0.96734  0.49131  0.71332  1.0000
  H   H905      1.0  0.96454  0.36614  0.75341  1.0000
  H   H906      1.0  0.80805  0.31728  0.84150  1.0000
  S   S155      1.0  0.95257  0.50336  0.68103  1.0000
  H   H907      1.0  0.79006  0.32170  0.56983  1.0000
  H   H908      1.0  0.94149  0.64530  0.53903  1.0000
  H   H909      1.0  0.96029  0.42999  0.75764  1.0000
  C   C1120     1.0  0.97908  0.37184  0.69419  1.0000
  S   S156      1.0  0.98216  0.55559  0.64524  1.0000
  C   C1121     1.0  0.93849  0.48111  0.72931  1.0000
  C   C1122     1.0  0.94355  0.46964  0.98601  1.0000
  H   H910      1.0  0.70672  0.61512  0.54860  1.0000
  H   H911      1.0  0.89998  0.40272  0.92489  1.0000
  H   H912      1.0  0.83982  0.60508  0.69614  1.0000
  C   C1123     1.0  0.87685  0.62910  0.68046  1.0000
  H   H913      1.0  0.87419  0.39486  0.80165  1.0000
  H   H914      1.0  0.90286  0.61145  0.54974  1.0000
  C   C1124     1.0  0.91959  0.36108  0.97957  1.0000
  H   H915      1.0  0.92574  0.46316  0.76606  1.0000
  C   C1125     1.0  0.92338  0.64624  0.76779  1.0000
  C   C1126     1.0  0.78892  0.32763  0.92991  1.0000
  H   H916      1.0  0.94612  0.42252  0.70334  1.0000
  H   H917      1.0  0.83093  0.60347  0.54079  1.0000
  H   H918      1.0  0.80675  0.63939  0.60022  1.0000
  C   C1127     1.0  0.97446  0.44633  0.68114  1.0000
  H   H919      1.0  0.94538  0.59450  0.74149  1.0000
  C   C1128     1.0  0.85933  0.32139  0.93617  1.0000
  P   P37       1.0  0.92333  0.61841  0.69170  1.0000
  C   C1129     1.0  0.93847  0.63302  0.72160  1.0000
  C   C1130     1.0  0.91719  0.59252  0.70067  1.0000
  C   C1131     1.0  0.90103  0.57944  0.68076  1.0000
  C   C1132     1.0  0.89859  0.55908  0.68640  1.0000
  C   C1133     1.0  0.91288  0.55157  0.71177  1.0000
  C   C1134     1.0  0.92923  0.56446  0.73167  1.0000
  C   C1135     1.0  0.93152  0.58488  0.72617  1.0000
  C   C1136     1.0  0.95368  0.48164  0.87985  1.0000
  C   C1137     1.0  0.93565  0.58558  0.49348  1.0000
  C   C1138     1.0  0.96020  0.61810  0.66431  1.0000
  C   C1139     1.0  0.80472  0.62883  0.67978  1.0000
  H   H920      1.0  0.95528  0.35033  0.66524  1.0000
  C   C1140     1.0  0.94768  0.47692  0.51050  1.0000
  C   C1141     1.0  0.94774  0.41560  0.76241  1.0000
  H   H921      1.0  0.91220  0.46662  0.98348  1.0000
  C   C1142     1.0  0.92348  0.31664  0.88589  1.0000
  C   C1143     1.0  0.74092  0.63807  0.52825  1.0000
  C   C1144     1.0  0.97055  0.46176  0.96635  1.0000
  C   C1145     1.0  0.93649  0.32898  0.90777  1.0000
  C   C1146     1.0  0.98196  0.35647  0.67461  1.0000
  C   C1147     1.0  0.95019  0.37971  0.75996  1.0000
  H   H922      1.0  0.50267  0.63664  0.56771  1.0000
  H   H923      1.0  0.71583  0.64787  0.52526  1.0000
  C   C1148     1.0  0.94418  0.31619  0.86049  1.0000
  C   C1149     1.0  0.97766  0.32822  0.85665  1.0000
  H   H924      1.0  0.76999  0.32288  0.52006  1.0000
  S   S157      1.0  0.98516  0.39841  0.89643  1.0000
  C   C1150     1.0  0.97383  0.64415  0.72137  1.0000
  H   H925      1.0  0.90364  0.64718  0.78565  1.0000
  C   C1151     1.0  0.87645  0.64814  0.66835  1.0000
  Fe  Fe78      1.0  0.98720  0.52224  0.57757  1.0000
  C   C1152     1.0  0.79667  0.31494  0.52593  1.0000
  C   C1153     1.0  0.98794  0.47036  0.76394  1.0000
  Fe  Fe79      1.0  0.51753  0.89398  0.35674  1.0000
  S   S158      1.0  0.56567  0.87192  0.37134  1.0000
  H   H926      1.0  0.58655  0.80781  0.28571  1.0000
  H   H927      1.0  0.69322  0.78247  0.25274  1.0000
  S   S159      1.0  0.52355  0.92736  0.35110  1.0000
  C   C1154     1.0  0.84871  0.72253  0.07198  1.0000
  C   C1155     1.0  0.49825  0.67977  0.13096  1.0000
  S   S160      1.0  0.76076  0.68078  0.10067  1.0000
  Fe  Fe80      1.0  0.64507  0.67674  0.11013  1.0000
  S   S161      1.0  0.67567  0.70428  0.09353  1.0000
  C   C1156     1.0  0.55557  0.76723  0.99263  1.0000
  Fe  Fe81      1.0  0.71276  0.68326  0.06789  1.0000
  S   S162      1.0  0.73272  0.68482  0.02212  1.0000
  Fe  Fe82      1.0  0.72082  0.69923  0.12787  1.0000
  S   S163      1.0  0.74485  0.72445  0.15501  1.0000
  S   S164      1.0  0.67978  0.65569  0.08246  1.0000
  S   S165      1.0  0.68904  0.67299  0.14565  1.0000
  Fe  Fe83      1.0  0.73696  0.78704  0.34075  1.0000
  S   S166      1.0  0.70945  0.75699  0.34714  1.0000
  S   S167      1.0  0.69815  0.81253  0.32351  1.0000
  Fe  Fe84      1.0  0.82212  0.76962  0.35039  1.0000
  S   S168      1.0  0.79820  0.73867  0.35784  1.0000
  S   S169      1.0  0.88843  0.77683  0.34275  1.0000
  Fe  Fe85      1.0  0.75842  0.74471  0.32065  1.0000
  S   S170      1.0  0.74547  0.72026  0.28872  1.0000
  Fe  Fe86      1.0  0.75113  0.75372  0.38393  1.0000
  S   S171      1.0  0.71700  0.74310  0.42278  1.0000
  S   S172      1.0  0.78402  0.77473  0.31186  1.0000
  S   S173      1.0  0.77700  0.78467  0.37871  1.0000
  C   C1157     1.0  0.93714  0.77174  0.35606  1.0000
  C   C1158     1.0  0.92548  0.67628  0.22722  1.0000
  C   C1159     1.0  0.94377  0.76170  0.38137  1.0000
  H   H928      1.0  0.49680  0.97913  0.27571  1.0000
  H   H929      1.0  0.91869  0.75661  0.39354  1.0000
  C   C1160     1.0  0.52990  0.67611  0.11236  1.0000
  C   C1161     1.0  0.52076  0.67093  0.08467  1.0000
  H   H930      1.0  0.61684  0.91004  0.16255  1.0000
  S   S174      1.0  0.57988  0.67793  0.12520  1.0000
  C   C1162     1.0  0.87368  0.68991  0.46516  1.0000
  H   H931      1.0  0.61337  0.70786  0.34546  1.0000
  C   C1163     1.0  0.86820  0.72755  0.01514  1.0000
  C   C1164     1.0  0.61378  0.71725  0.20863  1.0000
  C   C1165     1.0  0.72926  0.73009  0.45414  1.0000
  C   C1166     1.0  0.76777  0.72354  0.46003  1.0000
  C   C1167     1.0  0.58934  0.98056  0.09020  1.0000
  H   H932      1.0  0.71140  0.72686  0.02866  1.0000
  H   H933      1.0  0.81036  0.71457  0.00713  1.0000
  H   H934      1.0  0.79134  0.72648  0.44524  1.0000
  H   H935      1.0  0.55390  0.91377  0.44691  1.0000
  C   C1168     1.0  0.74234  0.72344  0.19219  1.0000
  C   C1169     1.0  0.73457  0.70565  0.20636  1.0000
  C   C1170     1.0  0.73555  0.70503  0.23586  1.0000
  C   C1171     1.0  0.74352  0.72223  0.25161  1.0000
  C   C1172     1.0  0.75009  0.74018  0.23752  1.0000
  C   C1173     1.0  0.74994  0.74072  0.20794  1.0000
  H   H936      1.0  0.72879  0.69223  0.19461  1.0000
  H   H937      1.0  0.73055  0.69107  0.24655  1.0000
  H   H938      1.0  0.75593  0.75358  0.24935  1.0000
  H   H939      1.0  0.75587  0.75456  0.19718  1.0000
  C   C1174     1.0  0.60079  0.85475  0.35730  1.0000
  C   C1175     1.0  0.62394  0.84337  0.37597  1.0000
  C   C1176     1.0  0.65290  0.82994  0.36611  1.0000
  C   C1177     1.0  0.65944  0.82780  0.33731  1.0000
  C   C1178     1.0  0.63593  0.83900  0.31863  1.0000
  C   C1179     1.0  0.60663  0.85226  0.32848  1.0000
  H   H940      1.0  0.61972  0.84511  0.39830  1.0000
  H   H941      1.0  0.67085  0.82162  0.38081  1.0000
  H   H942      1.0  0.64089  0.83768  0.29634  1.0000
  H   H943      1.0  0.58899  0.86074  0.31380  1.0000
  H   H944      1.0  0.68202  0.75194  0.28062  1.0000
  H   H945      1.0  0.79346  0.71024  0.05680  1.0000
  C   C1180     1.0  0.82206  0.71654  0.05116  1.0000
  P   P38       1.0  0.94700  0.70957  0.29738  1.0000
  C   C1181     1.0  0.91774  0.73031  0.28532  1.0000
  C   C1182     1.0  0.87715  0.72748  0.27976  1.0000
  C   C1183     1.0  0.85363  0.74344  0.27126  1.0000
  C   C1184     1.0  0.87038  0.76232  0.26815  1.0000
  H   H946      1.0  0.78892  0.95615  0.33609  1.0000
  C   C1185     1.0  0.83179  0.71897  0.02292  1.0000
  H   H947      1.0  0.54807  0.69613  0.32748  1.0000
  C   C1186     1.0  0.92638  0.66996  0.28523  1.0000
  C   C1187     1.0  0.64432  0.72944  0.16587  1.0000
  C   C1188     1.0  0.89695  0.69180  0.14341  1.0000
  C   C1189     1.0  0.84663  0.68614  0.44352  1.0000
  H   H948      1.0  0.66436  0.75978  0.16639  1.0000
  H   H949      1.0  0.86332  0.71306  0.28266  1.0000
  H   H950      1.0  0.82214  0.74125  0.26786  1.0000
  H   H951      1.0  0.85180  0.77480  0.26244  1.0000
  H   H952      1.0  0.80561  0.70845  0.48981  1.0000
  H   H953      1.0  0.91858  0.69591  0.41339  1.0000
  C   C1190     1.0  0.70529  0.93683  0.36591  1.0000
  H   H954      1.0  0.84548  0.64988  0.12598  1.0000
  H   H955      1.0  0.62277  0.69975  0.17103  1.0000
  H   H956      1.0  0.96543  0.75207  0.28665  1.0000
  H   H957      1.0  0.87557  0.71414  0.17216  1.0000
  C   C1191     1.0  0.90105  0.71256  0.37687  1.0000
  H   H958      1.0  0.54578  0.97109  0.15336  1.0000
  C   C1192     1.0  0.83467  0.68973  0.16867  1.0000
  H   H959      1.0  0.96580  0.78638  0.32132  1.0000
  P   P39       1.0  0.66840  0.91788  0.35938  1.0000
  C   C1193     1.0  0.63927  0.92381  0.32864  1.0000
  C   C1194     1.0  0.69588  0.89501  0.35557  1.0000
  C   C1195     1.0  0.69490  0.88414  0.33046  1.0000
  C   C1196     1.0  0.71725  0.86677  0.32780  1.0000
  C   C1197     1.0  0.74049  0.86004  0.35012  1.0000
  C   C1198     1.0  0.74234  0.87099  0.37493  1.0000
  C   C1199     1.0  0.72053  0.88854  0.37754  1.0000
  C   C1200     1.0  0.64334  0.94222  0.31497  1.0000
  C   C1201     1.0  0.61889  0.94695  0.29217  1.0000
  C   C1202     1.0  0.59015  0.93343  0.28296  1.0000
  C   C1203     1.0  0.60999  0.91044  0.31942  1.0000
  C   C1204     1.0  0.63344  0.91662  0.38803  1.0000
  C   C1205     1.0  0.85748  0.65803  0.48640  1.0000
  C   C1206     1.0  0.97039  0.77846  0.34079  1.0000
  H   H960      1.0  0.58412  0.90144  0.03171  1.0000
  C   C1207     1.0  0.60257  0.89895  0.42678  1.0000
  C   C1208     1.0  0.63081  0.89979  0.40537  1.0000
  C   C1209     1.0  0.98293  0.75880  0.39139  1.0000
  H   H961      1.0  0.84074  0.72082  0.09389  1.0000
  C   C1210     1.0  0.63606  0.75156  0.20527  1.0000
  H   H962      1.0  0.60770  0.73924  0.24150  1.0000
  H   H963      1.0  0.59002  0.97580  0.06859  1.0000
  H   H964      1.0  0.67694  0.88884  0.31291  1.0000
  H   H965      1.0  0.71570  0.85809  0.30869  1.0000
  H   H966      1.0  0.75661  0.84618  0.34821  1.0000
  C   C1211     1.0  0.95126  0.68693  0.37689  1.0000
  H   H967      1.0  0.92565  0.66722  0.30753  1.0000
  H   H968      1.0  0.66458  0.95316  0.32217  1.0000
  H   H969      1.0  0.60483  0.93325  0.12327  1.0000
  H   H970      1.0  0.60538  0.89652  0.33035  1.0000
  H   H971      1.0  0.92266  0.74068  0.03079  1.0000
  P   P40       1.0  0.53272  0.95061  0.10008  1.0000
  C   C1212     1.0  0.62651  0.71407  0.18102  1.0000
  C   C1213     1.0  0.93468  0.69194  0.24539  1.0000
  H   H972      1.0  0.64883  0.88682  0.40166  1.0000
  H   H973      1.0  0.84776  0.67902  0.08001  1.0000
  H   H974      1.0  0.64501  0.81018  0.25508  1.0000
  H   H975      1.0  0.56016  0.89619  0.18948  1.0000
  C   C1214     1.0  0.54084  0.93207  0.12689  1.0000
  C   C1215     1.0  0.61808  0.73623  0.22052  1.0000
  H   H976      1.0  0.71172  0.75488  0.99455  1.0000
  C   C1216     1.0  0.89482  0.73363  0.03615  1.0000
  C   C1217     1.0  0.50890  0.92405  0.14213  1.0000
  P   P41       1.0  0.92188  0.66355  0.10383  1.0000
  C   C1218     1.0  0.70458  0.94841  0.39038  1.0000
  H   H977      1.0  0.81327  0.69616  0.18297  1.0000
  H   H978      1.0  0.65482  0.72677  0.14480  1.0000
  H   H979      1.0  0.50482  0.68371  0.15242  1.0000
  C   C1219     1.0  0.53779  0.69708  0.21872  1.0000
  C   C1220     1.0  0.64953  0.74810  0.17806  1.0000
  H   H980      1.0  0.58189  0.74271  0.01511  1.0000
  C   C1221     1.0  0.57069  0.91589  0.03465  1.0000
  H   H981      1.0  0.66919  0.73136  0.46953  1.0000
  H   H982      1.0  0.80836  0.75374  0.99812  1.0000
  C   C1222     1.0  0.83667  0.66248  0.04252  1.0000
  C   C1223     1.0  0.63957  0.70979  0.30448  1.0000
  C   C1224     1.0  0.95850  0.68213  0.09457  1.0000
  C   C1225     1.0  0.56618  0.69667  0.28416  1.0000
  C   C1226     1.0  0.85855  0.66736  0.06647  1.0000
  H   H983      1.0  0.57058  0.91361  0.07944  1.0000
  H   H984      1.0  0.92985  0.69107  0.05580  1.0000
  C   C1227     1.0  0.55480  0.90600  0.17183  1.0000
  H   H985      1.0  0.57057  0.93729  0.26572  1.0000
  C   C1228     1.0  0.76416  0.96567  0.37544  1.0000
  P   P42       1.0  0.59005  0.69736  0.22782  1.0000
  H   H986      1.0  0.72238  0.89693  0.39686  1.0000
  H   H987      1.0  0.89073  0.72749  0.33799  1.0000
  C   C1229     1.0  0.93550  0.70445  0.33367  1.0000
  C   C1230     1.0  0.82570  0.66820  0.44289  1.0000
  H   H988      1.0  0.76041  0.86574  0.39221  1.0000
  C   C1231     1.0  0.82650  0.67155  0.15581  1.0000
  H   H989      1.0  0.59971  0.88561  0.43934  1.0000
  C   C1232     1.0  0.60719  0.93249  0.39239  1.0000
  C   C1233     1.0  0.72007  0.72433  0.00714  1.0000
  H   H990      1.0  0.98148  0.71553  0.04315  1.0000
  H   H991      1.0  0.65811  0.71072  0.26156  1.0000
  C   C1234     1.0  0.87917  0.67590  0.48650  1.0000
  H   H992      1.0  0.68178  0.94632  0.40605  1.0000
  C   C1235     1.0  0.55072  0.69999  0.46517  1.0000
  H   H993      1.0  0.62377  0.74939  0.31174  1.0000
  C   C1236     1.0  0.51176  0.69836  0.47516  1.0000
  H   H994      1.0  0.60793  0.94541  0.37883  1.0000
  C   C1237     1.0  0.92301  0.69817  0.39118  1.0000
  H   H995      1.0  0.87955  0.72157  0.38795  1.0000
  H   H996      1.0  0.51758  0.83561  0.37857  1.0000
  C   C1238     1.0  0.88512  0.73105  0.06448  1.0000
  H   H997      1.0  0.63980  0.76610  0.21451  1.0000
  C   C1239     1.0  0.73387  0.96282  0.39503  1.0000
  H   H998      1.0  0.53433  0.95471  0.99686  1.0000
  C   C1240     1.0  0.57889  0.93158  0.41376  1.0000
  H   H999      1.0  0.98748  0.75141  0.41126  1.0000
  H   H1000     1.0  0.55537  0.80482  0.37211  1.0000
  C   C1241     1.0  0.58577  0.91516  0.29653  1.0000
  C   C1242     1.0  0.49215  0.97619  0.25366  1.0000
  H   H1001     1.0  0.79882  0.66385  0.16020  1.0000
  C   C1243     1.0  0.89351  0.65703  0.07300  1.0000
  H   H1002     1.0  0.53320  0.76993  0.00846  1.0000
  H   H1003     1.0  0.51492  0.94158  0.46047  1.0000
  C   C1244     1.0  0.58309  0.75196  0.99648  1.0000
  H   H1004     1.0  0.54454  0.66798  0.07008  1.0000
  P   P43       1.0  0.55931  0.77622  0.32492  1.0000
  H   H1005     1.0  0.94074  0.70654  0.23682  1.0000
  C   C1245     1.0  0.58079  0.76774  0.35754  1.0000
  C   C1246     1.0  0.61542  0.77694  0.36766  1.0000
  C   C1247     1.0  0.63288  0.77052  0.39266  1.0000
  C   C1248     1.0  0.61615  0.75477  0.40764  1.0000
  C   C1249     1.0  0.58184  0.74541  0.39766  1.0000
  C   C1250     1.0  0.56420  0.75181  0.37265  1.0000
  H   H1006     1.0  0.88932  0.70399  0.46594  1.0000
  C   C1251     1.0  0.56312  0.92291  0.06173  1.0000
  C   C1252     1.0  0.64811  0.66770  0.22959  1.0000
  H   H1007     1.0  0.66175  0.67592  0.24649  1.0000
  C   C1253     1.0  0.73105  0.70526  0.99857  1.0000
  C   C1254     1.0  0.59993  0.77804  0.30034  1.0000
  C   C1255     1.0  0.62733  0.76242  0.29871  1.0000
  C   C1256     1.0  0.66045  0.76386  0.28122  1.0000
  C   C1257     1.0  0.66672  0.78105  0.26544  1.0000
  C   C1258     1.0  0.63941  0.79662  0.26668  1.0000
  C   C1259     1.0  0.60616  0.79519  0.28414  1.0000
  C   C1260     1.0  0.51543  0.82759  0.35891  1.0000
  C   C1261     1.0  0.95781  0.69021  0.34833  1.0000
  H   H1008     1.0  0.80911  0.67015  0.03802  1.0000
  H   H1009     1.0  0.62158  0.96127  0.28194  1.0000
  H   H1010     1.0  0.55563  0.74755  0.27770  1.0000
  H   H1011     1.0  0.62925  0.78896  0.35606  1.0000
  H   H1012     1.0  0.66002  0.77746  0.40016  1.0000
  H   H1013     1.0  0.63029  0.74967  0.42678  1.0000
  H   H1014     1.0  0.56920  0.73311  0.40926  1.0000
  C   C1262     1.0  0.51097  0.80749  0.30780  1.0000
  H   H1015     1.0  0.53753  0.72630  0.19935  1.0000
  C   C1263     1.0  0.57980  0.92688  0.13438  1.0000
  H   H1016     1.0  0.73734  0.93064  0.32767  1.0000
  C   C1264     1.0  0.63370  0.70750  0.27564  1.0000
  C   C1265     1.0  0.59668  0.66342  0.19456  1.0000
  C   C1266     1.0  0.73603  0.93964  0.34647  1.0000
  C   C1267     1.0  0.95494  0.69321  0.06971  1.0000
  H   H1017     1.0  0.96865  0.67595  0.38805  1.0000
  H   H1018     1.0  0.66820  0.71469  0.31238  1.0000
  C   C1268     1.0  0.56042  0.92736  0.01129  1.0000
  C   C1269     1.0  0.90730  0.71578  0.34826  1.0000
  C   C1270     1.0  0.54539  0.94157  0.06557  1.0000
  H   H1019     1.0  0.92354  0.70013  0.13867  1.0000
  H   H1020     1.0  0.56263  0.90496  0.28989  1.0000
  H   H1021     1.0  0.92434  0.67877  0.20480  1.0000
  C   C1271     1.0  0.59687  0.70099  0.26517  1.0000
  C   C1272     1.0  0.51595  0.91109  0.16454  1.0000
  C   C1273     1.0  0.57655  0.91478  0.43091  1.0000
  C   C1274     1.0  0.58671  0.91382  0.15668  1.0000
  H   H1022     1.0  0.90548  0.73596  0.08067  1.0000
  C   C1275     1.0  0.60864  0.70591  0.32314  1.0000
  H   H1023     1.0  0.84117  0.69728  0.42754  1.0000
  C   C1276     1.0  0.61267  0.67424  0.21710  1.0000
  H   H1024     1.0  0.53801  0.74417  0.36521  1.0000
  C   C1277     1.0  0.69900  0.72625  0.47378  1.0000
  H   H1025     1.0  0.53772  0.69129  0.27693  1.0000
  C   C1278     1.0  0.88882  0.67354  0.13021  1.0000
  H   H1026     1.0  0.73312  0.97173  0.41393  1.0000
  C   C1279     1.0  0.52166  0.75914  0.31258  1.0000
  C   C1280     1.0  0.86987  0.69984  0.16249  1.0000
  H   H1027     1.0  0.92340  0.78002  0.27200  1.0000
  C   C1281     1.0  0.50282  0.95588  0.46586  1.0000
  C   C1282     1.0  0.53704  0.81011  0.35505  1.0000
  C   C1283     1.0  0.91081  0.76522  0.27341  1.0000
  C   C1284     1.0  0.93529  0.68891  0.27454  1.0000
  C   C1285     1.0  0.85320  0.66359  0.13649  1.0000
  C   C1286     1.0  0.93450  0.74929  0.28199  1.0000
  C   C1287     1.0  0.53478  0.79984  0.32948  1.0000
  H   H1028     1.0  0.80430  0.66543  0.42632  1.0000
  C   C1288     1.0  0.49804  0.73403  0.27995  1.0000
  C   C1289     1.0  0.98409  0.70717  0.06249  1.0000
  C   C1290     1.0  0.49197  0.83514  0.33725  1.0000
  Fe  Fe87      1.0  0.72642  0.65451  0.11652  1.0000
  C   C1291     1.0  0.77576  0.71331  0.48527  1.0000
  C   C1292     1.0  0.57195  0.69935  0.31298  1.0000
  H   H1029     1.0  0.57029  0.66847  0.18374  1.0000
  H   H1030     1.0  0.52757  0.66740  0.23478  1.0000
  H   H1031     1.0  0.55796  0.94365  0.41647  1.0000
  C   C1293     1.0  0.53518  0.95297  0.04196  1.0000
  C   C1294     1.0  0.83119  0.65415  0.46416  1.0000
  C   C1295     1.0  0.52792  0.74702  0.28907  1.0000
  C   C1296     1.0  0.51449  0.68025  0.22470  1.0000
  H   H1032     1.0  0.50872  0.79978  0.28795  1.0000
  C   C1297     1.0  0.76528  0.95405  0.35119  1.0000
  C   C1298     1.0  0.91676  0.65747  0.23801  1.0000
  C   C1299     1.0  0.54274  0.94590  0.01497  1.0000
  H   H1033     1.0  0.78689  0.97681  0.37913  1.0000
  C   C1300     1.0  0.52025  0.71330  0.20487  1.0000
  C   C1301     1.0  0.49000  0.82519  0.31161  1.0000
  H   H1034     1.0  0.50288  0.72476  0.26175  1.0000
  C   C1302     1.0  0.66713  0.65065  0.21969  1.0000
  H   H1035     1.0  0.55649  0.69945  0.44286  1.0000
  H   H1036     1.0  0.98072  0.68183  0.33772  1.0000
  H   H1037     1.0  0.52092  0.96728  0.04444  1.0000
  C   C1303     1.0  0.91724  0.65431  0.26698  1.0000
  C   C1304     1.0  0.58238  0.70216  0.48394  1.0000
  C   C1305     1.0  0.56455  0.97802  0.13772  1.0000
  H   H1038     1.0  0.98346  0.71443  0.19455  1.0000
  C   C1306     1.0  0.56420  0.97133  0.10981  1.0000
  H   H1039     1.0  0.61261  0.70330  0.47626  1.0000
  H   H1040     1.0  0.49126  0.90531  0.17663  1.0000
  H   H1041     1.0  0.96736  0.75583  0.49114  1.0000
  Fe  Fe88      1.0  0.53017  0.89658  0.86015  1.0000
  S   S175      1.0  0.58781  0.88038  0.87290  1.0000
  C   C1307     1.0  0.60038  0.77790  0.88594  1.0000
  H   H1042     1.0  0.61458  0.80427  0.86212  1.0000
  S   S176      1.0  0.52593  0.92979  0.85390  1.0000
  Fe  Fe89      1.0  0.71193  0.65390  0.61531  1.0000
  H   H1043     1.0  0.89901  0.68821  0.75407  1.0000
  S   S177      1.0  0.75503  0.67914  0.61151  1.0000
  Fe  Fe90      1.0  0.63885  0.68094  0.60518  1.0000
  S   S178      1.0  0.67906  0.70776  0.60005  1.0000
  C   C1308     1.0  0.49226  0.73488  0.90586  1.0000
  Fe  Fe91      1.0  0.71872  0.68847  0.57402  1.0000
  S   S179      1.0  0.75759  0.69642  0.53621  1.0000
  Fe  Fe92      1.0  0.71203  0.69636  0.63798  1.0000
  S   S180      1.0  0.73378  0.71976  0.66938  1.0000
  S   S181      1.0  0.67714  0.66223  0.57649  1.0000
  S   S182      1.0  0.67031  0.67055  0.64458  1.0000
  Fe  Fe93      1.0  0.74200  0.78892  0.84267  1.0000
  S   S183      1.0  0.71514  0.75944  0.85427  1.0000
  S   S184      1.0  0.69912  0.81167  0.82326  1.0000
  Fe  Fe94      1.0  0.82763  0.77382  0.85686  1.0000
  S   S185      1.0  0.80496  0.74366  0.86962  1.0000
  S   S186      1.0  0.89226  0.78485  0.86201  1.0000
  Fe  Fe95      1.0  0.76616  0.74584  0.83082  1.0000
  S   S187      1.0  0.75559  0.71885  0.80264  1.0000
  Fe  Fe96      1.0  0.75573  0.75995  0.89170  1.0000
  S   S188      1.0  0.73055  0.75753  0.93606  1.0000
  S   S189      1.0  0.79125  0.77517  0.81687  1.0000
  S   S190      1.0  0.78034  0.79024  0.88115  1.0000
  C   C1309     1.0  0.94141  0.77480  0.85989  1.0000
  C   C1310     1.0  0.94875  0.75453  0.85591  1.0000
  H   H1044     1.0  0.87348  0.69016  0.86763  1.0000
  H   H1045     1.0  0.92399  0.74437  0.85398  1.0000
  C   C1311     1.0  0.82068  0.79060  0.95044  1.0000
  C   C1312     1.0  0.52373  0.68119  0.60859  1.0000
  C   C1313     1.0  0.74551  0.70948  0.50489  1.0000
  C   C1314     1.0  0.54626  0.80593  0.91002  1.0000
  H   H1046     1.0  0.51190  0.74298  0.94732  1.0000
  C   C1315     1.0  0.70700  0.71601  0.49900  1.0000
  C   C1316     1.0  0.70280  0.81321  0.92868  1.0000
  C   C1317     1.0  0.85933  0.69204  0.96860  1.0000
  H   H1047     1.0  0.64074  0.91085  0.84425  1.0000
  C   C1318     1.0  0.73172  0.73718  0.95972  1.0000
  C   C1319     1.0  0.74266  0.71814  0.95119  1.0000
  H   H1048     1.0  0.59960  0.70426  0.52743  1.0000
  H   H1049     1.0  0.68349  0.71325  0.51392  1.0000
  H   H1050     1.0  0.57838  0.83120  0.89293  1.0000
  H   H1051     1.0  0.75060  0.71559  0.92957  1.0000
  H   H1052     1.0  0.84962  0.68464  0.59802  1.0000
  C   C1320     1.0  0.73943  0.71901  0.70645  1.0000
  C   C1321     1.0  0.73490  0.70149  0.72192  1.0000
  C   C1322     1.0  0.74028  0.70165  0.75128  1.0000
  C   C1323     1.0  0.75050  0.71927  0.76549  1.0000
  C   C1324     1.0  0.75605  0.73665  0.74989  1.0000
  C   C1325     1.0  0.75012  0.73655  0.72063  1.0000
  H   H1053     1.0  0.72729  0.68783  0.71125  1.0000
  H   H1054     1.0  0.73630  0.68807  0.76308  1.0000
  H   H1055     1.0  0.76467  0.75024  0.76036  1.0000
  H   H1056     1.0  0.75409  0.75016  0.70887  1.0000
  C   C1326     1.0  0.61712  0.86063  0.85900  1.0000
  C   C1327     1.0  0.60893  0.85163  0.83317  1.0000
  C   C1328     1.0  0.63430  0.83671  0.82263  1.0000
  C   C1329     1.0  0.66751  0.83014  0.83806  1.0000
  C   C1330     1.0  0.67496  0.83871  0.86424  1.0000
  C   C1331     1.0  0.65015  0.85394  0.87448  1.0000
  H   H1057     1.0  0.58344  0.85638  0.82111  1.0000
  H   H1058     1.0  0.62814  0.83020  0.80236  1.0000
  H   H1059     1.0  0.70054  0.83402  0.87621  1.0000
  H   H1060     1.0  0.65684  0.86074  0.89447  1.0000
  C   C1332     1.0  0.58765  0.91521  0.78392  1.0000
  H   H1061     1.0  0.90399  0.65594  0.66424  1.0000
  C   C1333     1.0  0.60789  0.90623  0.80613  1.0000
  H   H1062     1.0  0.89646  0.76003  0.93280  1.0000
  H   H1063     1.0  0.96912  0.80342  0.86578  1.0000
  C   C1334     1.0  0.54076  0.75351  0.76378  1.0000
  C   C1335     1.0  0.64999  0.67656  0.73860  1.0000
  C   C1336     1.0  0.65033  0.67214  0.76722  1.0000
  C   C1337     1.0  0.63593  0.68596  0.78648  1.0000
  C   C1338     1.0  0.62097  0.70417  0.77713  1.0000
  C   C1339     1.0  0.62100  0.70884  0.74843  1.0000
  C   C1340     1.0  0.63573  0.69489  0.72920  1.0000
  P   P44       1.0  0.60131  0.73237  0.73670  1.0000
  C   C1341     1.0  0.55267  0.73527  0.75223  1.0000
  C   C1342     1.0  0.63319  0.75293  0.74632  1.0000
  C   C1343     1.0  0.62787  0.77148  0.73328  1.0000
  C   C1344     1.0  0.65183  0.78765  0.74064  1.0000
  C   C1345     1.0  0.68124  0.78544  0.76104  1.0000
  C   C1346     1.0  0.68669  0.76708  0.77411  1.0000
  C   C1347     1.0  0.66318  0.75078  0.76656  1.0000
  C   C1348     1.0  0.49921  0.95346  0.72157  1.0000
  H   H1064     1.0  0.56909  0.94255  0.76514  1.0000
  H   H1065     1.0  0.96534  0.70354  0.72624  1.0000
  H   H1066     1.0  0.81142  0.70235  0.89604  1.0000
  H   H1067     1.0  0.90808  0.81311  0.76940  1.0000
  C   C1349     1.0  0.59790  0.73213  0.69891  1.0000
  C   C1350     1.0  0.63160  0.73694  0.68296  1.0000
  C   C1351     1.0  0.63021  0.73608  0.65374  1.0000
  C   C1352     1.0  0.59541  0.73011  0.64017  1.0000
  C   C1353     1.0  0.56186  0.72506  0.65584  1.0000
  C   C1354     1.0  0.56296  0.72612  0.68513  1.0000
  C   C1355     1.0  0.93165  0.73374  0.97191  1.0000
  H   H1068     1.0  0.63670  0.68262  0.80869  1.0000
  H   H1069     1.0  0.60981  0.71471  0.79228  1.0000
  H   H1070     1.0  0.63664  0.69804  0.70695  1.0000
  H   H1071     1.0  0.60522  0.77342  0.71738  1.0000
  H   H1072     1.0  0.64776  0.80192  0.73052  1.0000
  H   H1073     1.0  0.69996  0.79795  0.76670  1.0000
  H   H1074     1.0  0.70963  0.76542  0.78987  1.0000
  H   H1075     1.0  0.66905  0.73663  0.77644  1.0000
  C   C1356     1.0  0.50419  0.69888  0.50411  1.0000
  H   H1076     1.0  0.51850  0.85032  0.88135  1.0000
  H   H1077     1.0  0.59905  0.73103  0.85875  1.0000
  H   H1078     1.0  0.77657  0.65440  0.66164  1.0000
  H   H1079     1.0  0.65942  0.74089  0.69303  1.0000
  H   H1080     1.0  0.65662  0.73956  0.64171  1.0000
  H   H1081     1.0  0.59474  0.72889  0.61751  1.0000
  H   H1082     1.0  0.87212  0.68893  0.98897  1.0000
  H   H1083     1.0  0.53681  0.72186  0.69673  1.0000
  C   C1357     1.0  0.58640  0.77582  0.94815  1.0000
  C   C1358     1.0  0.93576  0.70876  0.81800  1.0000
  C   C1359     1.0  0.51563  0.83562  0.89061  1.0000
  C   C1360     1.0  0.94247  0.71397  0.52720  1.0000
  H   H1084     1.0  0.60831  0.89021  0.80805  1.0000
  H   H1085     1.0  0.62632  0.78634  0.81790  1.0000
  C   C1361     1.0  0.58622  0.93591  0.78191  1.0000
  P   P45       1.0  0.87886  0.73179  0.97846  1.0000
  H   H1086     1.0  0.51155  0.66701  0.54066  1.0000
  C   C1362     1.0  0.98688  0.71106  0.73934  1.0000
  H   H1087     1.0  0.56033  0.76627  0.76369  1.0000
  H   H1088     1.0  0.49619  0.73409  0.53220  1.0000
  C   C1363     1.0  0.95890  0.65704  0.76759  1.0000
  H   H1089     1.0  0.85099  0.67408  0.72026  1.0000
  H   H1090     1.0  0.87411  0.74691  0.72199  1.0000
  C   C1364     1.0  0.50835  0.79754  0.91362  1.0000
  H   H1091     1.0  0.51212  0.96571  0.68057  1.0000
  C   C1365     1.0  0.87127  0.76549  0.94456  1.0000
  C   C1366     1.0  0.50313  0.75546  0.77582  1.0000
  H   H1092     1.0  0.93624  0.76400  0.98703  1.0000
  C   C1367     1.0  0.65785  0.83728  0.94861  1.0000
  H   H1093     1.0  0.51608  0.94008  0.71792  1.0000
  H   H1094     1.0  0.51226  0.96781  0.63144  1.0000
  C   C1368     1.0  0.93578  0.66385  0.57531  1.0000
  C   C1369     1.0  0.93373  0.78787  0.74842  1.0000
  C   C1370     1.0  0.86972  0.67592  0.58531  1.0000
  C   C1371     1.0  0.62472  0.93865  0.82468  1.0000
  H   H1095     1.0  0.96718  0.70964  0.81369  1.0000
  P   P46       1.0  0.59035  0.79161  0.91760  1.0000
  C   C1372     1.0  0.67054  0.80157  0.92013  1.0000
  H   H1096     1.0  0.96684  0.66629  0.78534  1.0000
  H   H1097     1.0  0.91435  0.74247  0.52200  1.0000
  C   C1373     1.0  0.84042  0.65720  0.66137  1.0000
  H   H1098     1.0  0.81434  0.69631  0.68769  1.0000
  C   C1374     1.0  0.98411  0.65596  0.74442  1.0000
  C   C1375     1.0  0.69649  0.83117  0.94259  1.0000
  C   C1376     1.0  0.60508  0.94779  0.80211  1.0000
  C   C1377     1.0  0.89092  0.78557  0.78889  1.0000
  H   H1099     1.0  0.82358  0.66672  0.55725  1.0000
  C   C1378     1.0  0.84354  0.72281  0.70226  1.0000
  C   C1379     1.0  0.82543  0.69940  0.91609  1.0000
  H   H1100     1.0  0.72155  0.84032  0.94871  1.0000
  H   H1101     1.0  0.63781  0.94748  0.84126  1.0000
  C   C1380     1.0  0.60918  0.97522  0.74300  1.0000
  C   C1381     1.0  0.95254  0.71798  0.95955  1.0000
  H   H1102     1.0  0.93786  0.70410  0.95465  1.0000
  C   C1382     1.0  0.59554  0.75718  0.88467  1.0000
  C   C1383     1.0  0.61717  0.77817  0.83642  1.0000
  C   C1384     1.0  0.74251  0.70229  0.97055  1.0000
  C   C1385     1.0  0.60191  0.74705  0.85949  1.0000
  S   S191      1.0  0.57249  0.68857  0.59744  1.0000
  C   C1386     1.0  0.61293  0.74894  0.97667  1.0000
  C   C1387     1.0  0.85579  0.75474  0.96738  1.0000
  H   H1103     1.0  0.52192  0.73438  0.89724  1.0000
  H   H1104     1.0  0.94917  0.79680  0.73299  1.0000
  C   C1388     1.0  0.88301  0.69761  0.84868  1.0000
  C   C1389     1.0  0.97423  0.78772  0.86265  1.0000
  C   C1390     1.0  0.82202  0.76197  0.98121  1.0000
  C   C1391     1.0  0.85492  0.70564  0.83036  1.0000
  H   H1105     1.0  0.66151  0.66594  0.72363  1.0000
  H   H1106     1.0  0.97622  0.68713  0.52844  1.0000
  H   H1107     1.0  0.75105  0.68761  0.96371  1.0000
  H   H1108     1.0  0.57189  0.90617  0.76874  1.0000
  C   C1392     1.0  0.91004  0.67491  0.59208  1.0000
  C   C1393     1.0  0.85838  0.71155  0.95809  1.0000
  H   H1109     1.0  0.50502  0.78259  0.92162  1.0000
  C   C1394     1.0  0.84310  0.67640  0.95300  1.0000
  C   C1395     1.0  0.82600  0.68009  0.92681  1.0000
  H   H1110     1.0  0.82678  0.73242  0.68834  1.0000
  C   C1396     1.0  0.84163  0.71508  0.93160  1.0000
  H   H1111     1.0  0.87334  0.79280  0.80488  1.0000
  H   H1112     1.0  0.89943  0.67931  0.50341  1.0000
  C   C1397     1.0  0.62638  0.91794  0.82650  1.0000
  C   C1398     1.0  0.61496  0.76098  0.95282  1.0000
  C   C1399     1.0  0.85393  0.78342  0.93633  1.0000
  C   C1400     1.0  0.61098  0.78830  0.86159  1.0000
  C   C1401     1.0  0.72041  0.74019  0.98777  1.0000
  C   C1402     1.0  0.80465  0.77985  0.97278  1.0000
  H   H1113     1.0  0.81262  0.66805  0.91501  1.0000
  H   H1114     1.0  0.61813  0.74972  0.81600  1.0000
  H   H1115     1.0  0.58703  0.74878  0.90299  1.0000
  H   H1116     1.0  0.63920  0.75883  0.93820  1.0000
  H   H1117     1.0  0.73269  0.80825  0.92447  1.0000
  C   C1403     1.0  0.61266  0.75755  0.83537  1.0000
  C   C1404     1.0  0.96955  0.74082  0.49931  1.0000
  H   H1118     1.0  0.96707  0.66312  0.58052  1.0000
  C   C1405     1.0  0.83655  0.70235  0.70183  1.0000
  C   C1406     1.0  0.51241  0.96468  0.49205  1.0000
  C   C1407     1.0  0.51643  0.66373  0.62377  1.0000
  C   C1408     1.0  0.57512  0.70275  0.51273  1.0000
  H   H1119     1.0  0.66214  0.65808  0.77446  1.0000
  H   H1120     1.0  0.62991  0.96311  0.74577  1.0000
  H   H1121     1.0  0.67613  0.78768  0.90939  1.0000
  C   C1409     1.0  0.97492  0.70206  0.52015  1.0000
  H   H1122     1.0  0.53515  0.70473  0.74478  1.0000
  H   H1123     1.0  0.87948  0.75639  0.80486  1.0000
  C   C1410     1.0  0.90773  0.71714  0.79965  1.0000
  H   H1124     1.0  0.82350  0.70439  0.83499  1.0000
  C   C1411     1.0  0.89444  0.76486  0.78873  1.0000
  C   C1412     1.0  0.68254  0.97700  0.80668  1.0000
  C   C1413     1.0  0.63164  0.80766  0.92597  1.0000
  C   C1414     1.0  0.55746  0.77929  0.96873  1.0000
  H   H1125     1.0  0.53693  0.79154  0.96676  1.0000
  H   H1126     1.0  0.92130  0.68277  0.61025  1.0000
  C   C1415     1.0  0.92341  0.69919  0.84252  1.0000
  C   C1416     1.0  0.85704  0.68990  0.72027  1.0000
  H   H1127     1.0  0.84486  0.72157  0.79202  1.0000
  H   H1128     1.0  0.84314  0.66145  0.96139  1.0000
  C   C1417     1.0  0.91059  0.79707  0.76887  1.0000
  C   C1418     1.0  0.85496  0.66563  0.56207  1.0000
  H   H1129     1.0  0.80676  0.80426  0.94358  1.0000
  C   C1419     1.0  0.88042  0.65412  0.54545  1.0000
  H   H1130     1.0  0.68373  0.96252  0.79683  1.0000
  C   C1420     1.0  0.89107  0.71856  0.74021  1.0000
  H   H1131     1.0  0.54105  0.65438  0.62984  1.0000
  C   C1421     1.0  0.91752  0.75550  0.76820  1.0000
  H   H1132     1.0  0.52497  0.96100  0.58121  1.0000
  C   C1422     1.0  0.87051  0.73094  0.72144  1.0000
  P   P47       1.0  0.92283  0.72882  0.76723  1.0000
  H   H1133     1.0  0.84012  0.67163  0.65133  1.0000
  C   C1423     1.0  0.88421  0.69796  0.73938  1.0000
  H   H1134     1.0  0.86588  0.79159  0.91863  1.0000
  H   H1135     1.0  0.84024  0.72996  0.92308  1.0000
  H   H1136     1.0  0.59587  0.83017  0.94622  1.0000
  C   C1424     1.0  0.86716  0.71542  0.80598  1.0000
  H   H1137     1.0  0.94523  0.69312  0.85683  1.0000
  H   H1138     1.0  0.53226  0.95701  0.50622  1.0000
  H   H1139     1.0  0.53137  0.70161  0.54518  1.0000
  C   C1425     1.0  0.53628  0.70120  0.52275  1.0000
  C   C1426     1.0  0.54959  0.82478  0.89749  1.0000
  C   C1427     1.0  0.93717  0.76718  0.74805  1.0000
  C   C1428     1.0  0.62553  0.82543  0.94075  1.0000
  P   P48       1.0  0.60026  0.97446  0.80110  1.0000
  C   C1429     1.0  0.95181  0.75158  0.97775  1.0000
  C   C1430     1.0  0.49683  0.96807  0.70011  1.0000
  H   H1140     1.0  0.91928  0.70819  0.54073  1.0000
  H   H1141     1.0  0.65288  0.85121  0.95937  1.0000
  C   C1431     1.0  0.52650  0.71899  0.75334  1.0000
  C   C1432     1.0  0.49487  0.96074  0.58921  1.0000
  H   H1142     1.0  0.53534  0.71984  0.64518  1.0000
  H   H1143     1.0  0.49409  0.76958  0.78457  1.0000
  C   C1433     1.0  0.92112  0.65362  0.55193  1.0000
  C   C1434     1.0  0.49099  0.69310  0.60108  1.0000
  H   H1144     1.0  0.49601  0.70678  0.58975  1.0000
  H   H1145     1.0  0.51429  0.97512  0.79490  1.0000
  C   C1435     1.0  0.52114  0.97859  0.81644  1.0000
  H   H1146     1.0  0.95524  0.76028  0.73206  1.0000
  H   H1147     1.0  0.63499  0.73746  0.97999  1.0000
  H   H1148     1.0  0.78210  0.65906  0.51125  1.0000
  C   C1436     1.0  0.49007  0.98142  0.83535  1.0000
  H   H1149     1.0  0.77787  0.78500  0.98294  1.0000
  C   C1437     1.0  0.97473  0.72413  0.76055  1.0000
  C   C1438     1.0  0.93969  0.73330  0.51668  1.0000
  H   H1150     1.0  0.61539  0.97537  0.69800  1.0000
  C   C1439     1.0  0.48880  0.72103  0.76526  1.0000
  C   C1440     1.0  0.56071  0.97955  0.82548  1.0000
  H   H1151     1.0  0.74615  0.97919  0.81041  1.0000
  S   S192      1.0  0.48812  0.89039  0.82463  1.0000
  H   H1152     1.0  0.56577  0.92184  0.99028  1.0000
