data_image0
_chemical_formula_structural       HSFeSCSHSCFeS3H2SHSCSFeS2FeSFeSC6H4C7H4C6H5C6H3CH2CHFeSH2C2HC2H2C4PC15HC2HCH14C3HCHC3HPC4H3C11H2C3HC2HCH11CH5CHCHC2PSHCHCS2C3HC3HC3H2C2H2FePH3C2H2C2HCHC2PC4H3C3SC2HCHCHC3HCH2CH3FeC3HC2HCHCH2CH2CHFeCHSHC3H2CHC2HC2HC2HPC4HC2HSCHCH3C2HC2FeCHC5H4CHCHSH2SCFeS2FeS2FeSFeS3HC2HCS2HFeS2FeS2FeSFeS3C2HC5H3C9H4CPC2HC6H4C4HC6HCH2C6H5C4H3C3FeHCHC3HCH4C6PC7H4C8HCH6CHCH6C6PC13HCHC2H6C3H5CH2CHCH2CHCH3CFeC2HCHCH8PHC4H2C3H3CFeC5SC2HSHCHC3H4CHCH3C2HCHCH2C2H4CHCHCH3C2H3SH3FeS5PC4HFe2S2FeSFeSHSC3HC6H5C6H4C6H3CHC5H4CSC4HSC4HC7PC4H2C3SC8HC3H3CHCHC2H7FeH2CSC3HCHCHC2HCHCHCH3CH2CH2C2HC2HCH2CHCFeHC2H2SFeC2HC4PC4H4C2H4CH2C2H5C2HCH2C2HCSCHCH3CPCH2CH3CHFeHC2HCSCHC2HSCH3FeSC11PC9HC3HSHFeCHPH3CH9CHSHC2H6C4HCHCH2CFeSCHCHCSC2FeSCFeS2FeSFeS3HSHS2CSC6H4C2SHC2HCHC6H4CHC3H3CHC2HCH2C5H3C2HCH2CH2CHCH4C3H3CHC3HPCFeCH2C13H6CHCH6C3PC10SH4CH3CH3C6PC18H20CHCHPHC6PHC3SC2HC7H7CH5CHCFeHC2HCFeSCFeCFeH2SC2SC5HCHSCSHC4HFeC2HCPCHC2H4C2HCHCH3C2H2CHCH2CH5C3PC2H3C3H2C2HC2HFeS2FeS2FeSFeS3CSH6FeS2FeS2FeSFeS3CSH2CHPCHC3HC4H2C7H3C6H4C2H2C7H4C3H2C6H2PHC6H5C6PC8H4C4HCH10C4H2SHCH2CHPC19H2C2H13C3H6CHSH2CH2C5HCHC2HCHCH2C2HCSH2C4HFeC4HCHC4PC15HFeCH14C4HC5HC4H5CH2CHPH2C3HC8HCH2C3HSC2HCHCHCH3SH2FeC4HCSCHFeS2FeS2FeSFeS4CHSHS2C6H4C3HC2H3SH2C7H4C3FeHSH2C2H2C2PC4HC4SCHC6HCSH3C2FeHC2PC3H5CPC2HC9SCFeH3C4H2CH2CHC6PC18H22C3H7CH3CFeH4PCSHC3HSCHC3H2Fe2CH4CH3CHC4HC3HCH5C2H2C3HC2HC2SC2H4C4HCH3C3HC2HCH4C3HCHC4H5CHC2HC5H6C4H2C3HCHFeS2CHFeSFeS2FeS2FeSFeS3C2FeSHCH2C3FeH2CH2C3H2C6H4C6H4C4HSC3H5CH3C2HCPC4H2CH4C3SH2CHC4HCHCHC2HCH2CHC7PC4HC7HC3H8CH2C2H2C3PC2SC3HC11H3CH4C2H7CH3CSHCHC2HCH6C2HCH2C6H2CH4CSHC2H3C3H6CHCHC2H2SC6PC7HC4H2CHC2HPFeHC2HC2HC2HCHC3HCFeS2HSC2H2C2SH2SHCHC2HFeSCS2CHC2FeCSCFeSCSFeS3C6H4C6HCH2C4H5C2SC4H2CHCHC4H4CH2CHC3H2CHC4HCHCHC6PHCH2SCH4CSHCHCPCH2CH2PCHC6HCHC4H7PHCH2C2HCH4CH4CHC4HSHFeC2H2SCSC2HCHC4H3C4FeH3C2H2C2H3CHC3H2C2HCH2CFeC2SCFeCHC3HCHC3H2CPH3C4PC18HC2H12C2HCFePCH2C2HC2FeCHCHC2H4SCFeH2C4SH2C2H2CFeHCFeSCFe2S2FeS2FeS2FeSFeS3H3CH2CFeSH2C4H2C2HCH2C3H2C6H4C6H8SH2C2SC2SFeH2CHC5HC2HC2H4SCPC2HCHCH3SCHFeC2HCSC8PC18H20CH4CH2CHC2HSCH2C2SH2C7H5CFeC2H3CHC3FeCHC2HC7PC3HCHC2HC2H3C3H3CH5C2HC2HC4HCH2SCHCH2C3PC2HC2H2C2HC2H2CH5CHC6HCHC2H5C2PC5SH2CH2FeS2FeS2FeSFeS3CSHFeS2FeSFeCSC3HCH2C4HCH3CH2CHC4H2CSCHC4H2C6H4C3FeH3C3H4CHC3H4C2HCH5CHCSHCH4CPCHCSH7CHC2HC3PC6HCHCH2CH10C2H2C2H4C7PC4H2C12H5CH11SC2HCHCHC6PC10HC8HFeH2CH2CH3CPHC2HC2HCHCSC2HC3H2CFeSHCHC2HSC2H3SFeS3C2HCH2FeHS2FeSFeS2HS3C6H4C6H4C6H2CH3CHC4SH3FeHCH2FeHC3S2C2HCH2C6HSH2C2HC3H2CHCHC3HC2SH2C2H2CH2CHC2H3C7PC15HC2H10CH4C4HC4H4C3SHPSHFeHC2SHC2H2CHCHCH3C3H3C2H4CH2FeHCHCH3C2HC2HCHCSHCHCH2C3HCHC2HCH2C2HC6H3FeS2FeS2FeSFeS3FeSCFeS2FeSFeS3CHFe2H2C3HC3H4SCHC3H2C3H2C2HSC2HC2HC6H5C2FeC3PC13SCH2C2H5C7H6C2H3C4PCH2CHC7HSC5H3CHC2H4CH4CPC3H3C2HCH4C2HC2H2CH3CPC2H2CHCHCH6SCHC2H4C3HC2HCH4C7H2C2H4PHCH2CH5C4HCHC6PC3HC12H6CHC2H4C3H2C3H3C2H3CHC2HC2HFeC2HC3HSH2CHSHCHC3
_chemical_formula_sum              "H1536 S256 Fe128 C1920 P64"
_cell_length_a       38.433
_cell_length_b       41.5459
_cell_length_c       69.8763
_cell_angle_alpha    90.2529
_cell_angle_beta     90.0925
_cell_angle_gamma    90.4661

_space_group_name_H-M_alt    "P 1"
_space_group_IT_number       1

loop_
  _space_group_symop_operation_xyz
  'x, y, z'

loop_
  _atom_site_type_symbol
  _atom_site_label
  _atom_site_symmetry_multiplicity
  _atom_site_fract_x
  _atom_site_fract_y
  _atom_site_fract_z
  _atom_site_occupancy
  H   H1        1.0  0.02347  0.35564  0.20421  1.0000
  S   S1        1.0  0.15420  0.46643  0.32199  1.0000
  Fe  Fe1       1.0  0.10463  0.45148  0.30684  1.0000
  S   S2        1.0  0.09612  0.46188  0.27490  1.0000
  C   C1        1.0  0.39947  0.28278  0.26314  1.0000
  S   S3        1.0  0.44840  0.25644  0.19924  1.0000
  H   H2        1.0  0.29190  0.32505  0.29051  1.0000
  S   S4        1.0  0.45845  0.21919  0.25323  1.0000
  C   C2        1.0  0.27670  0.36066  0.07688  1.0000
  Fe  Fe2       1.0  0.18045  0.43489  0.14251  1.0000
  S   S5        1.0  0.13948  0.41714  0.16289  1.0000
  S   S6        1.0  0.29820  0.38642  0.12814  1.0000
  S   S7        1.0  0.20205  0.40732  0.11760  1.0000
  H   H3        1.0  0.45096  0.14399  0.14475  1.0000
  H   H4        1.0  0.33705  0.24881  0.10717  1.0000
  S   S8        1.0  0.32601  0.04031  0.12543  1.0000
  H   H5        1.0  0.38821  0.28684  0.23306  1.0000
  S   S9        1.0  0.44888  0.17709  0.20111  1.0000
  C   C3        1.0  0.24045  0.35721  0.04849  1.0000
  S   S10       1.0  0.10200  0.40379  0.32201  1.0000
  Fe  Fe3       1.0  0.39041  0.25217  0.19402  1.0000
  S   S11       1.0  0.38306  0.21624  0.21778  1.0000
  S   S12       1.0  0.35487  0.29621  0.19519  1.0000
  Fe  Fe4       1.0  0.39147  0.17787  0.19557  1.0000
  S   S13       1.0  0.36223  0.13006  0.19724  1.0000
  Fe  Fe5       1.0  0.44123  0.21811  0.22170  1.0000
  S   S14       1.0  0.39442  0.21340  0.17149  1.0000
  C   C4        1.0  0.33751  0.06434  0.14561  1.0000
  C   C5        1.0  0.34324  0.09751  0.14302  1.0000
  C   C6        1.0  0.35226  0.11765  0.15857  1.0000
  C   C7        1.0  0.35473  0.10493  0.17701  1.0000
  C   C8        1.0  0.34909  0.07173  0.17965  1.0000
  C   C9        1.0  0.34089  0.05144  0.16399  1.0000
  H   H6        1.0  0.34069  0.10771  0.12889  1.0000
  H   H7        1.0  0.35633  0.14315  0.15637  1.0000
  H   H8        1.0  0.35088  0.06168  0.19386  1.0000
  H   H9        1.0  0.33654  0.02597  0.16619  1.0000
  C   C10       1.0  0.43962  0.36710  0.17612  1.0000
  C   C11       1.0  0.31220  0.36094  0.14704  1.0000
  C   C12       1.0  0.30754  0.36900  0.16631  1.0000
  C   C13       1.0  0.32096  0.34899  0.18079  1.0000
  C   C14       1.0  0.33902  0.32062  0.17623  1.0000
  C   C15       1.0  0.34337  0.31238  0.15695  1.0000
  C   C16       1.0  0.33002  0.33247  0.14249  1.0000
  H   H10       1.0  0.29402  0.39087  0.17007  1.0000
  H   H11       1.0  0.31731  0.35556  0.19565  1.0000
  H   H12       1.0  0.35684  0.29049  0.15319  1.0000
  H   H13       1.0  0.33323  0.32586  0.12766  1.0000
  C   C17       1.0  0.02835  0.43148  0.14191  1.0000
  C   C18       1.0  0.03475  0.42414  0.16109  1.0000
  C   C19       1.0  0.06900  0.41970  0.16742  1.0000
  C   C20       1.0  0.09686  0.42282  0.15465  1.0000
  C   C21       1.0  0.09053  0.43129  0.13564  1.0000
  C   C22       1.0  0.05624  0.43547  0.12924  1.0000
  H   H14       1.0  0.01333  0.42154  0.17100  1.0000
  H   H15       1.0  0.07396  0.41466  0.18231  1.0000
  H   H16       1.0  0.11205  0.43446  0.12591  1.0000
  H   H17       1.0  0.05131  0.44181  0.11449  1.0000
  H   H18       1.0  0.39860  0.18234  0.33433  1.0000
  C   C23       1.0  0.24272  0.43246  0.03001  1.0000
  C   C24       1.0  0.02961  0.43544  0.27073  1.0000
  C   C25       1.0  0.05603  0.45435  0.26268  1.0000
  C   C26       1.0  0.05082  0.46709  0.24424  1.0000
  C   C27       1.0  0.01933  0.46163  0.23418  1.0000
  C   C28       1.0  0.37739  0.28422  0.24729  1.0000
  H   H19       1.0  0.03330  0.42511  0.28476  1.0000
  H   H20       1.0  0.41342  0.00481  0.02895  1.0000
  H   H21       1.0  0.42173  0.36977  0.05375  1.0000
  C   C29       1.0  0.14184  0.38361  0.07429  1.0000
  H   H22       1.0  0.19016  0.22432  0.06363  1.0000
  H   H23       1.0  0.42744  0.28380  0.26115  1.0000
  C   C30       1.0  0.33835  0.23166  0.31429  1.0000
  H   H24       1.0  0.24276  0.43256  0.06103  1.0000
  Fe  Fe6       1.0  0.25421  0.42337  0.12927  1.0000
  S   S15       1.0  0.23232  0.44813  0.15526  1.0000
  H   H25       1.0  0.39882  0.37157  0.32542  1.0000
  H   H26       1.0  0.47733  0.04750  0.25351  1.0000
  C   C31       1.0  0.37476  0.18944  0.32727  1.0000
  C   C32       1.0  0.08231  0.34711  0.08229  1.0000
  H   H27       1.0  0.06808  0.38612  0.10109  1.0000
  C   C33       1.0  0.06424  0.49598  0.18676  1.0000
  C   C34       1.0  0.34941  0.27759  0.28414  1.0000
  H   H28       1.0  0.46968  0.27354  0.08839  1.0000
  H   H29       1.0  0.42445  0.32079  0.18700  1.0000
  C   C35       1.0  0.44967  0.36975  0.14198  1.0000
  C   C36       1.0  0.14337  0.45536  0.21500  1.0000
  C   C37       1.0  0.17038  0.43282  0.21563  1.0000
  C   C38       1.0  0.20437  0.44275  0.21103  1.0000
  P   P1        1.0  0.16231  0.39234  0.22401  1.0000
  C   C39       1.0  0.19311  0.36514  0.21301  1.0000
  C   C40       1.0  0.16682  0.39144  0.24975  1.0000
  C   C41       1.0  0.15128  0.36644  0.26027  1.0000
  C   C42       1.0  0.15469  0.36554  0.28019  1.0000
  C   C43       1.0  0.17367  0.38953  0.28972  1.0000
  C   C44       1.0  0.18922  0.41447  0.27939  1.0000
  C   C45       1.0  0.18587  0.41547  0.25946  1.0000
  C   C46       1.0  0.20216  0.36882  0.19367  1.0000
  C   C47       1.0  0.22610  0.34814  0.18509  1.0000
  C   C48       1.0  0.24137  0.32365  0.19576  1.0000
  C   C49       1.0  0.23263  0.31979  0.21502  1.0000
  C   C50       1.0  0.20854  0.34037  0.22363  1.0000
  C   C51       1.0  0.11841  0.38026  0.21770  1.0000
  C   C52       1.0  0.11168  0.36224  0.20102  1.0000
  C   C53       1.0  0.07760  0.35303  0.19634  1.0000
  H   H30       1.0  0.12670  0.30138  0.02251  1.0000
  C   C54       1.0  0.05640  0.38011  0.22467  1.0000
  C   C55       1.0  0.09044  0.38918  0.22947  1.0000
  H   H31       1.0  0.47808  0.22778  0.29273  1.0000
  C   C56       1.0  0.31298  0.20843  0.30957  1.0000
  H   H32       1.0  0.07121  0.48135  0.23775  1.0000
  H   H33       1.0  0.11707  0.44852  0.21877  1.0000
  H   H34       1.0  0.22581  0.42606  0.21177  1.0000
  H   H35       1.0  0.13640  0.34771  0.25307  1.0000
  H   H36       1.0  0.14230  0.34646  0.28828  1.0000
  H   H37       1.0  0.17615  0.38892  0.30516  1.0000
  H   H38       1.0  0.20355  0.43320  0.28691  1.0000
  H   H39       1.0  0.19793  0.43510  0.25175  1.0000
  H   H40       1.0  0.19077  0.38774  0.18517  1.0000
  H   H41       1.0  0.23297  0.35127  0.17015  1.0000
  H   H42       1.0  0.26021  0.30782  0.18912  1.0000
  H   H43       1.0  0.24468  0.30084  0.22325  1.0000
  H   H44       1.0  0.20222  0.33686  0.23854  1.0000
  H   H45       1.0  0.13241  0.35588  0.19131  1.0000
  C   C57       1.0  0.18254  0.34675  0.00997  1.0000
  C   C58       1.0  0.32930  0.01856  0.29598  1.0000
  C   C59       1.0  0.34722  0.11521  0.00767  1.0000
  H   H46       1.0  0.09482  0.40348  0.24228  1.0000
  C   C60       1.0  0.41499  0.22347  0.12426  1.0000
  H   H47       1.0  0.23205  0.34423  0.29574  1.0000
  C   C61       1.0  0.99829  0.42980  0.26061  1.0000
  C   C62       1.0  0.40171  0.02637  0.26871  1.0000
  C   C63       1.0  0.37226  0.03751  0.25893  1.0000
  H   H48       1.0  0.19936  0.28251  0.06826  1.0000
  P   P2        1.0  0.34535  0.06786  0.27009  1.0000
  C   C64       1.0  0.30908  0.07840  0.25482  1.0000
  C   C65       1.0  0.33010  0.05192  0.29268  1.0000
  C   C66       1.0  0.32062  0.07302  0.30751  1.0000
  C   C67       1.0  0.31173  0.06104  0.32554  1.0000
  H   H49       1.0  0.11213  0.48089  0.17363  1.0000
  H   H50       1.0  0.40871  0.03615  0.28257  1.0000
  H   H51       1.0  0.19477  0.33706  0.08858  1.0000
  C   C68       1.0  0.31485  0.08759  0.23573  1.0000
  C   C69       1.0  0.28696  0.09551  0.22385  1.0000
  C   C70       1.0  0.25299  0.09430  0.23087  1.0000
  C   C71       1.0  0.24691  0.08518  0.24982  1.0000
  C   C72       1.0  0.27480  0.07726  0.26177  1.0000
  C   C73       1.0  0.37215  0.10306  0.27518  1.0000
  C   C74       1.0  0.39396  0.10331  0.29137  1.0000
  C   C75       1.0  0.41470  0.13022  0.29558  1.0000
  C   C76       1.0  0.41428  0.15704  0.28361  1.0000
  C   C77       1.0  0.39269  0.15713  0.26754  1.0000
  C   C78       1.0  0.37154  0.13043  0.26338  1.0000
  H   H52       1.0  0.48247  0.15436  0.23731  1.0000
  H   H53       1.0  0.30136  0.36638  0.08368  1.0000
  C   C79       1.0  0.46714  0.05907  0.24090  1.0000
  C   C80       1.0  0.17654  0.24121  0.05458  1.0000
  C   C81       1.0  0.14357  0.38581  0.02402  1.0000
  H   H54       1.0  0.32094  0.09878  0.30527  1.0000
  C   C82       1.0  0.99581  0.49431  0.29935  1.0000
  C   C83       1.0  0.15019  0.48707  0.20938  1.0000
  H   H55       1.0  0.45180  0.33306  0.07580  1.0000
  C   C84       1.0  0.38276  0.02475  0.08044  1.0000
  H   H56       1.0  0.34099  0.08854  0.22992  1.0000
  H   H57       1.0  0.29185  0.10261  0.20915  1.0000
  H   H58       1.0  0.23143  0.10039  0.22159  1.0000
  H   H59       1.0  0.22052  0.08419  0.25523  1.0000
  H   H60       1.0  0.26941  0.07016  0.27635  1.0000
  H   H61       1.0  0.39471  0.08288  0.30094  1.0000
  H   H62       1.0  0.43077  0.13035  0.30827  1.0000
  H   H63       1.0  0.43045  0.17794  0.28677  1.0000
  H   H64       1.0  0.39236  0.17806  0.25830  1.0000
  H   H65       1.0  0.35507  0.13164  0.25089  1.0000
  H   H66       1.0  0.06776  0.48120  0.19933  1.0000
  C   C85       1.0  0.37730  0.03097  0.04619  1.0000
  H   H67       1.0  0.00322  0.47475  0.30868  1.0000
  H   H68       1.0  0.38370  0.36357  0.12145  1.0000
  H   H69       1.0  0.10273  0.31214  0.06277  1.0000
  H   H70       1.0  0.46200  0.02177  0.30240  1.0000
  H   H71       1.0  0.12081  0.41885  0.09356  1.0000
  C   C86       1.0  0.08722  0.37711  0.09107  1.0000
  H   H72       1.0  0.32172  0.12445  0.01121  1.0000
  C   C87       1.0  0.38608  0.38728  0.07506  1.0000
  H   H73       1.0  0.16485  0.39795  0.07138  1.0000
  C   C88       1.0  0.13714  0.35360  0.06538  1.0000
  C   C89       1.0  0.27268  0.36378  0.05710  1.0000
  P   P3        1.0  0.33221  0.27333  0.30801  1.0000
  S   S16       1.0  0.07166  0.47680  0.32835  1.0000
  H   H74       1.0  0.43280  0.02597  0.15002  1.0000
  C   C90       1.0  0.38251  0.27894  0.11083  1.0000
  H   H75       1.0  0.30562  0.07746  0.33716  1.0000
  C   C91       1.0  0.21197  0.34748  0.05968  1.0000
  S   S17       1.0  0.48924  0.20335  0.15437  1.0000
  S   S18       1.0  0.25509  0.46920  0.11174  1.0000
  C   C92       1.0  0.42276  0.06829  0.13373  1.0000
  C   C93       1.0  0.18172  0.27432  0.05715  1.0000
  C   C94       1.0  0.37093  0.10836  0.02226  1.0000
  H   H76       1.0  0.35258  0.14168  0.32713  1.0000
  C   C95       1.0  0.43661  0.05176  0.14932  1.0000
  C   C96       1.0  0.42779  0.10151  0.13210  1.0000
  C   C97       1.0  0.43319  0.31907  0.15657  1.0000
  H   H77       1.0  0.39042  0.23898  0.32543  1.0000
  C   C98       1.0  0.24859  0.35073  0.08807  1.0000
  C   C99       1.0  0.22891  0.43951  0.04822  1.0000
  C   C100      1.0  0.27511  0.31221  0.30034  1.0000
  H   H78       1.0  0.03491  0.38734  0.23368  1.0000
  H   H79       1.0  0.14971  0.20423  0.03849  1.0000
  C   C101      1.0  0.04996  0.36208  0.20810  1.0000
  C   C102      1.0  0.19348  0.45754  0.01479  1.0000
  H   H80       1.0  0.29431  0.37205  0.04846  1.0000
  H   H81       1.0  0.23780  0.36061  0.03323  1.0000
  Fe  Fe7       1.0  0.20158  0.45456  0.10186  1.0000
  P   P4        1.0  0.44117  0.31823  0.11669  1.0000
  H   H82       1.0  0.33949  0.02934  0.23389  1.0000
  H   H83       1.0  0.45435  0.41029  0.16118  1.0000
  H   H84       1.0  0.41646  0.11433  0.12019  1.0000
  C   C103      1.0  0.16409  0.29638  0.04554  1.0000
  C   C104      1.0  0.43067  0.34759  0.08114  1.0000
  H   H85       1.0  0.25163  0.34870  0.10345  1.0000
  H   H86       1.0  0.40748  0.05536  0.12311  1.0000
  C   C105      1.0  0.48431  0.03362  0.29604  1.0000
  C   C106      1.0  0.37557  0.38544  0.09415  1.0000
  H   H87       1.0  0.19954  0.32621  0.01124  1.0000
  C   C107      1.0  0.46371  0.00539  0.18380  1.0000
  H   H88       1.0  0.32169  0.00043  0.02079  1.0000
  C   C108      1.0  0.36603  0.03828  0.06470  1.0000
  C   C109      1.0  0.28745  0.28548  0.31046  1.0000
  P   P5        1.0  0.47556  0.04743  0.18312  1.0000
  C   C110      1.0  0.46301  0.06254  0.20629  1.0000
  C   C111      1.0  0.45528  0.06850  0.16357  1.0000
  C   C112      1.0  0.46096  0.10177  0.16157  1.0000
  C   C113      1.0  0.44698  0.11823  0.14599  1.0000
  H   H89       1.0  0.42759  0.20205  0.12961  1.0000
  H   H90       1.0  0.35414  0.40000  0.09928  1.0000
  H   H91       1.0  0.34414  0.05413  0.06694  1.0000
  C   C114      1.0  0.44002  0.08837  0.20825  1.0000
  C   C115      1.0  0.43099  0.09966  0.22645  1.0000
  C   C116      1.0  0.44465  0.08511  0.24275  1.0000
  S   S19       1.0  0.17458  0.48044  0.12599  1.0000
  C   C117      1.0  0.47597  0.04754  0.22276  1.0000
  C   C118      1.0  0.35507  0.29980  0.32434  1.0000
  H   H92       1.0  0.11816  0.24294  0.01796  1.0000
  C   C119      1.0  0.40368  0.09613  0.01772  1.0000
  H   H93       1.0  0.45997  0.25343  0.12893  1.0000
  C   C120      1.0  0.36971  0.32883  0.31782  1.0000
  H   H94       1.0  0.37395  0.03033  0.09479  1.0000
  C   C121      1.0  0.48519  0.31008  0.10900  1.0000
  C   C122      1.0  0.49119  0.28663  0.09485  1.0000
  C   C123      1.0  0.41014  0.00328  0.07772  1.0000
  H   H95       1.0  0.42190  0.09058  0.02908  1.0000
  C   C124      1.0  0.31809  0.17607  0.31421  1.0000
  H   H96       1.0  0.36591  0.19956  0.11919  1.0000
  H   H97       1.0  0.01548  0.47178  0.22015  1.0000
  C   C125      1.0  0.17958  0.46451  0.03301  1.0000
  H   H98       1.0  0.42870  0.09968  0.19585  1.0000
  H   H99       1.0  0.41334  0.11974  0.22782  1.0000
  H   H100      1.0  0.43787  0.09401  0.25681  1.0000
  Fe  Fe8       1.0  0.22779  0.49231  0.13686  1.0000
  C   C126      1.0  0.41360  0.36834  0.06856  1.0000
  C   C127      1.0  0.44862  0.38481  0.15990  1.0000
  C   C128      1.0  0.32740  0.27775  0.26807  1.0000
  H   H101      1.0  0.47615  0.11506  0.17207  1.0000
  C   C129      1.0  0.43330  0.25267  0.12385  1.0000
  C   C130      1.0  0.15372  0.22990  0.04044  1.0000
  H   H102      1.0  0.45630  0.38390  0.12950  1.0000
  C   C131      1.0  0.41719  0.28065  0.11713  1.0000
  H   H103      1.0  0.37287  0.40340  0.06535  1.0000
  C   C132      1.0  0.21635  0.34425  0.07956  1.0000
  H   H104      1.0  0.36381  0.11231  0.03710  1.0000
  H   H105      1.0  0.42669  0.29371  0.15568  1.0000
  C   C133      1.0  0.13595  0.25169  0.02888  1.0000
  H   H106      1.0  0.26732  0.42020  0.02890  1.0000
  H   H107      1.0  0.28919  0.21534  0.30242  1.0000
  C   C134      1.0  0.36981  0.22173  0.32249  1.0000
  H   H108      1.0  0.40318  0.27769  0.29359  1.0000
  Fe  Fe9       1.0  0.45183  0.21503  0.17834  1.0000
  C   C135      1.0  0.38560  0.27925  0.28149  1.0000
  H   H109      1.0  0.36950  0.30002  0.10545  1.0000
  S   S20       1.0  0.17811  0.46418  0.07237  1.0000
  H   H110      1.0  0.32459  0.28169  0.23723  1.0000
  C   C136      1.0  0.34882  0.16663  0.32325  1.0000
  C   C137      1.0  0.34141  0.28139  0.24971  1.0000
  C   C138      1.0  0.11691  0.39543  0.08696  1.0000
  H   H111      1.0  0.05928  0.33297  0.08553  1.0000
  H   H112      1.0  0.29811  0.15837  0.31093  1.0000
  C   C139      1.0  0.38028  0.22208  0.11835  1.0000
  H   H113      1.0  0.29955  0.27482  0.26963  1.0000
  C   C140      1.0  0.39253  0.36475  0.10675  1.0000
  C   C141      1.0  0.19716  0.45546  0.04981  1.0000
  H   H114      1.0  0.36406  0.04112  0.03397  1.0000
  C   C142      1.0  0.10710  0.33537  0.06941  1.0000
  C   C143      1.0  0.44176  0.33678  0.14015  1.0000
  H   H115      1.0  0.36777  0.33555  0.30291  1.0000
  C   C144      1.0  0.21099  0.47437  0.20527  1.0000
  C   C145      1.0  0.42046  0.34586  0.10040  1.0000
  H   H116      1.0  0.07254  0.33982  0.18321  1.0000
  P   P6        1.0  0.16989  0.33921  0.04901  1.0000
  C   C146      1.0  0.16512  0.35887  0.02609  1.0000
  C   C147      1.0  0.14100  0.28482  0.03145  1.0000
  C   C148      1.0  0.42173  0.00161  0.26097  1.0000
  C   C149      1.0  0.40500  0.00983  0.04341  1.0000
  H   H117      1.0  0.23707  0.48154  0.20126  1.0000
  C   C150      1.0  0.26592  0.27088  0.32420  1.0000
  C   C151      1.0  0.24126  0.32328  0.30334  1.0000
  H   H118      1.0  0.15508  0.47698  0.03410  1.0000
  S   S21       1.0  0.42168  0.04371  0.33372  1.0000
  C   C152      1.0  0.43202  0.33430  0.17444  1.0000
  H   H119      1.0  0.13042  0.39630  0.03617  1.0000
  C   C153      1.0  0.36405  0.24981  0.11161  1.0000
  H   H120      1.0  0.19386  0.31728  0.31942  1.0000
  H   H121      1.0  0.43819  0.37877  0.18998  1.0000
  H   H122      1.0  0.40832  0.01473  0.18371  1.0000
  C   C154      1.0  0.31177  0.02788  0.32883  1.0000
  C   C155      1.0  0.36289  0.02283  0.24144  1.0000
  H   H123      1.0  0.48443  0.14302  0.32223  1.0000
  C   C156      1.0  0.38709  0.34947  0.33056  1.0000
  C   C157      1.0  0.32035  0.00664  0.31404  1.0000
  Fe  Fe10      1.0  0.14872  0.42045  0.33920  1.0000
  C   C158      1.0  0.22494  0.44107  0.01321  1.0000
  H   H124      1.0  0.47038  0.08034  0.30649  1.0000
  C   C159      1.0  0.08909  0.49556  0.17222  1.0000
  C   C160      1.0  0.48905  0.06671  0.29826  1.0000
  C   C161      1.0  0.21968  0.30805  0.31665  1.0000
  C   C162      1.0  0.18392  0.49652  0.20443  1.0000
  C   C163      1.0  0.23202  0.28187  0.32707  1.0000
  H   H125      1.0  0.49285  0.02686  0.22153  1.0000
  H   H126      1.0  0.27553  0.25168  0.33318  1.0000
  H   H127      1.0  0.33634  0.00165  0.28483  1.0000
  H   H128      1.0  0.21582  0.27091  0.33798  1.0000
  C   C164      1.0  0.38345  0.99849  0.23359  1.0000
  H   H129      1.0  0.30992  0.00328  0.62781  1.0000
  C   C165      1.0  0.34927  0.09238  0.66193  1.0000
  H   H130      1.0  0.26640  0.36365  0.34998  1.0000
  S   S22       1.0  0.05573  0.43717  0.63975  1.0000
  H   H131      1.0  0.07770  0.45369  0.41242  1.0000
  H   H132      1.0  0.41963  0.18113  0.60995  1.0000
  S   S23       1.0  0.14813  0.45657  0.65645  1.0000
  C   C166      1.0  0.01247  0.43290  0.64740  1.0000
  Fe  Fe11      1.0  0.29477  0.23805  0.60763  1.0000
  S   S24       1.0  0.32527  0.26288  0.58447  1.0000
  S   S25       1.0  0.24747  0.26071  0.62242  1.0000
  Fe  Fe12      1.0  0.33387  0.17334  0.60156  1.0000
  S   S26       1.0  0.36631  0.19450  0.57787  1.0000
  S   S27       1.0  0.34477  0.11964  0.60583  1.0000
  Fe  Fe13      1.0  0.37141  0.23741  0.59734  1.0000
  S   S28       1.0  0.42454  0.26113  0.60062  1.0000
  Fe  Fe14      1.0  0.31758  0.21760  0.56700  1.0000
  S   S29       1.0  0.29515  0.21375  0.53666  1.0000
  S   S30       1.0  0.34147  0.21532  0.62170  1.0000
  S   S31       1.0  0.28442  0.19377  0.58949  1.0000
  H   H133      1.0  0.18651  0.46941  0.42470  1.0000
  C   C167      1.0  0.39681  0.09809  0.35132  1.0000
  C   C168      1.0  0.28334  0.22089  0.66321  1.0000
  H   H134      1.0  0.14608  0.22322  0.45976  1.0000
  C   C169      1.0  0.22143  0.26089  0.51022  1.0000
  S   S32       1.0  0.01721  0.41197  0.35183  1.0000
  S   S33       1.0  0.11724  0.44390  0.36275  1.0000
  H   H135      1.0  0.30565  0.01868  0.34292  1.0000
  Fe  Fe15      1.0  0.29849  0.24123  0.39403  1.0000
  S   S34       1.0  0.34751  0.26624  0.40401  1.0000
  S   S35       1.0  0.24575  0.26561  0.38870  1.0000
  Fe  Fe16      1.0  0.33259  0.17397  0.39743  1.0000
  S   S36       1.0  0.38293  0.19458  0.40834  1.0000
  S   S37       1.0  0.32740  0.11963  0.39357  1.0000
  Fe  Fe17      1.0  0.35035  0.22748  0.42654  1.0000
  S   S38       1.0  0.36902  0.24150  0.45653  1.0000
  Fe  Fe18      1.0  0.37548  0.23091  0.38523  1.0000
  S   S39       1.0  0.41741  0.24114  0.36365  1.0000
  S   S40       1.0  0.30008  0.20394  0.41760  1.0000
  S   S41       1.0  0.32643  0.20881  0.37326  1.0000
  C   C170      1.0  0.37620  0.11530  0.36446  1.0000
  C   C171      1.0  0.35422  0.09882  0.37708  1.0000
  H   H136      1.0  0.37698  0.14133  0.36471  1.0000
  C   C172      1.0  0.28305  0.29543  0.43419  1.0000
  C   C173      1.0  0.46021  0.24705  0.37184  1.0000
  C   C174      1.0  0.46803  0.24882  0.39139  1.0000
  C   C175      1.0  0.13250  0.45710  0.41910  1.0000
  C   C176      1.0  0.30985  0.30504  0.44651  1.0000
  H   H137      1.0  0.43085  0.08218  0.64296  1.0000
  H   H138      1.0  0.17200  0.33811  0.65558  1.0000
  H   H139      1.0  0.44746  0.24645  0.40186  1.0000
  C   C177      1.0  0.44489  0.06509  0.58993  1.0000
  C   C178      1.0  0.36739  0.04711  0.64264  1.0000
  C   C179      1.0  0.01676  0.43942  0.38782  1.0000
  C   C180      1.0  0.21189  0.35745  0.35648  1.0000
  C   C181      1.0  0.24729  0.34887  0.35724  1.0000
  C   C182      1.0  0.25826  0.32116  0.36717  1.0000
  C   C183      1.0  0.23387  0.30151  0.37645  1.0000
  C   C184      1.0  0.19851  0.31017  0.37576  1.0000
  C   C185      1.0  0.18755  0.33785  0.36581  1.0000
  H   H140      1.0  0.46968  0.17401  0.35445  1.0000
  H   H141      1.0  0.28549  0.31478  0.36740  1.0000
  H   H142      1.0  0.17938  0.29511  0.38280  1.0000
  H   H143      1.0  0.16026  0.34379  0.36518  1.0000
  C   C186      1.0  0.42911  0.00656  0.60759  1.0000
  P   P7        1.0  0.49218  0.08454  0.61807  1.0000
  C   C187      1.0  0.30634  0.30067  0.46621  1.0000
  C   C188      1.0  0.21600  0.27195  0.52888  1.0000
  H   H144      1.0  0.09816  0.23566  0.43755  1.0000
  C   C189      1.0  0.31725  0.22002  0.51465  1.0000
  C   C190      1.0  0.30200  0.20862  0.49755  1.0000
  C   C191      1.0  0.31771  0.21458  0.47967  1.0000
  C   C192      1.0  0.34875  0.23225  0.47869  1.0000
  C   C193      1.0  0.36408  0.24352  0.49578  1.0000
  C   C194      1.0  0.34856  0.23731  0.51367  1.0000
  H   H145      1.0  0.27791  0.19504  0.49813  1.0000
  H   H146      1.0  0.30576  0.20572  0.46665  1.0000
  H   H147      1.0  0.38795  0.25744  0.49518  1.0000
  H   H148      1.0  0.36047  0.24638  0.52668  1.0000
  C   C195      1.0  0.48037  0.25129  0.65827  1.0000
  C   C196      1.0  0.34488  0.11103  0.64527  1.0000
  C   C197      1.0  0.35133  0.09773  0.62725  1.0000
  C   C198      1.0  0.45193  0.02577  0.38584  1.0000
  H   H149      1.0  0.33586  0.13547  0.64617  1.0000
  C   C199      1.0  0.44647  0.25627  0.62262  1.0000
  C   C200      1.0  0.43145  0.23846  0.63741  1.0000
  C   C201      1.0  0.44818  0.23614  0.65514  1.0000
  C   C202      1.0  0.45847  0.05880  0.38462  1.0000
  C   C203      1.0  0.19118  0.29560  0.53244  1.0000
  C   C204      1.0  0.17185  0.30827  0.51730  1.0000
  H   H150      1.0  0.40663  0.22689  0.63537  1.0000
  C   C205      1.0  0.25078  0.47331  0.57035  1.0000
  H   H151      1.0  0.01627  0.45734  0.41694  1.0000
  H   H152      1.0  0.43961  0.07577  0.39010  1.0000
  C   C206      1.0  0.22484  0.35549  0.65503  1.0000
  C   C207      1.0  0.25879  0.34884  0.64862  1.0000
  C   C208      1.0  0.26618  0.32037  0.63832  1.0000
  C   C209      1.0  0.23972  0.29790  0.63450  1.0000
  C   C210      1.0  0.20573  0.30474  0.64073  1.0000
  C   C211      1.0  0.19824  0.33341  0.65080  1.0000
  H   H153      1.0  0.23745  0.40672  0.38226  1.0000
  H   H154      1.0  0.29230  0.31581  0.63338  1.0000
  H   H155      1.0  0.18499  0.28763  0.63783  1.0000
  H   H156      1.0  0.10329  0.48853  0.63052  1.0000
  H   H157      1.0  0.16216  0.30739  0.48705  1.0000
  C   C212      1.0  0.37391  0.04776  0.36336  1.0000
  C   C213      1.0  0.41458  0.32753  0.63719  1.0000
  C   C214      1.0  0.35320  0.06497  0.37646  1.0000
  C   C215      1.0  0.21505  0.21578  0.47066  1.0000
  H   H158      1.0  0.24389  0.21504  0.44412  1.0000
  H   H159      1.0  0.48102  0.24856  0.34324  1.0000
  H   H160      1.0  0.45044  0.08760  0.58279  1.0000
  C   C216      1.0  0.20549  0.16325  0.48505  1.0000
  C   C217      1.0  0.47619  0.00396  0.37871  1.0000
  C   C218      1.0  0.46077  0.05736  0.60744  1.0000
  Fe  Fe19      1.0  0.07103  0.43046  0.34434  1.0000
  H   H161      1.0  0.01613  0.39117  0.58898  1.0000
  C   C219      1.0  0.42135  0.04372  0.58137  1.0000
  H   H162      1.0  0.45514  0.20345  0.58359  1.0000
  C   C220      1.0  0.17729  0.29725  0.49857  1.0000
  C   C221      1.0  0.37414  0.31313  0.35659  1.0000
  C   C222      1.0  0.14602  0.24622  0.45253  1.0000
  H   H163      1.0  0.01689  0.37359  0.41615  1.0000
  C   C223      1.0  0.48698  0.24993  0.35836  1.0000
  H   H164      1.0  0.24091  0.24263  0.50782  1.0000
  H   H165      1.0  0.18699  0.30401  0.54696  1.0000
  H   H166      1.0  0.37445  0.30734  0.61915  1.0000
  H   H167      1.0  0.43587  0.22283  0.66655  1.0000
  C   C224      1.0  0.24978  0.46845  0.65996  1.0000
  C   C225      1.0  0.35663  0.29250  0.34390  1.0000
  C   C226      1.0  0.30162  0.43773  0.65325  1.0000
  C   C227      1.0  0.28985  0.43208  0.63456  1.0000
  C   C228      1.0  0.25770  0.44432  0.62854  1.0000
  C   C229      1.0  0.23791  0.46268  0.64133  1.0000
  P   P8        1.0  0.24268  0.43870  0.60425  1.0000
  C   C230      1.0  0.48709  0.08521  0.64388  1.0000
  C   C231      1.0  0.26473  0.40429  0.59406  1.0000
  C   C232      1.0  0.29570  0.40873  0.58368  1.0000
  C   C233      1.0  0.31342  0.38225  0.57619  1.0000
  C   C234      1.0  0.30070  0.35110  0.57923  1.0000
  C   C235      1.0  0.27043  0.34636  0.58992  1.0000
  C   C236      1.0  0.25252  0.37279  0.59734  1.0000
  H   H168      1.0  0.14209  0.45272  0.49310  1.0000
  H   H169      1.0  0.29044  0.17037  0.65792  1.0000
  H   H170      1.0  0.34492  0.27059  0.34936  1.0000
  H   H171      1.0  0.45505  0.14233  0.44744  1.0000
  C   C237      1.0  0.00146  0.44547  0.40576  1.0000
  C   C238      1.0  0.19617  0.43128  0.60477  1.0000
  C   C239      1.0  0.18200  0.41030  0.61843  1.0000
  C   C240      1.0  0.14617  0.40441  0.61908  1.0000
  C   C241      1.0  0.12400  0.42000  0.60635  1.0000
  C   C242      1.0  0.13768  0.44141  0.59291  1.0000
  C   C243      1.0  0.17362  0.44701  0.59206  1.0000
  C   C244      1.0  0.45264  0.02796  0.61626  1.0000
  H   H172      1.0  0.30573  0.41792  0.62499  1.0000
  C   C245      1.0  0.30179  0.19214  0.66395  1.0000
  H   H173      1.0  0.30651  0.43260  0.58158  1.0000
  H   H174      1.0  0.33724  0.38579  0.56817  1.0000
  H   H175      1.0  0.31453  0.33061  0.57347  1.0000
  H   H176      1.0  0.26104  0.32209  0.59270  1.0000
  H   H177      1.0  0.22961  0.36824  0.60587  1.0000
  H   H178      1.0  0.24546  0.45076  0.56302  1.0000
  C   C246      1.0  0.38330  0.31117  0.63374  1.0000
  H   H179      1.0  0.23397  0.48216  0.66986  1.0000
  C   C247      1.0  0.25179  0.47457  0.59044  1.0000
  H   H180      1.0  0.34066  0.00346  0.59984  1.0000
  H   H181      1.0  0.19862  0.39875  0.62878  1.0000
  H   H182      1.0  0.13548  0.38839  0.62984  1.0000
  H   H183      1.0  0.09615  0.41583  0.60717  1.0000
  H   H184      1.0  0.12032  0.45385  0.58327  1.0000
  H   H185      1.0  0.18343  0.46389  0.58163  1.0000
  C   C248      1.0  0.04324  0.37413  0.41060  1.0000
  C   C249      1.0  0.05023  0.36088  0.39263  1.0000
  C   C250      1.0  0.08377  0.36287  0.38504  1.0000
  C   C251      1.0  0.11034  0.37828  0.39537  1.0000
  C   C252      1.0  0.10355  0.39189  0.41340  1.0000
  C   C253      1.0  0.06965  0.38984  0.42088  1.0000
  P   P9        1.0  0.13662  0.41531  0.42578  1.0000
  C   C254      1.0  0.13132  0.41094  0.45134  1.0000
  C   C255      1.0  0.17940  0.40147  0.41903  1.0000
  C   C256      1.0  0.19860  0.38147  0.43121  1.0000
  C   C257      1.0  0.23128  0.37025  0.42562  1.0000
  C   C258      1.0  0.24520  0.37918  0.40795  1.0000
  C   C259      1.0  0.22670  0.39977  0.39600  1.0000
  C   C260      1.0  0.19386  0.41072  0.40141  1.0000
  C   C261      1.0  0.13948  0.43654  0.46378  1.0000
  C   C262      1.0  0.13592  0.43281  0.48357  1.0000
  C   C263      1.0  0.12431  0.40351  0.49108  1.0000
  C   C264      1.0  0.11633  0.37784  0.47880  1.0000
  C   C265      1.0  0.11989  0.38149  0.45902  1.0000
  C   C266      1.0  0.10043  0.46901  0.41281  1.0000
  H   H186      1.0  0.19487  0.14865  0.49649  1.0000
  C   C267      1.0  0.39568  0.06427  0.35067  1.0000
  H   H187      1.0  0.06319  0.40135  0.43434  1.0000
  C   C268      1.0  0.45291  0.14034  0.61445  1.0000
  C   C269      1.0  0.48016  0.16882  0.36849  1.0000
  H   H188      1.0  0.08889  0.35337  0.37086  1.0000
  H   H189      1.0  0.13577  0.38026  0.38890  1.0000
  H   H190      1.0  0.40891  0.05005  0.56799  1.0000
  H   H191      1.0  0.18847  0.37436  0.44498  1.0000
  H   H192      1.0  0.24585  0.35452  0.43494  1.0000
  H   H193      1.0  0.46466  0.02135  0.62972  1.0000
  C   C270      1.0  0.22446  0.14880  0.47033  1.0000
  C   C271      1.0  0.31142  0.03190  0.58012  1.0000
  C   C272      1.0  0.41371  0.01440  0.59010  1.0000
  H   H194      1.0  0.14861  0.45939  0.45826  1.0000
  H   H195      1.0  0.12137  0.40073  0.50642  1.0000
  H   H196      1.0  0.10716  0.35516  0.48460  1.0000
  H   H197      1.0  0.11359  0.36135  0.44974  1.0000
  H   H198      1.0  0.17963  0.42604  0.39167  1.0000
  C   C273      1.0  0.20206  0.27334  0.49491  1.0000
  H   H199      1.0  0.32872  0.05264  0.58135  1.0000
  H   H200      1.0  0.25278  0.15648  0.44412  1.0000
  C   C274      1.0  0.48906  0.06996  0.37604  1.0000
  H   H201      1.0  0.28579  0.29846  0.41888  1.0000
  C   C275      1.0  0.44307  0.16886  0.60548  1.0000
  H   H202      1.0  0.25792  0.22145  0.65644  1.0000
  H   H203      1.0  0.19249  0.31593  0.44814  1.0000
  C   C276      1.0  0.46303  0.18137  0.59054  1.0000
  H   H204      1.0  0.49255  0.25290  0.46545  1.0000
  C   C277      1.0  0.28203  0.03344  0.56841  1.0000
  H   H205      1.0  0.27021  0.36998  0.40342  1.0000
  H   H206      1.0  0.23120  0.26204  0.54054  1.0000
  H   H207      1.0  0.02936  0.35008  0.38426  1.0000
  C   C278      1.0  0.42649  0.33176  0.65595  1.0000
  Fe  Fe20      1.0  0.09450  0.43901  0.66393  1.0000
  C   C279      1.0  0.37610  0.30238  0.66786  1.0000
  C   C280      1.0  0.36049  0.06027  0.66068  1.0000
  H   H208      1.0  0.33623  0.05207  0.38615  1.0000
  C   C281      1.0  0.48492  0.22847  0.46182  1.0000
  H   H209      1.0  0.33387  0.31481  0.44076  1.0000
  C   C282      1.0  0.45368  0.08421  0.65198  1.0000
  H   H210      1.0  0.00003  0.49474  0.35062  1.0000
  H   H211      1.0  0.23634  0.00844  0.55816  1.0000
  H   H212      1.0  0.29843  0.01581  0.66130  1.0000
  H   H213      1.0  0.22860  0.12303  0.47033  1.0000
  H   H214      1.0  0.37290  0.02176  0.36296  1.0000
  H   H215      1.0  0.42798  0.01708  0.39220  1.0000
  H   H216      1.0  0.23324  0.27262  0.43154  1.0000
  H   H217      1.0  0.37644  0.30666  0.37153  1.0000
  P   P10       1.0  0.20952  0.25895  0.47080  1.0000
  H   H218      1.0  0.36793  0.05535  0.61218  1.0000
  C   C283      1.0  0.36267  0.06573  0.62605  1.0000
  C   C284      1.0  0.45768  0.16173  0.38354  1.0000
  C   C285      1.0  0.24888  0.27705  0.46135  1.0000
  C   C286      1.0  0.20053  0.19657  0.48516  1.0000
  H   H219      1.0  0.37630  0.02260  0.64142  1.0000
  H   H220      1.0  0.43616  0.13066  0.62546  1.0000
  C   C287      1.0  0.47085  0.15705  0.40197  1.0000
  C   C288      1.0  0.25298  0.28102  0.44151  1.0000
  C   C289      1.0  0.40712  0.31960  0.67127  1.0000
  H   H221      1.0  0.15262  0.32659  0.52011  1.0000
  H   H222      1.0  0.18554  0.20720  0.49662  1.0000
  H   H223      1.0  0.09784  0.28745  0.41996  1.0000
  C   C290      1.0  0.48305  0.12407  0.60861  1.0000
  Fe  Fe21      1.0  0.12057  0.48863  0.34464  1.0000
  C   C291      1.0  0.29816  0.24926  0.67044  1.0000
  C   C292      1.0  0.33528  0.19183  0.67177  1.0000
  C   C293      1.0  0.47916  0.27092  0.62556  1.0000
  C   C294      1.0  0.45286  0.21643  0.46798  1.0000
  C   C295      1.0  0.44236  0.18534  0.46282  1.0000
  S   S42       1.0  0.19982  0.39296  0.34383  1.0000
  C   C296      1.0  0.23323  0.20093  0.45569  1.0000
  C   C297      1.0  0.23812  0.16762  0.45559  1.0000
  H   H224      1.0  0.34049  0.28526  0.64587  1.0000
  S   S43       1.0  0.21721  0.39139  0.66844  1.0000
  H   H225      1.0  0.32779  0.30679  0.47567  1.0000
  C   C298      1.0  0.27601  0.28679  0.47364  1.0000
  H   H226      1.0  0.42989  0.16089  0.38102  1.0000
  C   C299      1.0  0.00478  0.42167  0.66575  1.0000
  C   C300      1.0  0.46404  0.16612  0.45159  1.0000
  C   C301      1.0  0.38955  0.34148  0.34992  1.0000
  H   H227      1.0  0.45273  0.15204  0.41339  1.0000
  H   H228      1.0  0.04343  0.44632  0.38507  1.0000
  H   H229      1.0  0.42997  0.33615  0.62526  1.0000
  H   H230      1.0  0.14536  0.32723  0.42507  1.0000
  C   C302      1.0  0.16150  0.47790  0.41977  1.0000
  H   H231      1.0  0.27457  0.28289  0.48889  1.0000
  C   C303      1.0  0.17202  0.29830  0.44596  1.0000
  H   H232      1.0  0.32612  0.42777  0.65793  1.0000
  H   H233      1.0  0.43566  0.23148  0.47634  1.0000
  H   H234      1.0  0.41687  0.17662  0.46713  1.0000
  C   C304      1.0  0.17325  0.26848  0.45534  1.0000
  C   C305      1.0  0.14517  0.30493  0.43307  1.0000
  H   H235      1.0  0.27953  0.36585  0.65161  1.0000
  C   C306      1.0  0.28157  0.45587  0.66595  1.0000
  H   H236      1.0  0.45106  0.34394  0.65860  1.0000
  C   C307      1.0  0.36423  0.29846  0.64897  1.0000
  H   H237      1.0  0.21327  0.47251  0.63685  1.0000
  H   H238      1.0  0.27679  0.05522  0.56042  1.0000
  C   C308      1.0  0.11876  0.25320  0.43994  1.0000
  C   C309      1.0  0.11850  0.28241  0.43008  1.0000
  H   H239      1.0  0.28388  0.27148  0.66888  1.0000
  H   H240      1.0  0.01279  0.44441  0.57353  1.0000
  H   H241      1.0  0.00950  0.49428  0.59824  1.0000
  H   H242      1.0  0.49106  0.09364  0.34114  1.0000
  C   C310      1.0  0.31797  0.00408  0.59067  1.0000
  H   H243      1.0  0.49402  0.09563  0.37562  1.0000
  C   C311      1.0  0.25921  0.00712  0.56721  1.0000
  H   H244      1.0  0.40351  0.35713  0.35977  1.0000
  C   C312      1.0  0.44941  0.08579  0.67184  1.0000
  H   H245      1.0  0.41370  0.11107  0.34165  1.0000
  H   H246      1.0  0.35004  0.16981  0.67171  1.0000
  H   H247      1.0  0.49098  0.28472  0.61417  1.0000
  C   C313      1.0  0.99783  0.42318  0.37365  1.0000
  C   C314      1.0  0.49281  0.16525  0.58447  1.0000
  H   H248      1.0  0.25771  0.28113  0.84873  1.0000
  H   H249      1.0  0.01032  0.38838  0.88636  1.0000
  H   H250      1.0  0.03893  0.44530  0.93840  1.0000
  S   S44       1.0  0.03755  0.40248  0.84843  1.0000
  H   H251      1.0  0.29363  0.38660  0.94432  1.0000
  H   H252      1.0  0.28607  0.27780  0.70872  1.0000
  H   H253      1.0  0.34045  0.36065  0.92618  1.0000
  Fe  Fe22      1.0  0.11024  0.43389  0.70619  1.0000
  S   S45       1.0  0.09378  0.42381  0.73703  1.0000
  S   S46       1.0  0.44362  0.21982  0.80410  1.0000
  S   S47       1.0  0.10818  0.40791  0.93032  1.0000
  S   S48       1.0  0.28312  0.39948  0.90079  1.0000
  S   S49       1.0  0.20826  0.39643  0.94228  1.0000
  P   P11       1.0  0.48964  0.04125  0.81787  1.0000
  C   C315      1.0  0.36050  0.27868  0.92352  1.0000
  C   C316      1.0  0.02820  0.45360  0.95187  1.0000
  C   C317      1.0  0.45946  0.13222  0.80396  1.0000
  C   C318      1.0  0.46755  0.07941  0.81811  1.0000
  H   H254      1.0  0.44990  0.16479  0.90976  1.0000
  Fe  Fe23      1.0  0.45251  0.23616  0.87703  1.0000
  Fe  Fe24      1.0  0.37619  0.23717  0.86583  1.0000
  S   S50       1.0  0.38288  0.19496  0.84557  1.0000
  S   S51       1.0  0.32213  0.25755  0.87210  1.0000
  Fe  Fe25      1.0  0.41577  0.17254  0.86847  1.0000
  S   S52       1.0  0.42580  0.12137  0.87836  1.0000
  Fe  Fe26      1.0  0.43225  0.22026  0.83613  1.0000
  S   S53       1.0  0.40531  0.21233  0.88940  1.0000
  H   H255      1.0  0.38189  0.28978  0.75646  1.0000
  S   S54       1.0  0.24295  0.43016  0.99072  1.0000
  C   C319      1.0  0.26618  0.13800  0.71821  1.0000
  C   C320      1.0  0.40626  0.37784  0.91256  1.0000
  C   C321      1.0  0.11507  0.33091  0.87738  1.0000
  H   H256      1.0  0.34884  0.29763  0.91518  1.0000
  C   C322      1.0  0.35223  0.03551  0.88744  1.0000
  C   C323      1.0  0.34065  0.06236  0.87710  1.0000
  C   C324      1.0  0.36232  0.08956  0.87471  1.0000
  C   C325      1.0  0.39596  0.08966  0.88233  1.0000
  C   C326      1.0  0.40738  0.06294  0.89273  1.0000
  C   C327      1.0  0.38557  0.03608  0.89544  1.0000
  H   H257      1.0  0.31483  0.06205  0.87091  1.0000
  H   H258      1.0  0.35326  0.11009  0.86671  1.0000
  H   H259      1.0  0.43338  0.06299  0.89861  1.0000
  H   H260      1.0  0.39479  0.01553  0.90336  1.0000
  H   H261      1.0  0.30699  0.12912  0.91629  1.0000
  C   C328      1.0  0.29354  0.35947  0.89361  1.0000
  C   C329      1.0  0.32553  0.35402  0.88440  1.0000
  C   C330      1.0  0.33508  0.32292  0.87825  1.0000
  C   C331      1.0  0.31241  0.29682  0.88092  1.0000
  C   C332      1.0  0.28037  0.30223  0.89012  1.0000
  C   C333      1.0  0.27106  0.33329  0.89656  1.0000
  H   H262      1.0  0.34304  0.37407  0.88196  1.0000
  H   H263      1.0  0.35963  0.31929  0.87107  1.0000
  H   H264      1.0  0.26250  0.28231  0.89218  1.0000
  H   H265      1.0  0.24632  0.33704  0.90355  1.0000
  C   C334      1.0  0.05539  0.40639  0.87151  1.0000
  C   C335      1.0  0.08976  0.41727  0.87343  1.0000
  C   C336      1.0  0.10564  0.41873  0.89146  1.0000
  C   C337      1.0  0.08762  0.40861  0.90773  1.0000
  C   C338      1.0  0.05303  0.39796  0.90587  1.0000
  C   C339      1.0  0.03677  0.39717  0.88780  1.0000
  H   H266      1.0  0.10417  0.42487  0.86100  1.0000
  H   H267      1.0  0.13210  0.42693  0.89260  1.0000
  H   H268      1.0  0.03903  0.38979  0.91838  1.0000
  C   C340      1.0  0.47841  0.08835  0.68382  1.0000
  H   H269      1.0  0.42731  0.30037  0.90141  1.0000
  C   C341      1.0  0.01663  0.43226  0.77649  1.0000
  C   C342      1.0  0.04880  0.42744  0.76736  1.0000
  C   C343      1.0  0.05229  0.43072  0.74746  1.0000
  C   C344      1.0  0.02304  0.43927  0.73668  1.0000
  C   C345      1.0  0.42027  0.02916  0.96849  1.0000
  H   H270      1.0  0.16310  0.49631  0.84724  1.0000
  H   H271      1.0  0.07129  0.42150  0.77581  1.0000
  H   H272      1.0  0.02524  0.44155  0.72132  1.0000
  H   H273      1.0  0.37622  0.21935  0.68488  1.0000
  C   C346      1.0  0.38859  0.28554  0.93572  1.0000
  S   S55       1.0  0.25505  0.46226  0.93845  1.0000
  C   C347      1.0  0.36138  0.22276  0.93309  1.0000
  C   C348      1.0  0.39011  0.28263  0.74225  1.0000
  C   C349      1.0  0.42945  0.13647  0.81487  1.0000
  C   C350      1.0  0.31494  0.37450  0.97189  1.0000
  H   H274      1.0  0.29366  0.39225  0.68926  1.0000
  S   S56       1.0  0.16564  0.45076  0.70174  1.0000
  C   C351      1.0  0.13310  0.34281  0.86151  1.0000
  C   C352      1.0  0.45399  0.35395  0.96236  1.0000
  C   C353      1.0  0.34696  0.24743  0.92221  1.0000
  C   C354      1.0  0.38915  0.09780  0.98384  1.0000
  H   H275      1.0  0.38921  0.33242  0.97916  1.0000
  C   C355      1.0  0.00014  0.47203  0.98707  1.0000
  C   C356      1.0  0.28758  0.19190  0.71223  1.0000
  C   C357      1.0  0.45840  0.17472  0.70301  1.0000
  C   C358      1.0  0.34167  0.36060  0.94166  1.0000
  C   C359      1.0  0.17559  0.36767  0.88265  1.0000
  C   C360      1.0  0.37000  0.10239  0.74517  1.0000
  C   C361      1.0  0.38233  0.09167  0.76297  1.0000
  P   P12       1.0  0.36496  0.14478  0.74044  1.0000
  C   C362      1.0  0.40162  0.15653  0.72588  1.0000
  C   C363      1.0  0.32472  0.15322  0.72816  1.0000
  C   C364      1.0  0.31932  0.18418  0.72080  1.0000
  C   C365      1.0  0.33130  0.24891  0.67902  1.0000
  H   H276      1.0  0.19249  0.35234  0.97977  1.0000
  H   H277      1.0  0.40001  0.21037  0.95406  1.0000
  C   C366      1.0  0.40245  0.26080  0.94700  1.0000
  C   C367      1.0  0.43329  0.16577  0.73438  1.0000
  C   C368      1.0  0.21176  0.48440  0.86064  1.0000
  S   S57       1.0  0.11283  0.39760  0.68195  1.0000
  C   C369      1.0  0.42742  0.16421  0.69446  1.0000
  C   C370      1.0  0.39919  0.15492  0.70585  1.0000
  C   C371      1.0  0.36137  0.16838  0.76210  1.0000
  C   C372      1.0  0.34142  0.15684  0.77749  1.0000
  C   C373      1.0  0.33717  0.17565  0.79397  1.0000
  C   C374      1.0  0.35198  0.20642  0.79497  1.0000
  C   C375      1.0  0.37066  0.21853  0.77943  1.0000
  C   C376      1.0  0.37525  0.19972  0.76302  1.0000
  H   H278      1.0  0.39582  0.11625  0.83638  1.0000
  C   C377      1.0  0.36351  0.07978  0.73056  1.0000
  C   C378      1.0  0.36953  0.34618  0.95135  1.0000
  C   C379      1.0  0.16285  0.36230  0.86404  1.0000
  H   H279      1.0  0.38996  0.10862  0.77405  1.0000
  H   H280      1.0  0.33953  0.20246  0.72186  1.0000
  H   H281      1.0  0.39386  0.05055  0.78047  1.0000
  C   C380      1.0  0.46603  0.02283  0.93769  1.0000
  H   H282      1.0  0.30029  0.10680  0.73348  1.0000
  C   C381      1.0  0.31474  0.37503  0.95191  1.0000
  H   H283      1.0  0.43624  0.16591  0.74980  1.0000
  C   C382      1.0  0.34842  0.01974  0.81571  1.0000
  C   C383      1.0  0.00375  0.48369  0.89272  1.0000
  H   H284      1.0  0.34253  0.29706  0.72915  1.0000
  H   H285      1.0  0.37558  0.14623  0.69906  1.0000
  H   H286      1.0  0.32892  0.13342  0.77673  1.0000
  H   H287      1.0  0.32230  0.16652  0.80598  1.0000
  H   H288      1.0  0.34915  0.22092  0.80782  1.0000
  H   H289      1.0  0.38248  0.24226  0.78040  1.0000
  H   H290      1.0  0.38946  0.20982  0.75110  1.0000
  Fe  Fe27      1.0  0.22095  0.43945  0.96087  1.0000
  H   H291      1.0  0.45431  0.07181  0.93127  1.0000
  H   H292      1.0  0.04172  0.49680  0.76171  1.0000
  C   C384      1.0  0.48031  0.01528  0.83796  1.0000
  S   S58       1.0  0.32520  0.00110  0.88926  1.0000
  C   C385      1.0  0.41862  0.11253  0.82755  1.0000
  C   C386      1.0  0.12727  0.33736  0.89585  1.0000
  C   C387      1.0  0.07045  0.48827  0.82854  1.0000
  H   H293      1.0  0.02263  0.47698  0.86415  1.0000
  C   C388      1.0  0.29761  0.13037  0.72717  1.0000
  H   H294      1.0  0.25470  0.39507  0.82782  1.0000
  C   C389      1.0  0.35006  0.22008  0.67923  1.0000
  H   H295      1.0  0.46744  0.29020  0.93245  1.0000
  C   C390      1.0  0.44603  0.32923  0.94925  1.0000
  C   C391      1.0  0.46623  0.17918  0.93796  1.0000
  H   H296      1.0  0.11173  0.39043  0.83524  1.0000
  C   C392      1.0  0.46421  0.17259  0.95752  1.0000
  H   H297      1.0  0.24269  0.37253  0.70731  1.0000
  C   C393      1.0  0.02946  0.45232  0.98648  1.0000
  H   H298      1.0  0.35717  0.03564  0.95020  1.0000
  C   C394      1.0  0.29271  0.36740  0.69385  1.0000
  H   H299      1.0  0.47783  0.18802  0.96765  1.0000
  H   H300      1.0  0.48249  0.02002  0.92526  1.0000
  H   H301      1.0  0.16708  0.36034  0.91279  1.0000
  C   C395      1.0  0.44649  0.00334  0.79466  1.0000
  H   H302      1.0  0.44274  0.14221  0.97923  1.0000
  H   H303      1.0  0.19913  0.38159  0.88506  1.0000
  C   C396      1.0  0.31734  0.05212  0.93139  1.0000
  H   H304      1.0  0.20375  0.31212  0.85258  1.0000
  H   H305      1.0  0.01454  0.42963  0.79184  1.0000
  C   C397      1.0  0.99975  0.47466  0.95232  1.0000
  C   C398      1.0  0.43722  0.99999  0.96528  1.0000
  H   H306      1.0  0.30590  0.02832  0.92965  1.0000
  C   C399      1.0  0.41203  0.26545  0.70554  1.0000
  C   C400      1.0  0.38185  0.00204  0.84302  1.0000
  H   H307      1.0  0.28090  0.07460  0.91239  1.0000
  C   C401      1.0  0.31726  0.31372  0.69411  1.0000
  H   H308      1.0  0.33640  0.03898  0.80771  1.0000
  H   H309      1.0  0.36818  0.05136  0.83775  1.0000
  C   C402      1.0  0.35629  0.11006  0.98852  1.0000
  H   H310      1.0  0.36049  0.02951  0.72300  1.0000
  C   C403      1.0  0.15781  0.35527  0.89845  1.0000
  Fe  Fe28      1.0  0.16654  0.41745  0.67607  1.0000
  H   H311      1.0  0.24550  0.12016  0.71724  1.0000
  C   C404      1.0  0.36894  0.34479  0.97143  1.0000
  C   C405      1.0  0.02951  0.48355  0.87866  1.0000
  H   H312      1.0  0.23885  0.31535  0.71701  1.0000
  H   H313      1.0  0.15362  0.39920  0.97629  1.0000
  S   S59       1.0  0.08782  0.47344  0.68841  1.0000
  Fe  Fe29      1.0  0.14306  0.48816  0.68225  1.0000
  C   C406      1.0  0.26382  0.35625  0.70404  1.0000
  C   C407      1.0  0.31804  0.10888  0.92383  1.0000
  H   H314      1.0  0.28345  0.21582  0.70664  1.0000
  C   C408      1.0  0.15650  0.38772  0.99011  1.0000
  C   C409      1.0  0.34683  0.05636  0.94287  1.0000
  C   C410      1.0  0.36270  0.08683  0.94459  1.0000
  C   C411      1.0  0.34740  0.11327  0.93544  1.0000
  P   P13       1.0  0.40138  0.09198  0.95912  1.0000
  C   C412      1.0  0.42648  0.05562  0.95644  1.0000
  C   C413      1.0  0.42688  0.12617  0.95091  1.0000
  C   C414      1.0  0.42938  0.13289  0.93127  1.0000
  C   C415      1.0  0.44862  0.15945  0.92490  1.0000
  H   H315      1.0  0.24439  0.40911  0.86477  1.0000
  H   H316      1.0  0.48564  0.18289  0.72956  1.0000
  H   H317      1.0  0.41476  0.15850  0.81360  1.0000
  H   H318      1.0  0.12347  0.33681  0.84740  1.0000
  C   C416      1.0  0.47598  0.02349  0.79545  1.0000
  C   C417      1.0  0.31940  0.34627  0.68889  1.0000
  H   H319      1.0  0.20431  0.36546  0.80367  1.0000
  H   H320      1.0  0.31028  0.30670  0.83510  1.0000
  H   H321      1.0  0.33756  0.11560  0.97745  1.0000
  H   H322      1.0  0.07767  0.38762  0.80557  1.0000
  C   C418      1.0  0.44971  0.05224  0.94109  1.0000
  H   H323      1.0  0.44183  0.32622  0.87073  1.0000
  H   H324      1.0  0.46458  0.01749  0.88601  1.0000
  C   C419      1.0  0.30318  0.07825  0.92170  1.0000
  C   C420      1.0  0.46144  0.17516  0.72295  1.0000
  H   H325      1.0  0.35830  0.13721  0.93702  1.0000
  H   H326      1.0  0.41625  0.11778  0.92080  1.0000
  H   H327      1.0  0.14975  0.44065  0.83740  1.0000
  H   H328      1.0  0.43252  0.38463  0.86625  1.0000
  H   H329      1.0  0.42824  0.06567  0.83878  1.0000
  C   C421      1.0  0.26160  0.32397  0.70940  1.0000
  C   C422      1.0  0.48400  0.22586  0.79232  1.0000
  H   H330      1.0  0.35111  0.19851  0.93180  1.0000
  C   C423      1.0  0.48151  0.01924  0.76089  1.0000
  H   H331      1.0  0.43466  0.37157  0.96630  1.0000
  H   H332      1.0  0.16980  0.36379  0.77393  1.0000
  C   C424      1.0  0.36613  0.04687  0.73426  1.0000
  C   C425      1.0  0.43742  0.08398  0.82907  1.0000
  H   H333      1.0  0.25782  0.46499  0.87377  1.0000
  C   C426      1.0  0.28825  0.30278  0.70453  1.0000
  S   S60       1.0  0.42303  0.26397  0.85471  1.0000
  C   C427      1.0  0.04331  0.44293  0.96887  1.0000
  H   H334      1.0  0.34126  0.35533  0.68074  1.0000
  C   C428      1.0  0.42336  0.27010  0.73954  1.0000
  H   H335      1.0  0.17972  0.46460  0.00199  1.0000
  H   H336      1.0  0.05931  0.46961  0.83749  1.0000
  H   H337      1.0  0.04114  0.44390  0.99966  1.0000
  C   C429      1.0  0.36781  0.28672  0.72661  1.0000
  P   P14       1.0  0.40372  0.32655  0.93812  1.0000
  C   C430      1.0  0.17837  0.36125  0.99209  1.0000
  H   H338      1.0  0.07863  0.45608  0.80485  1.0000
  H   H339      1.0  0.47702  0.05383  0.85893  1.0000
  C   C431      1.0  0.41386  0.39218  0.89497  1.0000
  H   H340      1.0  0.32541  0.24237  0.91260  1.0000
  H   H341      1.0  0.30868  0.36367  0.82452  1.0000
  H   H342      1.0  0.99899  0.48955  0.70633  1.0000
  C   C432      1.0  0.44435  0.14641  0.96401  1.0000
  H   H343      1.0  0.39773  0.39290  0.92430  1.0000
  Fe  Fe30      1.0  0.16366  0.42649  0.93165  1.0000
  H   H344      1.0  0.10663  0.37441  0.77465  1.0000
  C   C433      1.0  0.43419  0.26126  0.72121  1.0000
  C   C434      1.0  0.34189  0.35921  0.98165  1.0000
  H   H345      1.0  0.49356  0.37572  0.98023  1.0000
  C   C435      1.0  0.38905  0.22945  0.94553  1.0000
  S   S61       1.0  0.17392  0.46748  0.95201  1.0000
  C   C436      1.0  0.48751  0.35664  0.97011  1.0000
  H   H346      1.0  0.23680  0.17468  0.70380  1.0000
  C   C437      1.0  0.37869  0.27843  0.70804  1.0000
  C   C438      1.0  0.43118  0.34049  0.88228  1.0000
  H   H347      1.0  0.11284  0.32892  0.90818  1.0000
  S   S62       1.0  0.46527  0.19494  0.85763  1.0000
  C   C439      1.0  0.37613  0.03631  0.75236  1.0000
  H   H348      1.0  0.40106  0.03040  0.97981  1.0000
  H   H349      1.0  0.09130  0.31711  0.87537  1.0000
  H   H350      1.0  0.42331  0.26565  0.95703  1.0000
  Fe  Fe31      1.0  0.23950  0.42079  0.91925  1.0000
  S   S63       1.0  0.19375  0.44779  0.90713  1.0000
  C   C440      1.0  0.36663  0.02679  0.83254  1.0000
  C   C441      1.0  0.26120  0.16872  0.71069  1.0000
  C   C442      1.0  0.40983  0.34446  0.91490  1.0000
  C   C443      1.0  0.42287  0.32593  0.89971  1.0000
  C   C444      1.0  0.47850  0.10381  0.80556  1.0000
  C   C445      1.0  0.25671  0.30591  0.84395  1.0000
  C   C446      1.0  0.28641  0.32034  0.83620  1.0000
  C   C447      1.0  0.28552  0.35245  0.83037  1.0000
  C   C448      1.0  0.25500  0.37024  0.83247  1.0000
  C   C449      1.0  0.22537  0.35619  0.84086  1.0000
  C   C450      1.0  0.22628  0.32370  0.84627  1.0000
  P   P15       1.0  0.18593  0.37911  0.84381  1.0000
  C   C451      1.0  0.19645  0.42051  0.84989  1.0000
  C   C452      1.0  0.16067  0.37771  0.82189  1.0000
  C   C453      1.0  0.12488  0.38444  0.82204  1.0000
  C   C454      1.0  0.10542  0.38298  0.80514  1.0000
  C   C455      1.0  0.12163  0.37544  0.78782  1.0000
  C   C456      1.0  0.15730  0.36935  0.78743  1.0000
  C   C457      1.0  0.17677  0.37038  0.80437  1.0000
  C   C458      1.0  0.22688  0.42792  0.86024  1.0000
  C   C459      1.0  0.23464  0.45973  0.86540  1.0000
  H   H351      1.0  0.42355  0.08489  0.67797  1.0000
  C   C460      1.0  0.08157  0.48055  0.81010  1.0000
  C   C461      1.0  0.17366  0.44553  0.84506  1.0000
  C   C462      1.0  0.46861  0.00762  0.87184  1.0000
  H   H352      1.0  0.08434  0.48942  0.87283  1.0000
  S   S64       1.0  0.36563  0.03748  0.68194  1.0000
  H   H353      1.0  0.42145  0.25951  0.69140  1.0000
  Fe  Fe32      1.0  0.20672  0.48715  0.92798  1.0000
  C   C463      1.0  0.38487  0.05869  0.76662  1.0000
  H   H354      1.0  0.37763  0.01074  0.75512  1.0000
  P   P16       1.0  0.35114  0.28593  0.68745  1.0000
  H   H355      1.0  0.46140  0.21657  0.76461  1.0000
  H   H356      1.0  0.35601  0.08746  0.71633  1.0000
  H   H357      1.0  0.29404  0.38575  0.97979  1.0000
  C   C464      1.0  0.18123  0.47729  0.85053  1.0000
  H   H358      1.0  0.39539  0.00749  0.85629  1.0000
  H   H359      1.0  0.44094  0.26774  0.75160  1.0000
  H   H360      1.0  0.12286  0.42096  0.00459  1.0000
  H   H361      1.0  0.43817  0.08119  0.99534  1.0000
  H   H362      1.0  0.41671  0.32335  0.68569  1.0000
  H   H363      1.0  0.42537  0.16322  0.67899  1.0000
  H   H364      1.0  0.34370  0.10276  0.67579  1.0000
  H   H365      1.0  0.48122  0.19970  0.93285  1.0000
  H   H366      1.0  0.48015  0.18242  0.69420  1.0000
  C   C465      1.0  0.47251  0.30837  0.94330  1.0000
  H   H367      1.0  0.06565  0.42713  0.96826  1.0000
  S   S65       1.0  0.49065  0.25481  0.89897  1.0000
  H   H368      1.0  0.46021  0.25196  0.71902  1.0000
  C   C466      1.0  0.41277  0.09079  0.99860  1.0000
  C   C467      1.0  0.42628  0.37350  0.87982  1.0000
  H   H369      1.0  0.41031  0.41783  0.89315  1.0000
  H   H370      1.0  0.19148  0.49155  0.75319  1.0000
  H   H371      1.0  0.29039  0.45990  0.68049  1.0000
  H   H372      1.0  0.02561  0.41599  0.67558  1.0000
  H   H373      1.0  0.47501  0.08967  0.69920  1.0000
  H   H374      1.0  0.46799  0.15117  0.79437  1.0000
  C   C468      1.0  0.01248  0.49063  0.91177  1.0000
  C   C469      1.0  0.48492  0.22290  0.77229  1.0000
  C   C470      1.0  0.47543  0.02809  0.85640  1.0000
  C   C471      1.0  0.06402  0.49086  0.88349  1.0000
  H   H375      1.0  0.34162  0.35851  0.99714  1.0000
  C   C472      1.0  0.13904  0.39989  0.00605  1.0000
  H   H376      1.0  0.10314  0.49786  0.78391  1.0000
  C   C473      1.0  0.49315  0.03169  0.77839  1.0000
  H   H377      1.0  0.49301  0.10292  0.98189  1.0000
  H   H378      1.0  0.49348  0.13320  0.89232  1.0000
  C   C474      1.0  0.45269  0.99860  0.76029  1.0000
  Fe  Fe33      1.0  0.45500  0.93669  0.30536  1.0000
  S   S66       1.0  0.40227  0.95947  0.30914  1.0000
  C   C475      1.0  0.43814  0.88309  0.09830  1.0000
  H   H379      1.0  0.16988  0.58538  0.11826  1.0000
  C   C476      1.0  0.32400  0.97466  0.02233  1.0000
  H   H380      1.0  0.07121  0.57525  0.19907  1.0000
  C   C477      1.0  0.26644  0.55124  0.20288  1.0000
  S   S67       1.0  0.23863  0.54372  0.14678  1.0000
  C   C478      1.0  0.18088  0.52672  0.25085  1.0000
  C   C479      1.0  0.47933  0.94919  0.18709  1.0000
  Fe  Fe34      1.0  0.06713  0.73167  0.18888  1.0000
  S   S68       1.0  0.06887  0.69155  0.21014  1.0000
  C   C480      1.0  0.31996  0.80746  0.03252  1.0000
  Fe  Fe35      1.0  0.14424  0.74527  0.19257  1.0000
  S   S69       1.0  0.15077  0.70681  0.21502  1.0000
  S   S70       1.0  0.19570  0.76706  0.18242  1.0000
  Fe  Fe36      1.0  0.11798  0.67610  0.19562  1.0000
  S   S71       1.0  0.12313  0.62184  0.19218  1.0000
  Fe  Fe37      1.0  0.10097  0.72517  0.22783  1.0000
  S   S72       1.0  0.09272  0.72531  0.26011  1.0000
  S   S73       1.0  0.11324  0.71314  0.17247  1.0000
  S   S74       1.0  0.09742  0.76665  0.20736  1.0000
  H   H381      1.0  0.23855  0.93555  0.27052  1.0000
  S   S75       1.0  0.47128  0.93140  0.27386  1.0000
  H   H382      1.0  0.03702  0.76619  0.14605  1.0000
  S   S76       1.0  0.31656  0.89295  0.11867  1.0000
  S   S77       1.0  0.22662  0.90542  0.14612  1.0000
  C   C481      1.0  0.11341  0.64129  0.24517  1.0000
  S   S78       1.0  0.40340  0.89802  0.14617  1.0000
  C   C482      1.0  0.20359  0.80567  0.17235  1.0000
  C   C483      1.0  0.17881  0.83008  0.17291  1.0000
  C   C484      1.0  0.18666  0.86064  0.16524  1.0000
  C   C485      1.0  0.21902  0.86699  0.15655  1.0000
  C   C486      1.0  0.24376  0.84249  0.15592  1.0000
  C   C487      1.0  0.23614  0.81210  0.16391  1.0000
  H   H383      1.0  0.15371  0.82556  0.17939  1.0000
  H   H384      1.0  0.16736  0.87942  0.16582  1.0000
  H   H385      1.0  0.26874  0.84698  0.14929  1.0000
  H   H386      1.0  0.25560  0.79345  0.16349  1.0000
  C   C488      1.0  0.05182  0.73324  0.27087  1.0000
  C   C489      1.0  0.02552  0.74939  0.26104  1.0000
  S   S79       1.0  0.48007  0.96844  0.32772  1.0000
  H   H387      1.0  0.00648  0.54779  0.16706  1.0000
  C   C490      1.0  0.01551  0.73340  0.29967  1.0000
  C   C491      1.0  0.04650  0.72504  0.29016  1.0000
  H   H388      1.0  0.02939  0.75595  0.24623  1.0000
  C   C492      1.0  0.14959  0.54047  0.24507  1.0000
  H   H389      1.0  0.06668  0.71259  0.29790  1.0000
  C   C493      1.0  0.20541  0.56565  0.15840  1.0000
  C   C494      1.0  0.17494  0.55055  0.16477  1.0000
  C   C495      1.0  0.14997  0.56820  0.17502  1.0000
  C   C496      1.0  0.15476  0.60123  0.17859  1.0000
  C   C497      1.0  0.18481  0.61654  0.17188  1.0000
  C   C498      1.0  0.21018  0.59874  0.16196  1.0000
  H   H390      1.0  0.17093  0.52510  0.16214  1.0000
  H   H391      1.0  0.12685  0.55615  0.18023  1.0000
  H   H392      1.0  0.18871  0.64196  0.17462  1.0000
  H   H393      1.0  0.23367  0.61059  0.15705  1.0000
  C   C499      1.0  0.06776  0.63781  0.26880  1.0000
  H   H394      1.0  0.14305  0.85763  0.06247  1.0000
  C   C500      1.0  0.44629  0.94837  0.13560  1.0000
  C   C501      1.0  0.44403  0.91709  0.14283  1.0000
  C   C502      1.0  0.47459  0.90087  0.14785  1.0000
  H   H395      1.0  0.42852  0.96858  0.23748  1.0000
  H   H396      1.0  0.12587  0.57951  0.22968  1.0000
  H   H397      1.0  0.42293  0.96136  0.13220  1.0000
  C   C503      1.0  0.24695  0.75115  0.32679  1.0000
  H   H398      1.0  0.23530  0.73052  0.33379  1.0000
  C   C504      1.0  0.11919  0.65560  0.33076  1.0000
  C   C505      1.0  0.01111  0.61448  0.13141  1.0000
  H   H399      1.0  0.12152  0.64112  0.23037  1.0000
  C   C506      1.0  0.33056  0.92202  0.00806  1.0000
  H   H400      1.0  0.24389  0.92034  0.01920  1.0000
  H   H401      1.0  0.16456  0.84084  0.03083  1.0000
  C   C507      1.0  0.05691  0.61028  0.15509  1.0000
  C   C508      1.0  0.29673  0.78581  0.32121  1.0000
  C   C509      1.0  0.00270  0.57752  0.24000  1.0000
  C   C510      1.0  0.14860  0.79493  0.29114  1.0000
  C   C511      1.0  0.01162  0.54086  0.11782  1.0000
  H   H402      1.0  0.48543  0.93628  0.23361  1.0000
  H   H403      1.0  0.24122  0.85955  0.32508  1.0000
  H   H404      1.0  0.31940  0.62969  0.30364  1.0000
  C   C512      1.0  0.41562  0.92155  0.07557  1.0000
  C   C513      1.0  0.41006  0.89657  0.08858  1.0000
  H   H405      1.0  0.43360  0.86476  0.10903  1.0000
  C   C514      1.0  0.27995  0.56478  0.21982  1.0000
  H   H406      1.0  0.02477  0.57012  0.09326  1.0000
  H   H407      1.0  0.07086  0.58153  0.33676  1.0000
  C   C515      1.0  0.15099  0.54815  0.09932  1.0000
  H   H408      1.0  0.11401  0.59192  0.13482  1.0000
  H   H409      1.0  0.01193  0.72717  0.31456  1.0000
  C   C516      1.0  0.16998  0.81888  0.29936  1.0000
  H   H410      1.0  0.26780  0.81562  0.04210  1.0000
  C   C517      1.0  0.44940  0.93323  0.07218  1.0000
  H   H411      1.0  0.03314  0.52798  0.31112  1.0000
  H   H412      1.0  0.39142  0.95723  0.18571  1.0000
  H   H413      1.0  0.39343  0.93212  0.06847  1.0000
  H   H414      1.0  0.38380  0.88829  0.09152  1.0000
  C   C518      1.0  0.19823  0.55733  0.31946  1.0000
  C   C519      1.0  0.01274  0.52414  0.30065  1.0000
  C   C520      1.0  0.02961  0.53319  0.16834  1.0000
  H   H415      1.0  0.48045  0.98746  0.12770  1.0000
  H   H416      1.0  0.19959  0.76408  0.31288  1.0000
  H   H417      1.0  0.49138  0.98040  0.09267  1.0000
  C   C521      1.0  0.18188  0.85393  0.04029  1.0000
  H   H418      1.0  0.11320  0.84671  0.33303  1.0000
  C   C522      1.0  0.02448  0.65968  0.15217  1.0000
  C   C523      1.0  0.25233  0.90753  0.31553  1.0000
  C   C524      1.0  0.21285  0.57220  0.23756  1.0000
  H   H419      1.0  0.12524  0.52820  0.24819  1.0000
  P   P17       1.0  0.25386  0.59255  0.23353  1.0000
  C   C525      1.0  0.27452  0.60356  0.25596  1.0000
  Fe  Fe38      1.0  0.32010  0.98555  0.12509  1.0000
  C   C526      1.0  0.48919  0.98148  0.18522  1.0000
  H   H420      1.0  0.18142  0.88846  0.08466  1.0000
  H   H421      1.0  0.17311  0.85532  0.32166  1.0000
  C   C527      1.0  0.03133  0.55670  0.24106  1.0000
  C   C528      1.0  0.20523  0.58552  0.32980  1.0000
  C   C529      1.0  0.26004  0.59479  0.27366  1.0000
  C   C530      1.0  0.41866  0.96417  0.18601  1.0000
  C   C531      1.0  0.18027  0.55885  0.30209  1.0000
  C   C532      1.0  0.30490  0.62259  0.25570  1.0000
  C   C533      1.0  0.24819  0.63004  0.22081  1.0000
  C   C534      1.0  0.23670  0.65735  0.23086  1.0000
  C   C535      1.0  0.23422  0.68705  0.22162  1.0000
  C   C536      1.0  0.24246  0.68966  0.20223  1.0000
  C   C537      1.0  0.25382  0.66268  0.19213  1.0000
  C   C538      1.0  0.25687  0.63301  0.20136  1.0000
  C   C539      1.0  0.27622  0.83523  0.01377  1.0000
  H   H422      1.0  0.33449  0.50406  0.18995  1.0000
  H   H423      1.0  0.18097  0.60759  0.22317  1.0000
  H   H424      1.0  0.24081  0.55780  0.19775  1.0000
  H   H425      1.0  0.09806  0.77240  0.29102  1.0000
  H   H426      1.0  0.26270  0.91521  0.32926  1.0000
  H   H427      1.0  0.07518  0.80563  0.31753  1.0000
  C   C540      1.0  0.09102  0.53162  0.10389  1.0000
  H   H428      1.0  0.23612  0.58110  0.27448  1.0000
  C   C541      1.0  0.16952  0.86338  0.05830  1.0000
  H   H429      1.0  0.32090  0.98093  0.31669  1.0000
  H   H430      1.0  0.22999  0.65583  0.24588  1.0000
  H   H431      1.0  0.22544  0.70809  0.22936  1.0000
  H   H432      1.0  0.23985  0.71261  0.19502  1.0000
  H   H433      1.0  0.26011  0.66471  0.17706  1.0000
  H   H434      1.0  0.26607  0.61275  0.19313  1.0000
  C   C542      1.0  0.13799  0.64633  0.25963  1.0000
  C   C543      1.0  0.12737  0.64833  0.27879  1.0000
  C   C544      1.0  0.09211  0.64345  0.28330  1.0000
  P   P18       1.0  0.15901  0.65513  0.29752  1.0000
  C   C545      1.0  0.17562  0.61694  0.30557  1.0000
  C   C546      1.0  0.19360  0.68121  0.28899  1.0000
  C   C547      1.0  0.18613  0.70594  0.27602  1.0000
  C   C548      1.0  0.21265  0.72585  0.26905  1.0000
  C   C549      1.0  0.24692  0.72145  0.27510  1.0000
  C   C550      1.0  0.25460  0.69724  0.28822  1.0000
  C   C551      1.0  0.22808  0.67720  0.29516  1.0000
  C   C552      1.0  0.00457  0.64597  0.13750  1.0000
  C   C553      1.0  0.16923  0.58855  0.29505  1.0000
  C   C554      1.0  0.13671  0.67444  0.31712  1.0000
  S   S80       1.0  0.33864  0.89805  0.33516  1.0000
  H   H435      1.0  0.01540  0.51538  0.19617  1.0000
  H   H436      1.0  0.16505  0.64932  0.25576  1.0000
  H   H437      1.0  0.08310  0.64460  0.29791  1.0000
  H   H438      1.0  0.15974  0.70988  0.27125  1.0000
  C   C555      1.0  0.14994  0.56938  0.23488  1.0000
  H   H439      1.0  0.26749  0.73695  0.26977  1.0000
  H   H440      1.0  0.28110  0.69420  0.29315  1.0000
  H   H441      1.0  0.23470  0.65882  0.30538  1.0000
  C   C556      1.0  0.07834  0.63704  0.24972  1.0000
  H   H442      1.0  0.15509  0.58904  0.28164  1.0000
  H   H443      1.0  0.35834  0.52669  0.22024  1.0000
  H   H444      1.0  0.07712  0.53915  0.22687  1.0000
  C   C557      1.0  0.15332  0.85907  0.12328  1.0000
  C   C558      1.0  0.12144  0.84810  0.13041  1.0000
  C   C559      1.0  0.11242  0.81554  0.12884  1.0000
  C   C560      1.0  0.13526  0.79398  0.12010  1.0000
  C   C561      1.0  0.16753  0.80480  0.11306  1.0000
  C   C562      1.0  0.17643  0.83751  0.11478  1.0000
  P   P19       1.0  0.19576  0.77726  0.10057  1.0000
  C   C563      1.0  0.19354  0.73850  0.11223  1.0000
  C   C564      1.0  0.18202  0.77362  0.07588  1.0000
  C   C565      1.0  0.14796  0.78147  0.07038  1.0000
  C   C566      1.0  0.13758  0.77839  0.05126  1.0000
  C   C567      1.0  0.16107  0.76746  0.03749  1.0000
  C   C568      1.0  0.19496  0.75949  0.04284  1.0000
  C   C569      1.0  0.20541  0.76247  0.06195  1.0000
  C   C570      1.0  0.19294  0.70980  0.10150  1.0000
  C   C571      1.0  0.19080  0.68001  0.11073  1.0000
  C   C572      1.0  0.18938  0.67863  0.13069  1.0000
  C   C573      1.0  0.19017  0.70704  0.14146  1.0000
  C   C574      1.0  0.19206  0.73684  0.13228  1.0000
  C   C575      1.0  0.23999  0.79248  0.10139  1.0000
  C   C576      1.0  0.25176  0.81403  0.08731  1.0000
  C   C577      1.0  0.28591  0.82588  0.08776  1.0000
  C   C578      1.0  0.30853  0.81643  0.10232  1.0000
  C   C579      1.0  0.29685  0.79556  0.11661  1.0000
  C   C580      1.0  0.26271  0.78363  0.11618  1.0000
  H   H445      1.0  0.16078  0.88417  0.12500  1.0000
  H   H446      1.0  0.10401  0.86476  0.13742  1.0000
  H   H447      1.0  0.08778  0.80699  0.13448  1.0000
  H   H448      1.0  0.12767  0.76888  0.11884  1.0000
  H   H449      1.0  0.20139  0.84652  0.10992  1.0000
  H   H450      1.0  0.12922  0.78984  0.08078  1.0000
  H   H451      1.0  0.11118  0.78431  0.04715  1.0000
  H   H452      1.0  0.15286  0.76494  0.02271  1.0000
  H   H453      1.0  0.21306  0.75065  0.03222  1.0000
  H   H454      1.0  0.23165  0.75583  0.06592  1.0000
  H   H455      1.0  0.19390  0.71020  0.08605  1.0000
  H   H456      1.0  0.19016  0.65792  0.10242  1.0000
  H   H457      1.0  0.18755  0.65555  0.13779  1.0000
  H   H458      1.0  0.18914  0.70610  0.15696  1.0000
  H   H459      1.0  0.19239  0.75864  0.14086  1.0000
  H   H460      1.0  0.23443  0.82201  0.07612  1.0000
  H   H461      1.0  0.29471  0.84299  0.07709  1.0000
  H   H462      1.0  0.33484  0.82603  0.10284  1.0000
  H   H463      1.0  0.31412  0.78910  0.12822  1.0000
  H   H464      1.0  0.25419  0.76792  0.12756  1.0000
  C   C581      1.0  0.30684  0.62253  0.29036  1.0000
  H   H465      1.0  0.17420  0.53687  0.29431  1.0000
  C   C582      1.0  0.42531  0.94149  0.02295  1.0000
  H   H466      1.0  0.04062  0.63487  0.27239  1.0000
  P   P20       1.0  0.04742  0.55592  0.13220  1.0000
  H   H467      1.0  0.26523  0.59689  0.30436  1.0000
  C   C583      1.0  0.19849  0.81151  0.23398  1.0000
  C   C584      1.0  0.23112  0.80171  0.22753  1.0000
  C   C585      1.0  0.25850  0.79828  0.24049  1.0000
  C   C586      1.0  0.25326  0.80446  0.25997  1.0000
  C   C587      1.0  0.22036  0.81370  0.26668  1.0000
  C   C588      1.0  0.19320  0.81797  0.25343  1.0000
  P   P21       1.0  0.21462  0.82394  0.29167  1.0000
  H   H468      1.0  0.42253  0.99271  0.09012  1.0000
  C   C589      1.0  0.24123  0.79784  0.30619  1.0000
  C   C590      1.0  0.18141  0.58531  0.23117  1.0000
  C   C591      1.0  0.27657  0.80517  0.30930  1.0000
  S   S81       1.0  0.44268  0.89647  0.32613  1.0000
  C   C592      1.0  0.14752  0.57108  0.11386  1.0000
  C   C593      1.0  0.12271  0.52853  0.09431  1.0000
  H   H469      1.0  0.32768  0.79566  0.04564  1.0000
  C   C594      1.0  0.19352  0.61513  0.32306  1.0000
  C   C595      1.0  0.22820  0.86534  0.29512  1.0000
  C   C596      1.0  0.22721  0.88722  0.27985  1.0000
  C   C597      1.0  0.23898  0.91891  0.28241  1.0000
  C   C598      1.0  0.99887  0.59702  0.22377  1.0000
  C   C599      1.0  0.25173  0.92901  0.30021  1.0000
  C   C600      1.0  0.24042  0.87589  0.31305  1.0000
  H   H470      1.0  0.17749  0.81458  0.22375  1.0000
  H   H471      1.0  0.23535  0.79740  0.21239  1.0000
  H   H472      1.0  0.28399  0.79144  0.23534  1.0000
  H   H473      1.0  0.27508  0.80244  0.26966  1.0000
  H   H474      1.0  0.26424  0.88416  0.04383  1.0000
  H   H475      1.0  0.44403  0.99280  0.26870  1.0000
  H   H476      1.0  0.28849  0.82628  0.30292  1.0000
  C   C601      1.0  0.05395  0.53204  0.15340  1.0000
  H   H477      1.0  0.03442  0.54008  0.25280  1.0000
  H   H478      1.0  0.06556  0.65241  0.17254  1.0000
  H   H479      1.0  0.32365  0.79223  0.32406  1.0000
  H   H480      1.0  0.21766  0.87991  0.26590  1.0000
  H   H481      1.0  0.19784  0.63653  0.33172  1.0000
  C   C602      1.0  0.11564  0.57466  0.12326  1.0000
  H   H482      1.0  0.37618  0.98740  0.22009  1.0000
  C   C603      1.0  0.08697  0.55514  0.11822  1.0000
  Fe  Fe39      1.0  0.27785  0.92417  0.13353  1.0000
  H   H483      1.0  0.34454  0.64652  0.27251  1.0000
  C   C604      1.0  0.05238  0.57620  0.21058  1.0000
  C   C605      1.0  0.00361  0.54898  0.28829  1.0000
  H   H484      1.0  0.14678  0.72328  0.30762  1.0000
  C   C606      1.0  0.22527  0.88792  0.06558  1.0000
  Fe  Fe40      1.0  0.35708  0.92321  0.13344  1.0000
  S   S82       1.0  0.32116  0.90828  0.06544  1.0000
  C   C607      1.0  0.19110  0.88064  0.07085  1.0000
  Fe  Fe41      1.0  0.31823  0.93035  0.09544  1.0000
  C   C608      1.0  0.10159  0.80940  0.31249  1.0000
  Fe  Fe42      1.0  0.42667  0.98896  0.33266  1.0000
  H   H485      1.0  0.18053  0.50378  0.25821  1.0000
  H   H486      1.0  0.33096  0.88248  0.02798  1.0000
  S   S83       1.0  0.31845  0.95212  0.15033  1.0000
  C   C609      1.0  0.32459  0.92748  0.04285  1.0000
  C   C610      1.0  0.28187  0.75899  0.33011  1.0000
  S   S84       1.0  0.27637  0.96001  0.10925  1.0000
  C   C611      1.0  0.22669  0.77043  0.31490  1.0000
  C   C612      1.0  0.02387  0.59660  0.20924  1.0000
  C   C613      1.0  0.11441  0.72257  0.33248  1.0000
  C   C614      1.0  0.27635  0.60401  0.29076  1.0000
  C   C615      1.0  0.03785  0.59652  0.13994  1.0000
  H   H487      1.0  0.07706  0.59673  0.16221  1.0000
  C   C616      1.0  0.28609  0.81904  0.03051  1.0000
  H   H488      1.0  0.16806  0.82670  0.25799  1.0000
  S   S85       1.0  0.01069  0.73841  0.18170  1.0000
  C   C617      1.0  0.12293  0.83265  0.32112  1.0000
  S   S86       1.0  0.36162  0.95823  0.10935  1.0000
  H   H489      1.0  0.26136  0.95339  0.30212  1.0000
  C   C618      1.0  0.42837  0.99656  0.18453  1.0000
  C   C619      1.0  0.33271  0.53368  0.21539  1.0000
  C   C620      1.0  0.32893  0.90825  0.02643  1.0000
  C   C621      1.0  0.45662  0.94974  0.03226  1.0000
  H   H490      1.0  0.31879  0.97593  0.05324  1.0000
  Fe  Fe43      1.0  0.39207  0.92163  0.33154  1.0000
  C   C622      1.0  0.21608  0.86161  0.03476  1.0000
  C   C623      1.0  0.32101  0.63196  0.27283  1.0000
  H   H491      1.0  0.27588  0.51974  0.17888  1.0000
  C   C624      1.0  0.21244  0.54230  0.24692  1.0000
  P   P22       1.0  0.45587  0.96670  0.05615  1.0000
  C   C625      1.0  0.44413  0.94053  0.18744  1.0000
  H   H492      1.0  0.40046  0.94534  0.02989  1.0000
  C   C626      1.0  0.01022  0.75881  0.14404  1.0000
  C   C627      1.0  0.15697  0.83745  0.31458  1.0000
  H   H493      1.0  0.15817  0.77933  0.27991  1.0000
  H   H494      1.0  0.02106  0.61164  0.19674  1.0000
  H   H495      1.0  0.47296  0.87676  0.15357  1.0000
  H   H496      1.0  0.05941  0.63371  0.23840  1.0000
  C   C628      1.0  0.31930  0.52084  0.19837  1.0000
  C   C629      1.0  0.23772  0.87826  0.04769  1.0000
  H   H497      1.0  0.23656  0.53122  0.25135  1.0000
  C   C630      1.0  0.13420  0.70810  0.31809  1.0000
  H   H498      1.0  0.11273  0.74855  0.33335  1.0000
  C   C631      1.0  0.34401  0.81147  0.01771  1.0000
  H   H499      1.0  0.31612  0.63019  0.24221  1.0000
  H   H500      1.0  0.20648  0.74463  0.25890  1.0000
  H   H501      1.0  0.43658  0.91535  0.18815  1.0000
  C   C632      1.0  0.32226  0.96084  0.04073  1.0000
  C   C633      1.0  0.05585  0.55599  0.22634  1.0000
  H   H502      1.0  0.24224  0.90115  0.07532  1.0000
  H   H503      1.0  0.17588  0.54475  0.09233  1.0000
  C   C634      1.0  0.47890  0.96319  0.13318  1.0000
  H   H504      1.0  0.03347  0.61820  0.31794  1.0000
  C   C635      1.0  0.05039  0.64178  0.16106  1.0000
  H   H505      1.0  0.37035  0.80274  0.01935  1.0000
  H   H506      1.0  0.18904  0.52102  0.19998  1.0000
  C   C636      1.0  0.11448  0.79059  0.29755  1.0000
  H   H507      1.0  0.01735  0.57179  0.28927  1.0000
  H   H508      1.0  0.01972  0.68413  0.15671  1.0000
  H   H509      1.0  0.32401  0.56489  0.23931  1.0000
  H   H510      1.0  0.49369  0.88366  0.10229  1.0000
  H   H511      1.0  0.07009  0.51494  0.10047  1.0000
  C   C637      1.0  0.03461  0.51490  0.18485  1.0000
  C   C638      1.0  0.31313  0.55553  0.22612  1.0000
  C   C639      1.0  0.42091  0.99503  0.05918  1.0000
  P   P23       1.0  0.23270  0.85077  0.01135  1.0000
  C   C640      1.0  0.08379  0.51306  0.15548  1.0000
  C   C641      1.0  0.28621  0.52965  0.19213  1.0000
  H   H512      1.0  0.20601  0.53424  0.32516  1.0000
  H   H513      1.0  0.12579  0.51010  0.08343  1.0000
  H   H514      1.0  0.12011  0.62959  0.33005  1.0000
  C   C642      1.0  0.03018  0.61633  0.33328  1.0000
  C   C643      1.0  0.41288  0.98788  0.24335  1.0000
  C   C644      1.0  0.00674  0.55263  0.09918  1.0000
  H   H515      1.0  0.12934  0.50436  0.20876  1.0000
  H   H516      1.0  0.99501  0.60456  0.12013  1.0000
  C   C645      1.0  0.47197  0.89384  0.09453  1.0000
  C   C646      1.0  0.47770  0.91840  0.08125  1.0000
  H   H517      1.0  0.10310  0.51144  0.14427  1.0000
  C   C647      1.0  0.48832  0.94189  0.02350  1.0000
  C   C648      1.0  0.99464  0.75801  0.27059  1.0000
  H   H518      1.0  0.00670  0.77700  0.11516  1.0000
  Fe  Fe44      1.0  0.24063  0.74005  0.60165  1.0000
  S   S87       1.0  0.20140  0.74725  0.57788  1.0000
  S   S88       1.0  0.28532  0.77654  0.60606  1.0000
  Fe  Fe45      1.0  0.21934  0.66842  0.60674  1.0000
  S   S89       1.0  0.17975  0.67113  0.58335  1.0000
  S   S90       1.0  0.23225  0.61837  0.61765  1.0000
  Fe  Fe46      1.0  0.21867  0.69942  0.56637  1.0000
  S   S91       1.0  0.23114  0.68307  0.53592  1.0000
  Fe  Fe47      1.0  0.16544  0.71827  0.59681  1.0000
  S   S92       1.0  0.10698  0.72356  0.59738  1.0000
  S   S93       1.0  0.25964  0.69349  0.58893  1.0000
  S   S94       1.0  0.20306  0.71426  0.62158  1.0000
  C   C649      1.0  0.15853  0.50979  0.41368  1.0000
  S   S95       1.0  0.38558  0.95539  0.65517  1.0000
  H   H519      1.0  0.43930  0.77303  0.39758  1.0000
  H   H520      1.0  0.34787  0.90718  0.63049  1.0000
  H   H521      1.0  0.26577  0.55254  0.56056  1.0000
  H   H522      1.0  0.35622  0.76924  0.44588  1.0000
  H   H523      1.0  0.35536  0.95061  0.57474  1.0000
  H   H524      1.0  0.19464  0.52093  0.65121  1.0000
  Fe  Fe48      1.0  0.18791  0.74695  0.38988  1.0000
  S   S96       1.0  0.22925  0.71755  0.37548  1.0000
  S   S97       1.0  0.14671  0.76956  0.37143  1.0000
  Fe  Fe49      1.0  0.22244  0.74308  0.42915  1.0000
  S   S98       1.0  0.26638  0.71353  0.41768  1.0000
  S   S99       1.0  0.21875  0.76433  0.45920  1.0000
  Fe  Fe50      1.0  0.26670  0.74783  0.39272  1.0000
  S   S100      1.0  0.31838  0.76674  0.38121  1.0000
  Fe  Fe51      1.0  0.22487  0.68589  0.40135  1.0000
  S   S101      1.0  0.22692  0.63100  0.40031  1.0000
  S   S102      1.0  0.22561  0.77929  0.40531  1.0000
  S   S103      1.0  0.18072  0.71326  0.41468  1.0000
  C   C650      1.0  0.22001  0.88074  0.59771  1.0000
  S   S104      1.0  0.41239  0.95321  0.35528  1.0000
  H   H525      1.0  0.13230  0.68246  0.44449  1.0000
  H   H526      1.0  0.26250  0.84632  0.66226  1.0000
  C   C651      1.0  0.26326  0.53219  0.58879  1.0000
  H   H527      1.0  0.09579  0.55929  0.44546  1.0000
  P   P24       1.0  0.03064  0.57350  0.65961  1.0000
  C   C652      1.0  0.00732  0.59728  0.64223  1.0000
  H   H528      1.0  0.07303  0.50945  0.40104  1.0000
  C   C653      1.0  0.08422  0.62331  0.40572  1.0000
  C   C654      1.0  0.09244  0.57734  0.43448  1.0000
  C   C655      1.0  0.27097  0.85385  0.58544  1.0000
  H   H529      1.0  0.14507  0.59521  0.43675  1.0000
  C   C656      1.0  0.34758  0.93158  0.60322  1.0000
  C   C657      1.0  0.19872  0.60659  0.38620  1.0000
  C   C658      1.0  0.29117  0.88121  0.58939  1.0000
  C   C659      1.0  0.16925  0.61927  0.37736  1.0000
  H   H530      1.0  0.12235  0.60851  0.36168  1.0000
  H   H531      1.0  0.16396  0.64476  0.37848  1.0000
  C   C660      1.0  0.10333  0.76566  0.37902  1.0000
  C   C661      1.0  0.07671  0.77924  0.36802  1.0000
  C   C662      1.0  0.04175  0.77545  0.37345  1.0000
  C   C663      1.0  0.03343  0.75874  0.39018  1.0000
  C   C664      1.0  0.05998  0.74488  0.40104  1.0000
  C   C665      1.0  0.09484  0.74822  0.39545  1.0000
  C   C666      1.0  0.05617  0.65142  0.46536  1.0000
  H   H532      1.0  0.02132  0.78618  0.36499  1.0000
  H   H533      1.0  0.05363  0.73152  0.41380  1.0000
  H   H534      1.0  0.11507  0.73754  0.40393  1.0000
  C   C667      1.0  0.32313  0.80347  0.36852  1.0000
  C   C668      1.0  0.29513  0.82411  0.36533  1.0000
  C   C669      1.0  0.30019  0.85298  0.35510  1.0000
  C   C670      1.0  0.00948  0.66579  0.41888  1.0000
  C   C671      1.0  0.36707  0.93831  0.58672  1.0000
  C   C672      1.0  0.35611  0.81214  0.36150  1.0000
  H   H535      1.0  0.26958  0.81778  0.37066  1.0000
  H   H536      1.0  0.26530  0.76784  0.66704  1.0000
  H   H537      1.0  0.28309  0.83239  0.57971  1.0000
  H   H538      1.0  0.37787  0.79629  0.36382  1.0000
  C   C673      1.0  0.34969  0.77353  0.46076  1.0000
  C   C674      1.0  0.44416  0.84251  0.37219  1.0000
  H   H539      1.0  0.43191  0.82180  0.55441  1.0000
  H   H540      1.0  0.08142  0.64137  0.39468  1.0000
  C   C675      1.0  0.39669  0.86182  0.55344  1.0000
  C   C676      1.0  0.22718  0.70617  0.51480  1.0000
  C   C677      1.0  0.23902  0.69315  0.49742  1.0000
  C   C678      1.0  0.23538  0.71014  0.48015  1.0000
  C   C679      1.0  0.22057  0.74074  0.48020  1.0000
  C   C680      1.0  0.20922  0.75401  0.49762  1.0000
  C   C681      1.0  0.21235  0.73676  0.51485  1.0000
  H   H541      1.0  0.25090  0.66964  0.49729  1.0000
  H   H542      1.0  0.24464  0.69983  0.46688  1.0000
  H   H543      1.0  0.19796  0.77776  0.49779  1.0000
  H   H544      1.0  0.20325  0.74700  0.52816  1.0000
  C   C682      1.0  0.20891  0.59785  0.63572  1.0000
  C   C683      1.0  0.19004  0.61424  0.64976  1.0000
  C   C684      1.0  0.21058  0.56413  0.63640  1.0000
  H   H545      1.0  0.18903  0.64020  0.64943  1.0000
  H   H546      1.0  0.22513  0.55137  0.62563  1.0000
  C   C685      1.0  0.08570  0.73538  0.61855  1.0000
  C   C686      1.0  0.05011  0.72840  0.62069  1.0000
  C   C687      1.0  0.03204  0.73870  0.63706  1.0000
  C   C688      1.0  0.04933  0.75680  0.65111  1.0000
  C   C689      1.0  0.08490  0.76382  0.64894  1.0000
  C   C690      1.0  0.10321  0.75272  0.63285  1.0000
  H   H547      1.0  0.03646  0.71508  0.60963  1.0000
  H   H548      1.0  0.03956  0.56373  0.42883  1.0000
  P   P25       1.0  0.01479  0.60747  0.39866  1.0000
  H   H549      1.0  0.13054  0.75842  0.63119  1.0000
  C   C691      1.0  0.29607  0.80516  0.62427  1.0000
  C   C692      1.0  0.33008  0.81798  0.62502  1.0000
  C   C693      1.0  0.33992  0.84052  0.63926  1.0000
  C   C694      1.0  0.31573  0.85083  0.65286  1.0000
  C   C695      1.0  0.28156  0.83837  0.65194  1.0000
  C   C696      1.0  0.27172  0.81597  0.63762  1.0000
  H   H550      1.0  0.34914  0.81002  0.61469  1.0000
  H   H551      1.0  0.40992  0.89251  0.62875  1.0000
  H   H552      1.0  0.44521  0.90786  0.60065  1.0000
  H   H553      1.0  0.24523  0.80734  0.63674  1.0000
  H   H554      1.0  0.06353  0.57736  0.37177  1.0000
  C   C697      1.0  0.36445  0.97007  0.40475  1.0000
  C   C698      1.0  0.34249  0.96609  0.38895  1.0000
  C   C699      1.0  0.33530  0.93524  0.38188  1.0000
  C   C700      1.0  0.35029  0.90837  0.39048  1.0000
  C   C701      1.0  0.37270  0.91212  0.40619  1.0000
  C   C702      1.0  0.37927  0.94317  0.41350  1.0000
  P   P26       1.0  0.38913  0.87674  0.41793  1.0000
  C   C703      1.0  0.42298  0.88717  0.43482  1.0000
  C   C704      1.0  0.35153  0.85776  0.42865  1.0000
  C   C705      1.0  0.33613  0.87126  0.44500  1.0000
  C   C706      1.0  0.30602  0.85741  0.45281  1.0000
  C   C707      1.0  0.29074  0.83040  0.44411  1.0000
  C   C708      1.0  0.30546  0.81739  0.42757  1.0000
  C   C709      1.0  0.33542  0.83120  0.41973  1.0000
  C   C710      1.0  0.42261  0.87520  0.45359  1.0000
  H   H555      1.0  0.01326  0.56206  0.61958  1.0000
  H   H556      1.0  0.14503  0.52722  0.61611  1.0000
  H   H557      1.0  0.00901  0.54416  0.37942  1.0000
  H   H558      1.0  0.21872  0.58432  0.34341  1.0000
  C   C711      1.0  0.41067  0.85036  0.40125  1.0000
  C   C712      1.0  0.00325  0.58547  0.62347  1.0000
  C   C713      1.0  0.00058  0.63242  0.36233  1.0000
  C   C714      1.0  0.41662  0.81811  0.40617  1.0000
  H   H559      1.0  0.07828  0.64453  0.45674  1.0000
  C   C715      1.0  0.09930  0.67020  0.34504  1.0000
  H   H560      1.0  0.31824  0.93206  0.36964  1.0000
  H   H561      1.0  0.34421  0.88457  0.38498  1.0000
  H   H562      1.0  0.39546  0.94677  0.42600  1.0000
  H   H563      1.0  0.34711  0.89275  0.45152  1.0000
  H   H564      1.0  0.29416  0.86786  0.46540  1.0000
  H   H565      1.0  0.26730  0.81965  0.45003  1.0000
  H   H566      1.0  0.29357  0.79668  0.42063  1.0000
  H   H567      1.0  0.34542  0.82136  0.40649  1.0000
  H   H568      1.0  0.40171  0.85972  0.45845  1.0000
  H   H569      1.0  0.13661  0.58590  0.62056  1.0000
  C   C716      1.0  0.33323  0.86158  0.34802  1.0000
  C   C717      1.0  0.45165  0.90553  0.42863  1.0000
  C   C718      1.0  0.40645  0.83003  0.54997  1.0000
  C   C719      1.0  0.05631  0.60282  0.41040  1.0000
  H   H570      1.0  0.40674  0.80847  0.41948  1.0000
  H   H571      1.0  0.38407  0.80547  0.50148  1.0000
  S   S105      1.0  0.12077  0.54126  0.35403  1.0000
  H   H572      1.0  0.16044  0.68559  0.66404  1.0000
  C   C720      1.0  0.18232  0.55302  0.37415  1.0000
  H   H573      1.0  0.08744  0.60577  0.63982  1.0000
  H   H574      1.0  0.45318  0.91385  0.41394  1.0000
  C   C721      1.0  0.05881  0.67679  0.47866  1.0000
  H   H575      1.0  0.36641  0.84939  0.63993  1.0000
  P   P27       1.0  0.09860  0.70002  0.48078  1.0000
  C   C722      1.0  0.10414  0.71490  0.50499  1.0000
  C   C723      1.0  0.13535  0.67468  0.47509  1.0000
  C   C724      1.0  0.14611  0.67076  0.45601  1.0000
  C   C725      1.0  0.17537  0.65226  0.45169  1.0000
  C   C726      1.0  0.19338  0.63665  0.46626  1.0000
  C   C727      1.0  0.18231  0.63967  0.48521  1.0000
  C   C728      1.0  0.15369  0.65886  0.48966  1.0000
  C   C729      1.0  0.09370  0.69604  0.52067  1.0000
  C   C730      1.0  0.09940  0.70699  0.53940  1.0000
  C   C731      1.0  0.11555  0.73675  0.54263  1.0000
  C   C732      1.0  0.12604  0.75562  0.52714  1.0000
  C   C733      1.0  0.12049  0.74474  0.50840  1.0000
  C   C734      1.0  0.09654  0.73358  0.46441  1.0000
  C   C735      1.0  0.06442  0.74637  0.45872  1.0000
  C   C736      1.0  0.06329  0.77224  0.44597  1.0000
  C   C737      1.0  0.09415  0.78552  0.43884  1.0000
  C   C738      1.0  0.12617  0.77315  0.44459  1.0000
  C   C739      1.0  0.12733  0.74741  0.45738  1.0000
  C   C740      1.0  0.47887  0.91290  0.44124  1.0000
  H   H576      1.0  0.08558  0.65574  0.35548  1.0000
  H   H577      1.0  0.41770  0.93642  0.57344  1.0000
  C   C741      1.0  0.41772  0.91360  0.60100  1.0000
  C   C742      1.0  0.29478  0.97775  0.58994  1.0000
  H   H578      1.0  0.21633  0.62275  0.46289  1.0000
  H   H579      1.0  0.19681  0.62832  0.49663  1.0000
  H   H580      1.0  0.14665  0.66171  0.50454  1.0000
  H   H581      1.0  0.08185  0.67259  0.51845  1.0000
  H   H582      1.0  0.09178  0.69235  0.55153  1.0000
  H   H583      1.0  0.12023  0.74497  0.55718  1.0000
  H   H584      1.0  0.13911  0.77843  0.52968  1.0000
  H   H585      1.0  0.12960  0.75945  0.49667  1.0000
  H   H586      1.0  0.04018  0.73643  0.46393  1.0000
  H   H587      1.0  0.03848  0.78151  0.44116  1.0000
  H   H588      1.0  0.09324  0.80497  0.42855  1.0000
  H   H589      1.0  0.15018  0.78328  0.43900  1.0000
  H   H590      1.0  0.15229  0.73815  0.46174  1.0000
  C   C743      1.0  0.04701  0.59351  0.36378  1.0000
  C   C744      1.0  0.19344  0.54683  0.65088  1.0000
  C   C745      1.0  0.07252  0.52515  0.64407  1.0000
  H   H591      1.0  0.08088  0.71473  0.35674  1.0000
  H   H592      1.0  0.06425  0.52512  0.60017  1.0000
  H   H593      1.0  0.18106  0.52565  0.41385  1.0000
  H   H594      1.0  0.09821  0.77823  0.65963  1.0000
  H   H595      1.0  0.08312  0.79260  0.35524  1.0000
  H   H596      1.0  0.22793  0.92890  0.60827  1.0000
  C   C746      1.0  0.27593  0.90861  0.59766  1.0000
  H   H597      1.0  0.18441  0.65020  0.43704  1.0000
  S   S106      1.0  0.02718  0.77187  0.67126  1.0000
  H   H598      1.0  0.22806  0.56341  0.39122  1.0000
  H   H599      1.0  0.03254  0.68192  0.67272  1.0000
  C   C747      1.0  0.13258  0.68478  0.66621  1.0000
  H   H600      1.0  0.20692  0.77394  0.65214  1.0000
  H   H601      1.0  0.42298  0.98387  0.61448  1.0000
  C   C748      1.0  0.29276  0.95331  0.62945  1.0000
  C   C749      1.0  0.43542  0.79805  0.39392  1.0000
  C   C750      1.0  0.02916  0.68587  0.48905  1.0000
  C   C751      1.0  0.02458  0.63492  0.46288  1.0000
  C   C752      1.0  0.20960  0.76173  0.66570  1.0000
  H   H602      1.0  0.05883  0.66383  0.64214  1.0000
  C   C753      1.0  0.12673  0.52105  0.40680  1.0000
  H   H603      1.0  0.18753  0.52754  0.37293  1.0000
  C   C754      1.0  0.99760  0.66938  0.48646  1.0000
  C   C755      1.0  0.37366  0.78850  0.47304  1.0000
  H   H604      1.0  0.24723  0.95950  0.57694  1.0000
  C   C756      1.0  0.36507  0.79398  0.49226  1.0000
  H   H605      1.0  0.00461  0.73335  0.63859  1.0000
  C   C757      1.0  0.44993  0.88260  0.46618  1.0000
  H   H606      1.0  0.12469  0.54542  0.40147  1.0000
  H   H607      1.0  0.45544  0.85222  0.35923  1.0000
  C   C758      1.0  0.27917  0.96842  0.66801  1.0000
  C   C759      1.0  0.07532  0.67188  0.65383  1.0000
  H   H608      1.0  0.12284  0.66533  0.63804  1.0000
  C   C760      1.0  0.12324  0.53590  0.62443  1.0000
  S   S107      1.0  0.47681  0.94886  0.63621  1.0000
  H   H609      1.0  0.47135  0.97839  0.37996  1.0000
  H   H610      1.0  0.39896  0.79565  0.46766  1.0000
  C   C761      1.0  0.14579  0.59872  0.36769  1.0000
  C   C762      1.0  0.09084  0.58011  0.63803  1.0000
  C   C763      1.0  0.02140  0.61164  0.37314  1.0000
  C   C764      1.0  0.06783  0.55830  0.64682  1.0000
  H   H611      1.0  0.03026  0.70604  0.49892  1.0000
  Fe  Fe52      1.0  0.46381  0.93041  0.34868  1.0000
  C   C765      1.0  0.27230  0.93750  0.66102  1.0000
  C   C766      1.0  0.20522  0.57340  0.38448  1.0000
  C   C767      1.0  0.01734  0.50909  0.58622  1.0000
  C   C768      1.0  0.42474  0.86247  0.38421  1.0000
  H   H612      1.0  0.26761  0.55516  0.59596  1.0000
  C   C769      1.0  0.36375  0.87239  0.54787  1.0000
  H   H613      1.0  0.42141  0.88745  0.38031  1.0000
  C   C770      1.0  0.11848  0.56894  0.62693  1.0000
  C   C771      1.0  0.38331  0.80874  0.54095  1.0000
  C   C772      1.0  0.35007  0.81906  0.53543  1.0000
  C   C773      1.0  0.34048  0.85112  0.53885  1.0000
  P   P28       1.0  0.32041  0.79096  0.52407  1.0000
  C   C774      1.0  0.33231  0.78452  0.49929  1.0000
  C   C775      1.0  0.32231  0.75367  0.53725  1.0000
  C   C776      1.0  0.31801  0.72388  0.52794  1.0000
  C   C777      1.0  0.32045  0.69523  0.53825  1.0000
  C   C778      1.0  0.32721  0.69605  0.55789  1.0000
  C   C779      1.0  0.33101  0.72559  0.56732  1.0000
  C   C780      1.0  0.32828  0.75428  0.55711  1.0000
  C   C781      1.0  0.30839  0.76983  0.48677  1.0000
  C   C782      1.0  0.31704  0.76423  0.46765  1.0000
  C   C783      1.0  0.27662  0.80640  0.52523  1.0000
  C   C784      1.0  0.26383  0.82573  0.51038  1.0000
  C   C785      1.0  0.23015  0.83813  0.51130  1.0000
  C   C786      1.0  0.20909  0.83158  0.52711  1.0000
  C   C787      1.0  0.22172  0.81264  0.54202  1.0000
  C   C788      1.0  0.25534  0.80006  0.54113  1.0000
  H   H614      1.0  0.35615  0.89702  0.55062  1.0000
  Fe  Fe53      1.0  0.44150  0.94436  0.66191  1.0000
  C   C789      1.0  0.15218  0.56561  0.36592  1.0000
  H   H615      1.0  0.39119  0.78408  0.53844  1.0000
  H   H616      1.0  0.31503  0.85970  0.53474  1.0000
  H   H617      1.0  0.31210  0.72244  0.51285  1.0000
  H   H618      1.0  0.31586  0.67237  0.53111  1.0000
  H   H619      1.0  0.32820  0.67383  0.56592  1.0000
  H   H620      1.0  0.33490  0.72631  0.58270  1.0000
  H   H621      1.0  0.33034  0.77685  0.56488  1.0000
  H   H622      1.0  0.28305  0.76253  0.49191  1.0000
  H   H623      1.0  0.29821  0.75285  0.45814  1.0000
  H   H624      1.0  0.27970  0.83103  0.49798  1.0000
  H   H625      1.0  0.22018  0.85240  0.49959  1.0000
  H   H626      1.0  0.18287  0.84090  0.52772  1.0000
  H   H627      1.0  0.20524  0.80729  0.55416  1.0000
  H   H628      1.0  0.26437  0.78516  0.55278  1.0000
  C   C790      1.0  0.11595  0.62080  0.41540  1.0000
  C   C791      1.0  0.12017  0.59764  0.42963  1.0000
  C   C792      1.0  0.99436  0.62782  0.64678  1.0000
  C   C793      1.0  0.06062  0.57983  0.42489  1.0000
  H   H629      1.0  0.13745  0.63666  0.41174  1.0000
  C   C794      1.0  0.17504  0.56313  0.66508  1.0000
  C   C795      1.0  0.09671  0.70360  0.34581  1.0000
  C   C796      1.0  0.36117  0.84101  0.35133  1.0000
  C   C797      1.0  0.11137  0.67291  0.65149  1.0000
  C   C798      1.0  0.40223  0.92989  0.58579  1.0000
  H   H630      1.0  0.04618  0.56393  0.54425  1.0000
  C   C799      1.0  0.23552  0.85346  0.58978  1.0000
  C   C800      1.0  0.99531  0.64392  0.47338  1.0000
  C   C801      1.0  0.05883  0.54643  0.57235  1.0000
  C   C802      1.0  0.36281  0.91375  0.61795  1.0000
  H   H631      1.0  0.27531  0.90529  0.63713  1.0000
  H   H632      1.0  0.99716  0.63781  0.66096  1.0000
  H   H633      1.0  0.19257  0.88027  0.60124  1.0000
  H   H634      1.0  0.08283  0.56023  0.57344  1.0000
  H   H635      1.0  0.31877  0.88030  0.58650  1.0000
  C   C803      1.0  0.47798  0.90153  0.46003  1.0000
  H   H636      1.0  0.25942  0.50611  0.61499  1.0000
  H   H637      1.0  0.44962  0.87333  0.48064  1.0000
  C   C804      1.0  0.00699  0.53097  0.55465  1.0000
  H   H638      1.0  0.46405  0.79488  0.36747  1.0000
  P   P29       1.0  0.30242  0.94285  0.60478  1.0000
  H   H639      1.0  0.15501  0.75139  0.66767  1.0000
  H   H640      1.0  0.22032  0.83171  0.58739  1.0000
  C   C805      1.0  0.27942  0.92984  0.64192  1.0000
  C   C806      1.0  0.17354  0.59695  0.66455  1.0000
  C   C807      1.0  0.39785  0.90508  0.61692  1.0000
  H   H641      1.0  0.02257  0.61548  0.45257  1.0000
  C   C808      1.0  0.00362  0.54112  0.66850  1.0000
  C   C809      1.0  0.26548  0.97937  0.57795  1.0000
  C   C810      1.0  0.10011  0.51409  0.63285  1.0000
  C   C811      1.0  0.03816  0.54852  0.55594  1.0000
  C   C812      1.0  0.24010  0.90824  0.60163  1.0000
  C   C813      1.0  0.05122  0.59576  0.34391  1.0000
  C   C814      1.0  0.44929  0.81029  0.37695  1.0000
  C   C815      1.0  0.25835  0.50423  0.59957  1.0000
  H   H642      1.0  0.41473  0.87813  0.56049  1.0000
  C   C816      1.0  0.29261  0.99190  0.65582  1.0000
  H   H643      1.0  0.03731  0.66512  0.42095  1.0000
  H   H644      1.0  0.38661  0.84720  0.34583  1.0000
  C   C817      1.0  0.06051  0.68217  0.67102  1.0000
  C   C818      1.0  0.09762  0.50076  0.40651  1.0000
  C   C819      1.0  0.26211  0.53074  0.56883  1.0000
  H   H645      1.0  0.05483  0.50773  0.65035  1.0000
  S   S108      1.0  0.32674  0.87863  0.67148  1.0000
  C   C820      1.0  0.04842  0.52665  0.58743  1.0000
  C   C821      1.0  0.29928  0.98449  0.63664  1.0000
  H   H646      1.0  0.27848  0.86889  0.35289  1.0000
  C   C822      1.0  0.00500  0.63472  0.34252  1.0000
  H   H647      1.0  0.00455  0.71028  0.43460  1.0000
  C   C823      1.0  0.99631  0.51113  0.56981  1.0000
  H   H648      1.0  0.33096  0.98686  0.38218  1.0000
  C   C824      1.0  0.25605  0.50128  0.55960  1.0000
  H   H649      1.0  0.36972  0.99403  0.41029  1.0000
  H   H650      1.0  0.26275  0.91898  0.67058  1.0000
  H   H651      1.0  0.25514  0.50023  0.54412  1.0000
  S   S109      1.0  0.49330  0.91455  0.37500  1.0000
  H   H652      1.0  0.29723  0.74474  0.33993  1.0000
  H   H653      1.0  0.39564  0.99803  0.58330  1.0000
  Fe  Fe54      1.0  0.42796  0.93566  0.70440  1.0000
  C   C825      1.0  0.47381  0.96135  0.85098  1.0000
  C   C826      1.0  0.09796  0.76233  0.70741  1.0000
  C   C827      1.0  0.09029  0.79121  0.73724  1.0000
  C   C828      1.0  0.02703  0.58112  0.89840  1.0000
  H   H654      1.0  0.99716  0.55077  0.87937  1.0000
  C   C829      1.0  0.14020  0.54960  0.73430  1.0000
  S   S110      1.0  0.20633  0.54093  0.92142  1.0000
  C   C830      1.0  0.18014  0.74871  0.67450  1.0000
  H   H655      1.0  0.22887  0.85896  0.96962  1.0000
  Fe  Fe55      1.0  0.09665  0.72975  0.86263  1.0000
  S   S111      1.0  0.08437  0.69082  0.84141  1.0000
  S   S112      1.0  0.05816  0.74284  0.88540  1.0000
  Fe  Fe56      1.0  0.17080  0.73935  0.84942  1.0000
  S   S113      1.0  0.16442  0.70048  0.82687  1.0000
  S   S114      1.0  0.22277  0.76683  0.85164  1.0000
  Fe  Fe57      1.0  0.11226  0.72242  0.82033  1.0000
  S   S115      1.0  0.09873  0.72674  0.78847  1.0000
  Fe  Fe58      1.0  0.13682  0.67145  0.84947  1.0000
  S   S116      1.0  0.13859  0.61668  0.85151  1.0000
  S   S117      1.0  0.12064  0.76343  0.84114  1.0000
  S   S118      1.0  0.14719  0.70831  0.87239  1.0000
  S   S119      1.0  0.35286  0.91231  0.90301  1.0000
  C   C831      1.0  0.15799  0.67869  0.71640  1.0000
  H   H656      1.0  0.01923  0.66433  0.77870  1.0000
  S   S120      1.0  0.44686  0.90564  0.93090  1.0000
  H   H657      1.0  0.11097  0.58388  0.74996  1.0000
  S   S121      1.0  0.26901  0.85885  0.92134  1.0000
  S   S122      1.0  0.35063  0.89587  0.94956  1.0000
  C   C832      1.0  0.23534  0.79219  0.87119  1.0000
  C   C833      1.0  0.26816  0.80754  0.87092  1.0000
  C   C834      1.0  0.27879  0.82833  0.88596  1.0000
  C   C835      1.0  0.25683  0.83371  0.90161  1.0000
  C   C836      1.0  0.22419  0.81806  0.90194  1.0000
  C   C837      1.0  0.21340  0.79762  0.88681  1.0000
  H   H658      1.0  0.28545  0.80344  0.85899  1.0000
  H   H659      1.0  0.30404  0.83998  0.88552  1.0000
  H   H660      1.0  0.20701  0.82186  0.91397  1.0000
  H   H661      1.0  0.18813  0.78598  0.88729  1.0000
  C   C838      1.0  0.05623  0.72898  0.77837  1.0000
  C   C839      1.0  0.05212  0.72404  0.75858  1.0000
  C   C840      1.0  0.01927  0.72638  0.74976  1.0000
  H   H662      1.0  0.35277  0.83010  0.98935  1.0000
  C   C841      1.0  0.27911  0.90751  0.85695  1.0000
  C   C842      1.0  0.02678  0.73596  0.78936  1.0000
  H   H663      1.0  0.07446  0.71850  0.74992  1.0000
  H   H664      1.0  0.01680  0.72276  0.73449  1.0000
  H   H665      1.0  0.27236  0.91886  0.87045  1.0000
  S   S123      1.0  0.37107  0.94677  0.70051  1.0000
  H   H666      1.0  0.21528  0.55902  0.83902  1.0000
  H   H667      1.0  0.12069  0.68728  0.73906  1.0000
  C   C843      1.0  0.13541  0.75106  0.73440  1.0000
  C   C844      1.0  0.18615  0.56118  0.90206  1.0000
  C   C845      1.0  0.16625  0.54504  0.88815  1.0000
  C   C846      1.0  0.15143  0.56237  0.87286  1.0000
  C   C847      1.0  0.15605  0.59595  0.87146  1.0000
  C   C848      1.0  0.17526  0.61206  0.88558  1.0000
  C   C849      1.0  0.19034  0.59473  0.90071  1.0000
  H   H668      1.0  0.16254  0.51926  0.88912  1.0000
  H   H669      1.0  0.13638  0.54975  0.86207  1.0000
  H   H670      1.0  0.17901  0.63785  0.88470  1.0000
  H   H671      1.0  0.20565  0.60739  0.91140  1.0000
  C   C850      1.0  0.46856  0.89825  0.90923  1.0000
  C   C851      1.0  0.44997  0.88941  0.89283  1.0000
  C   C852      1.0  0.46765  0.88305  0.87573  1.0000
  Fe  Fe59      1.0  0.31280  0.89632  0.92461  1.0000
  H   H672      1.0  0.09119  0.56797  0.82936  1.0000
  S   S124      1.0  0.44519  0.97846  0.68697  1.0000
  H   H673      1.0  0.42200  0.88685  0.89340  1.0000
  H   H674      1.0  0.45305  0.87590  0.86319  1.0000
  C   C853      1.0  0.05206  0.61069  0.86530  1.0000
  C   C854      1.0  0.24554  0.74217  0.69155  1.0000
  H   H675      1.0  0.40150  0.92261  0.99725  1.0000
  H   H676      1.0  0.38902  0.95113  0.84569  1.0000
  C   C855      1.0  0.05068  0.60695  0.89996  1.0000
  C   C856      1.0  0.06323  0.62169  0.88328  1.0000
  P   P30       1.0  0.06171  0.62223  0.92341  1.0000
  C   C857      1.0  0.18277  0.65697  0.70938  1.0000
  C   C858      1.0  0.07511  0.58779  0.93732  1.0000
  C   C859      1.0  0.06042  0.58098  0.95526  1.0000
  C   C860      1.0  0.07228  0.55484  0.96598  1.0000
  H   H677      1.0  0.15962  0.60982  0.67558  1.0000
  C   C861      1.0  0.17720  0.62499  0.73810  1.0000
  C   C862      1.0  0.10083  0.56730  0.93001  1.0000
  C   C863      1.0  0.20378  0.57357  0.82788  1.0000
  C   C864      1.0  0.06216  0.62910  0.71445  1.0000
  S   S125      1.0  0.37654  0.96754  0.93482  1.0000
  C   C865      1.0  0.42221  0.91121  0.81289  1.0000
  H   H678      1.0  0.06264  0.69101  0.91470  1.0000
  C   C866      1.0  0.09669  0.65173  0.92246  1.0000
  C   C867      1.0  0.08897  0.68392  0.91822  1.0000
  C   C868      1.0  0.11523  0.70741  0.91835  1.0000
  C   C869      1.0  0.14957  0.69898  0.92231  1.0000
  C   C870      1.0  0.15761  0.66703  0.92639  1.0000
  C   C871      1.0  0.13134  0.64353  0.92660  1.0000
  H   H679      1.0  0.06198  0.62203  0.85248  1.0000
  C   C872      1.0  0.49235  0.79234  0.90208  1.0000
  S   S126      1.0  0.33054  0.97402  0.98309  1.0000
  H   H680      1.0  0.27093  0.73969  0.69811  1.0000
  H   H681      1.0  0.08149  0.64167  0.88403  1.0000
  H   H682      1.0  0.03987  0.59563  0.96106  1.0000
  C   C873      1.0  0.08831  0.54368  0.82374  1.0000
  C   C874      1.0  0.35886  0.96268  0.82039  1.0000
  Fe  Fe60      1.0  0.37279  0.91397  0.67466  1.0000
  H   H683      1.0  0.11204  0.57162  0.91600  1.0000
  C   C875      1.0  0.30292  0.92184  0.78372  1.0000
  C   C876      1.0  0.41851  0.84991  0.82911  1.0000
  P   P31       1.0  0.35053  0.92118  0.81396  1.0000
  C   C877      1.0  0.24051  0.93986  0.97226  1.0000
  C   C878      1.0  0.01297  0.52566  0.68558  1.0000
  C   C879      1.0  0.31834  0.91729  0.75021  1.0000
  H   H684      1.0  0.10900  0.73212  0.91489  1.0000
  H   H685      1.0  0.16997  0.71711  0.92183  1.0000
  H   H686      1.0  0.18431  0.66034  0.92923  1.0000
  H   H687      1.0  0.13864  0.61921  0.92996  1.0000
  H   H688      1.0  0.31978  0.94131  0.85112  1.0000
  C   C880      1.0  0.20164  0.62354  0.81029  1.0000
  P   P32       1.0  0.12060  0.56707  0.79120  1.0000
  C   C881      1.0  0.08802  0.59775  0.78773  1.0000
  C   C882      1.0  0.15847  0.58166  0.80407  1.0000
  H   H689      1.0  0.18513  0.60453  0.74658  1.0000
  C   C883      1.0  0.00774  0.53284  0.75022  1.0000
  C   C884      1.0  0.21703  0.60435  0.82427  1.0000
  C   C885      1.0  0.19580  0.76758  0.98646  1.0000
  C   C886      1.0  0.01767  0.60884  0.69284  1.0000
  C   C887      1.0  0.06146  0.59304  0.77416  1.0000
  C   C888      1.0  0.03722  0.61720  0.77060  1.0000
  C   C889      1.0  0.03816  0.64561  0.78128  1.0000
  C   C890      1.0  0.06294  0.64955  0.79573  1.0000
  C   C891      1.0  0.08774  0.62574  0.79907  1.0000
  S   S127      1.0  0.42873  0.90054  0.67958  1.0000
  C   C892      1.0  0.29745  0.87726  0.82264  1.0000
  Fe  Fe61      1.0  0.33750  0.96271  0.91124  1.0000
  H   H690      1.0  0.30447  0.86495  0.80955  1.0000
  H   H691      1.0  0.10868  0.51558  0.96734  1.0000
  H   H692      1.0  0.36361  0.85712  0.83089  1.0000
  C   C893      1.0  0.27031  0.86480  0.83375  1.0000
  C   C894      1.0  0.17226  0.83026  0.99269  1.0000
  C   C895      1.0  0.00842  0.51673  0.78341  1.0000
  C   C896      1.0  0.48136  0.81345  0.91643  1.0000
  H   H693      1.0  0.05989  0.57085  0.76611  1.0000
  H   H694      1.0  0.01759  0.61389  0.75966  1.0000
  C   C897      1.0  0.15121  0.64558  0.74475  1.0000
  H   H695      1.0  0.06287  0.67130  0.80428  1.0000
  H   H696      1.0  0.10632  0.62925  0.81059  1.0000
  C   C898      1.0  0.08063  0.78555  0.71823  1.0000
  H   H697      1.0  0.20514  0.74344  0.98373  1.0000
  C   C899      1.0  0.18955  0.82307  0.72285  1.0000
  C   C900      1.0  0.21581  0.82140  0.70908  1.0000
  C   C901      1.0  0.24946  0.81265  0.71444  1.0000
  C   C902      1.0  0.25680  0.80523  0.73353  1.0000
  C   C903      1.0  0.23097  0.80833  0.74763  1.0000
  C   C904      1.0  0.19709  0.81660  0.74204  1.0000
  P   P33       1.0  0.23941  0.79674  0.77209  1.0000
  C   C905      1.0  0.28358  0.80442  0.77979  1.0000
  C   C906      1.0  0.21337  0.81943  0.78875  1.0000
  C   C907      1.0  0.20326  0.80593  0.80629  1.0000
  C   C908      1.0  0.18481  0.82427  0.81962  1.0000
  C   C909      1.0  0.17674  0.85627  0.81570  1.0000
  C   C910      1.0  0.18737  0.87012  0.79846  1.0000
  C   C911      1.0  0.20587  0.85187  0.78508  1.0000
  C   C912      1.0  0.29674  0.78788  0.79569  1.0000
  C   C913      1.0  0.33110  0.79296  0.80168  1.0000
  C   C914      1.0  0.35254  0.81455  0.79183  1.0000
  C   C915      1.0  0.33928  0.83188  0.77640  1.0000
  C   C916      1.0  0.30468  0.82744  0.77065  1.0000
  C   C917      1.0  0.23057  0.75402  0.77265  1.0000
  C   C918      1.0  0.19719  0.74213  0.77695  1.0000
  C   C919      1.0  0.19043  0.70899  0.77634  1.0000
  C   C920      1.0  0.21671  0.68760  0.77121  1.0000
  C   C921      1.0  0.24980  0.69928  0.76662  1.0000
  C   C922      1.0  0.25670  0.73237  0.76724  1.0000
  H   H698      1.0  0.16323  0.82907  0.71862  1.0000
  H   H699      1.0  0.21001  0.82642  0.69420  1.0000
  H   H700      1.0  0.26972  0.81109  0.70368  1.0000
  H   H701      1.0  0.28258  0.79691  0.73718  1.0000
  H   H702      1.0  0.17630  0.81759  0.75247  1.0000
  H   H703      1.0  0.21000  0.78141  0.80992  1.0000
  H   H704      1.0  0.17722  0.81373  0.83318  1.0000
  H   H705      1.0  0.16253  0.87034  0.82614  1.0000
  H   H706      1.0  0.18140  0.89506  0.79555  1.0000
  H   H707      1.0  0.21455  0.86316  0.77197  1.0000
  H   H708      1.0  0.28045  0.77099  0.80349  1.0000
  H   H709      1.0  0.34111  0.77991  0.81389  1.0000
  H   H710      1.0  0.37942  0.81794  0.79617  1.0000
  H   H711      1.0  0.35595  0.84862  0.76881  1.0000
  H   H712      1.0  0.29469  0.84183  0.75903  1.0000
  H   H713      1.0  0.17626  0.75826  0.78075  1.0000
  H   H714      1.0  0.16474  0.69992  0.77991  1.0000
  H   H715      1.0  0.21143  0.66197  0.77082  1.0000
  H   H716      1.0  0.27014  0.68268  0.76258  1.0000
  H   H717      1.0  0.28241  0.74104  0.76341  1.0000
  H   H718      1.0  0.15672  0.73813  0.74084  1.0000
  H   H719      1.0  0.17302  0.51351  0.72185  1.0000
  C   C923      1.0  0.08165  0.69392  0.68581  1.0000
  C   C924      1.0  0.12453  0.74398  0.71564  1.0000
  C   C925      1.0  0.20500  0.82121  0.99972  1.0000
  H   H720      1.0  0.04990  0.65455  0.96006  1.0000
  H   H721      1.0  0.12488  0.77819  0.76013  1.0000
  H   H722      1.0  0.06956  0.70179  0.69900  1.0000
  H   H723      1.0  0.09877  0.58975  0.67697  1.0000
  H   H724      1.0  0.02501  0.74900  0.84829  1.0000
  H   H725      1.0  0.01723  0.52994  0.73572  1.0000
  H   H726      1.0  0.26598  0.92316  0.76046  1.0000
  C   C926      1.0  0.12755  0.56321  0.75117  1.0000
  H   H727      1.0  0.16466  0.53845  0.82102  1.0000
  H   H728      1.0  0.45393  0.81871  0.91813  1.0000
  H   H729      1.0  0.05919  0.79862  0.71189  1.0000
  C   C927      1.0  0.26096  0.88008  0.85081  1.0000
  Fe  Fe62      1.0  0.38841  0.98690  0.68106  1.0000
  H   H730      1.0  0.47432  0.84928  0.82606  1.0000
  H   H731      1.0  0.99550  0.73673  0.90711  1.0000
  H   H732      1.0  0.21161  0.64762  0.80783  1.0000
  H   H733      1.0  0.06941  0.64192  0.72741  1.0000
  P   P34       1.0  0.14541  0.71259  0.70197  1.0000
  C   C928      1.0  0.15142  0.80807  0.98273  1.0000
  S   S128      1.0  0.29525  0.94682  0.93129  1.0000
  H   H734      1.0  0.45761  0.91136  0.98126  1.0000
  C   C929      1.0  0.21668  0.78969  0.99649  1.0000
  C   C930      1.0  0.14136  0.67212  0.73384  1.0000
  C   C931      1.0  0.21604  0.72915  0.70044  1.0000
  H   H735      1.0  0.13225  0.55915  0.72059  1.0000
  S   S129      1.0  0.44385  0.92087  0.73475  1.0000
  C   C932      1.0  0.29312  0.92086  0.76442  1.0000
  H   H736      1.0  0.29343  0.85077  0.98568  1.0000
  C   C933      1.0  0.45067  0.86278  0.82367  1.0000
  C   C934      1.0  0.09900  0.53550  0.95894  1.0000
  C   C935      1.0  0.17473  0.56217  0.81778  1.0000
  H   H737      1.0  0.28304  0.92527  0.79450  1.0000
  H   H738      1.0  0.01664  0.56972  0.91109  1.0000
  Fe  Fe63      1.0  0.33587  0.94737  0.95456  1.0000
  Fe  Fe64      1.0  0.38920  0.91605  0.92842  1.0000
  C   C936      1.0  0.11791  0.77422  0.74526  1.0000
  H   H739      1.0  0.41728  0.82641  0.83576  1.0000
  H   H740      1.0  0.47768  0.90362  0.81193  1.0000
  H   H741      1.0  0.13843  0.64099  0.75829  1.0000
  H   H742      1.0  0.07603  0.80841  0.74583  1.0000
  C   C937      1.0  0.08783  0.61622  0.70257  1.0000
  H   H743      1.0  0.99495  0.54404  0.95493  1.0000
  H   H744      1.0  0.31089  0.91661  0.73522  1.0000
  H   H745      1.0  0.21893  0.71697  0.71401  1.0000
  C   C938      1.0  0.13722  0.55065  0.76903  1.0000
  H   H746      1.0  0.37287  0.91220  0.74420  1.0000
  C   C939      1.0  0.09998  0.53604  0.80527  1.0000
  C   C940      1.0  0.18329  0.73149  0.69163  1.0000
  C   C941      1.0  0.02826  0.58516  0.86387  1.0000
  C   C942      1.0  0.36330  0.91570  0.77456  1.0000
  H   H747      1.0  0.09011  0.75849  0.69270  1.0000
  C   C943      1.0  0.24054  0.91673  0.00400  1.0000
  C   C944      1.0  0.46745  0.97429  0.86910  1.0000
  C   C945      1.0  0.99854  0.67451  0.95888  1.0000
  H   H748      1.0  0.06110  0.54979  0.97988  1.0000
  C   C946      1.0  0.31557  0.90514  0.82855  1.0000
  H   H749      1.0  0.11505  0.61858  0.70636  1.0000
  H   H750      1.0  0.21150  0.61358  0.71470  1.0000
  H   H751      1.0  0.39066  0.91373  0.77797  1.0000
  H   H752      1.0  0.25679  0.84297  0.82938  1.0000
  H   H753      1.0  0.01929  0.57687  0.84998  1.0000
  C   C947      1.0  0.38809  0.86756  0.82635  1.0000
  C   C948      1.0  0.19244  0.63032  0.72025  1.0000
  H   H754      1.0  0.24012  0.87024  0.85953  1.0000
  H   H755      1.0  0.42422  0.93496  0.80668  1.0000
  C   C949      1.0  0.02154  0.51408  0.76486  1.0000
  C   C950      1.0  0.35336  0.91485  0.75529  1.0000
  C   C951      1.0  0.23438  0.88597  0.99620  1.0000
  H   H756      1.0  0.03673  0.53231  0.69302  1.0000
  C   C952      1.0  0.33806  0.91867  0.78899  1.0000
  C   C953      1.0  0.23493  0.90933  0.96432  1.0000
  H   H757      1.0  0.23354  0.90629  0.94891  1.0000
  C   C954      1.0  0.38965  0.89825  0.81800  1.0000
  C   C955      1.0  0.45255  0.89350  0.81571  1.0000
  S   S130      1.0  0.15472  0.54199  0.68397  1.0000
  C   C956      1.0  0.37813  0.97009  0.83696  1.0000
  C   C957      1.0  0.11329  0.54180  0.94097  1.0000
  H   H758      1.0  0.33357  0.90685  0.99556  1.0000
  H   H759      1.0  0.02944  0.73997  0.80461  1.0000
  H   H760      1.0  0.23870  0.61359  0.83263  1.0000
  H   H761      1.0  0.00012  0.68512  0.97305  1.0000
  C   C958      1.0  0.11782  0.69620  0.68330  1.0000
  C   C959      1.0  0.17265  0.61217  0.80009  1.0000
  C   C960      1.0  0.45742  0.92181  0.99554  1.0000
  C   C961      1.0  0.02445  0.64303  0.93321  1.0000
  H   H762      1.0  0.16939  0.51539  0.78322  1.0000
  C   C962      1.0  0.30627  0.92007  0.84590  1.0000
  H   H763      1.0  0.46228  0.95845  0.88109  1.0000
  H   H764      1.0  0.47411  0.93548  0.84897  1.0000
  H   H765      1.0  0.19452  0.66052  0.69543  1.0000
  C   C963      1.0  0.01433  0.74269  0.87830  1.0000
  C   C964      1.0  0.23212  0.88247  0.97620  1.0000
  C   C965      1.0  0.02648  0.65693  0.95155  1.0000
  H   H766      1.0  0.47334  0.78096  0.89274  1.0000
  C   C966      1.0  0.48056  0.98168  0.83552  1.0000
  C   C967      1.0  0.48377  0.92975  0.74658  1.0000
  H   H767      1.0  0.16074  0.62754  0.78956  1.0000
  C   C968      1.0  0.16321  0.77676  0.97957  1.0000
  H   H768      1.0  0.24904  0.96705  0.99812  1.0000
  H   H769      1.0  0.47067  0.90153  0.77142  1.0000
  H   H770      1.0  0.24344  0.96062  0.96306  1.0000
  H   H771      1.0  0.24209  0.78221  0.00136  1.0000
  C   C969      1.0  0.30037  0.83869  0.99883  1.0000
  C   C970      1.0  0.99459  0.64834  0.92200  1.0000
  C   C971      1.0  0.07848  0.60009  0.68569  1.0000
  H   H772      1.0  0.16313  0.85468  0.99463  1.0000
  C   C972      1.0  0.17376  0.51169  0.75268  1.0000
  H   H773      1.0  0.06394  0.52634  0.84933  1.0000
  C   C973      1.0  0.04333  0.59670  0.68051  1.0000
  C   C974      1.0  0.07327  0.51996  0.83523  1.0000
  C   C975      1.0  0.02708  0.62543  0.70956  1.0000
  C   C976      1.0  0.07257  0.49931  0.90225  1.0000
  H   H774      1.0  0.14726  0.75976  0.97155  1.0000
  H   H775      1.0  0.12636  0.81532  0.97713  1.0000
  H   H776      1.0  0.13417  0.52695  0.93550  1.0000
  H   H777      1.0  0.05381  0.50592  0.93084  1.0000
  H   H778      1.0  0.01774  0.50092  0.79454  1.0000
  C   C977      1.0  0.01584  0.57036  0.88043  1.0000
  H   H779      1.0  0.27467  0.97405  0.68294  1.0000
  C   C978      1.0  0.33415  0.82690  0.00084  1.0000
  C   C979      1.0  0.43544  0.99034  0.77717  1.0000
  H   H780      1.0  0.41334  0.97403  0.77660  1.0000
  C   C980      1.0  0.00502  0.74664  0.85908  1.0000
  C   C981      1.0  0.16106  0.52519  0.76964  1.0000
  C   C982      1.0  0.09577  0.50440  0.79833  1.0000
  C   C983      1.0  0.16325  0.52387  0.73502  1.0000
  C   C984      1.0  0.24342  0.94352  0.99206  1.0000
  H   H781      1.0  0.32922  0.98282  0.79692  1.0000
  H   H782      1.0  0.47151  0.97353  0.94676  1.0000
  H   H783      1.0  0.43125  0.97939  0.97419  1.0000
  H   H784      1.0  0.00707  0.63546  0.71867  1.0000
  H   H785      1.0  0.48662  0.97104  0.82176  1.0000
  H   H786      1.0  0.21734  0.50887  0.86524  1.0000
  C   C985      1.0  0.42577  0.92817  0.00453  1.0000
  C   C986      1.0  0.04679  0.49961  0.91632  1.0000
  C   C987      1.0  0.48988  0.91724  0.76498  1.0000
  C   C988      1.0  0.34442  0.98779  0.80965  1.0000
  H   H787      1.0  0.44391  0.98877  0.74670  1.0000
  H   H788      1.0  0.00122  0.63755  0.83143  1.0000
  C   C989      1.0  0.24237  0.75821  0.67409  1.0000
  C   C990      1.0  0.32823  0.95538  0.00591  1.0000
  C   C991      1.0  0.48869  0.92833  0.00511  1.0000
  H   H789      1.0  0.09935  0.50482  0.90593  1.0000
  C   C992      1.0  0.45987  0.99670  0.94978  1.0000
  H   H790      1.0  0.43196  0.99776  0.80749  1.0000
  Fe  Fe65      1.0  0.87615  0.42148  0.17121  1.0000
  S   S131      1.0  0.87782  0.45871  0.19476  1.0000
  S   S132      1.0  0.82468  0.39453  0.16672  1.0000
  C   C993      1.0  0.49991  0.22444  0.26437  1.0000
  H   H791      1.0  0.97809  0.41517  0.26704  1.0000
  Fe  Fe66      1.0  0.93353  0.44409  0.19993  1.0000
  S   S133      1.0  0.89364  0.45691  0.14896  1.0000
  Fe  Fe67      1.0  0.69640  0.24647  0.07092  1.0000
  S   S134      1.0  0.73937  0.21488  0.08163  1.0000
  S   S135      1.0  0.69313  0.26725  0.04077  1.0000
  Fe  Fe68      1.0  0.66468  0.25274  0.11108  1.0000
  S   S136      1.0  0.70517  0.22112  0.12439  1.0000
  S   S137      1.0  0.62557  0.27937  0.12947  1.0000
  Fe  Fe69      1.0  0.74342  0.24922  0.10671  1.0000
  S   S138      1.0  0.79616  0.26628  0.11817  1.0000
  Fe  Fe70      1.0  0.69728  0.18969  0.09858  1.0000
  S   S139      1.0  0.68930  0.13521  0.09816  1.0000
  S   S140      1.0  0.70355  0.28256  0.09483  1.0000
  S   S141      1.0  0.65383  0.21955  0.08627  1.0000
  C   C994      1.0  0.67094  0.05774  0.13226  1.0000
  C   C995      1.0  0.89112  0.42674  0.33155  1.0000
  Fe  Fe71      1.0  0.62297  0.23748  0.32592  1.0000
  S   S142      1.0  0.60693  0.23483  0.29431  1.0000
  H   H792      1.0  0.93222  0.37655  0.10851  1.0000
  C   C996      1.0  0.57927  0.12924  0.23562  1.0000
  H   H793      1.0  0.78569  0.48343  0.02113  1.0000
  H   H794      1.0  0.67834  0.03077  0.23871  1.0000
  C   C997      1.0  0.63089  0.01451  0.22542  1.0000
  C   C998      1.0  0.56517  0.23119  0.28332  1.0000
  C   C999      1.0  0.53419  0.23147  0.29384  1.0000
  Fe  Fe72      1.0  0.94742  0.44200  0.15740  1.0000
  H   H795      1.0  0.83797  0.17549  0.06483  1.0000
  H   H796      1.0  0.55009  0.04184  0.23565  1.0000
  C   C1000     1.0  0.56321  0.22788  0.26329  1.0000
  H   H797      1.0  0.53517  0.23447  0.30922  1.0000
  H   H798      1.0  0.76347  0.20801  0.17190  1.0000
  C   C1001     1.0  0.50859  0.01567  0.28585  1.0000
  C   C1002     1.0  0.68692  0.11002  0.11861  1.0000
  C   C1003     1.0  0.69987  0.11966  0.13650  1.0000
  H   H799      1.0  0.71124  0.14340  0.13822  1.0000
  H   H800      1.0  0.70993  0.10547  0.16568  1.0000
  C   C1004     1.0  0.58711  0.25879  0.13610  1.0000
  C   C1005     1.0  0.57819  0.22941  0.12761  1.0000
  C   C1006     1.0  0.54759  0.21326  0.13308  1.0000
  C   C1007     1.0  0.52570  0.22625  0.14709  1.0000
  C   C1008     1.0  0.53378  0.25632  0.15508  1.0000
  C   C1009     1.0  0.56463  0.27242  0.14971  1.0000
  H   H801      1.0  0.59496  0.21905  0.11686  1.0000
  H   H802      1.0  0.54110  0.19033  0.12657  1.0000
  H   H803      1.0  0.51661  0.26693  0.16555  1.0000
  H   H804      1.0  0.57116  0.29542  0.15613  1.0000
  C   C1010     1.0  0.81753  0.35936  0.15263  1.0000
  C   C1011     1.0  0.84491  0.34024  0.14615  1.0000
  C   C1012     1.0  0.83789  0.31186  0.13562  1.0000
  C   C1013     1.0  0.80353  0.30258  0.13113  1.0000
  C   C1014     1.0  0.77617  0.32194  0.13738  1.0000
  C   C1015     1.0  0.78317  0.34991  0.14829  1.0000
  H   H805      1.0  0.87146  0.34704  0.14955  1.0000
  H   H806      1.0  0.85922  0.29688  0.13102  1.0000
  H   H807      1.0  0.74960  0.31503  0.13414  1.0000
  H   H808      1.0  0.76183  0.36424  0.15352  1.0000
  C   C1016     1.0  0.73793  0.21886  0.17172  1.0000
  C   C1017     1.0  0.82572  0.45378  0.06076  1.0000
  C   C1018     1.0  0.54101  0.06449  0.27856  1.0000
  C   C1019     1.0  0.67242  0.07900  0.11663  1.0000
  H   H809      1.0  0.65972  0.03398  0.13047  1.0000
  S   S143      1.0  0.95162  0.43670  0.23099  1.0000
  C   C1020     1.0  0.68858  0.21098  0.01928  1.0000
  C   C1021     1.0  0.69513  0.24412  0.01938  1.0000
  C   C1022     1.0  0.57700  0.07730  0.18892  1.0000
  H   H810      1.0  0.68235  0.19889  0.03253  1.0000
  H   H811      1.0  0.68393  0.35497  0.33763  1.0000
  H   H812      1.0  0.52221  0.17880  0.21342  1.0000
  H   H813      1.0  0.93924  0.42073  0.31578  1.0000
  H   H814      1.0  0.52974  0.22257  0.23853  1.0000
  C   C1023     1.0  0.88071  0.46909  0.29746  1.0000
  H   H815      1.0  0.78257  0.35682  0.30936  1.0000
  H   H816      1.0  0.96593  0.18760  0.02400  1.0000
  H   H817      1.0  0.86021  0.15472  0.02881  1.0000
  C   C1024     1.0  0.88517  0.44137  0.28609  1.0000
  C   C1025     1.0  0.57237  0.14253  0.32578  1.0000
  H   H818      1.0  0.71189  0.17590  0.18105  1.0000
  C   C1026     1.0  0.53704  0.03088  0.27726  1.0000
  P   P35       1.0  0.57452  0.08546  0.26529  1.0000
  C   C1027     1.0  0.55713  0.11532  0.24924  1.0000
  C   C1028     1.0  0.91419  0.16772  0.02651  1.0000
  C   C1029     1.0  0.67190  0.24646  0.16994  1.0000
  C   C1030     1.0  0.82159  0.46516  0.04208  1.0000
  H   H819      1.0  0.85129  0.44641  0.06537  1.0000
  H   H820      1.0  0.67617  0.13903  0.31585  1.0000
  C   C1031     1.0  0.52198  0.12435  0.24960  1.0000
  H   H821      1.0  0.53060  0.08107  0.20558  1.0000
  H   H822      1.0  0.52457  0.24442  0.19850  1.0000
  H   H823      1.0  0.61337  0.28296  0.22833  1.0000
  H   H824      1.0  0.56159  0.20626  0.18159  1.0000
  C   C1032     1.0  0.65659  0.12901  0.30629  1.0000
  C   C1033     1.0  0.53179  0.16083  0.22325  1.0000
  C   C1034     1.0  0.86751  0.20647  0.02971  1.0000
  S   S144      1.0  0.67781  0.22153  0.33200  1.0000
  H   H825      1.0  0.84383  0.46656  0.03260  1.0000
  H   H826      1.0  0.65131  0.12301  0.18021  1.0000
  C   C1035     1.0  0.51006  0.13522  0.32646  1.0000
  H   H827      1.0  0.52931  0.02029  0.32776  1.0000
  C   C1036     1.0  0.57806  0.03956  0.23657  1.0000
  C   C1037     1.0  0.52514  0.27941  0.08917  1.0000
  C   C1038     1.0  0.73200  0.35331  0.32236  1.0000
  C   C1039     1.0  0.53925  0.15257  0.32047  1.0000
  H   H828      1.0  0.95667  0.46629  0.28471  1.0000
  C   C1040     1.0  0.60448  0.46805  0.31864  1.0000
  H   H829      1.0  0.75711  0.26462  0.16158  1.0000
  C   C1041     1.0  0.73438  0.25085  0.16595  1.0000
  H   H830      1.0  0.68736  0.44032  0.31818  1.0000
  C   C1042     1.0  0.92031  0.40955  0.32519  1.0000
  C   C1043     1.0  0.63356  0.05472  0.25059  1.0000
  H   H831      1.0  0.65131  0.24472  0.21149  1.0000
  C   C1044     1.0  0.70134  0.26457  0.16496  1.0000
  H   H832      1.0  0.59273  0.09056  0.19915  1.0000
  H   H833      1.0  0.60403  0.15155  0.26980  1.0000
  C   C1045     1.0  0.55333  0.29569  0.09745  1.0000
  H   H834      1.0  0.52667  0.07826  0.00826  1.0000
  C   C1046     1.0  0.50945  0.14703  0.23667  1.0000
  C   C1047     1.0  0.71963  0.38887  0.12198  1.0000
  C   C1048     1.0  0.71018  0.36687  0.10769  1.0000
  C   C1049     1.0  0.72846  0.36628  0.09042  1.0000
  C   C1050     1.0  0.75619  0.38766  0.08746  1.0000
  C   C1051     1.0  0.76569  0.41008  0.10170  1.0000
  C   C1052     1.0  0.74735  0.41032  0.11907  1.0000
  P   P36       1.0  0.80155  0.43759  0.09738  1.0000
  C   C1053     1.0  0.80085  0.47138  0.11379  1.0000
  C   C1054     1.0  0.84274  0.41773  0.10069  1.0000
  C   C1055     1.0  0.87344  0.43623  0.10182  1.0000
  C   C1056     1.0  0.90559  0.42131  0.10432  1.0000
  H   H835      1.0  0.64937  0.17342  0.29101  1.0000
  C   C1057     1.0  0.87693  0.36930  0.10485  1.0000
  C   C1058     1.0  0.84467  0.38410  0.10234  1.0000
  C   C1059     1.0  0.51374  0.32630  0.11727  1.0000
  C   C1060     1.0  0.91846  0.49451  0.33120  1.0000
  C   C1061     1.0  0.96954  0.48947  0.28582  1.0000
  C   C1062     1.0  0.62912  0.00949  0.33199  1.0000
  C   C1063     1.0  0.80892  0.46648  0.13314  1.0000
  H   H836      1.0  0.94119  0.49073  0.11999  1.0000
  C   C1064     1.0  0.87667  0.47259  0.25728  1.0000
  C   C1065     1.0  0.92739  0.22480  0.02635  1.0000
  C   C1066     1.0  0.70855  0.20072  0.17682  1.0000
  H   H837      1.0  0.50328  0.00706  0.03338  1.0000
  H   H838      1.0  0.64486  0.46710  0.29731  1.0000
  H   H839      1.0  0.70585  0.38888  0.13550  1.0000
  H   H840      1.0  0.68893  0.35002  0.11011  1.0000
  H   H841      1.0  0.72124  0.34902  0.07940  1.0000
  H   H842      1.0  0.77030  0.38661  0.07407  1.0000
  H   H843      1.0  0.75433  0.42670  0.13052  1.0000
  H   H844      1.0  0.50385  0.11418  0.25961  1.0000
  C   C1067     1.0  0.79702  0.45194  0.07313  1.0000
  H   H845      1.0  0.82146  0.36919  0.10217  1.0000
  H   H846      1.0  0.74516  0.11845  0.07102  1.0000
  C   C1068     1.0  0.92544  0.37775  0.33094  1.0000
  C   C1069     1.0  0.70798  0.36766  0.33468  1.0000
  H   H847      1.0  0.88836  0.42212  0.25738  1.0000
  H   H848      1.0  0.81607  0.27354  0.00802  1.0000
  C   C1070     1.0  0.66178  0.44569  0.32374  1.0000
  C   C1071     1.0  0.76470  0.17468  0.03732  1.0000
  C   C1072     1.0  0.59717  0.05768  0.24996  1.0000
  P   P37       1.0  0.88381  0.46755  0.32341  1.0000
  C   C1073     1.0  0.76028  0.13601  0.06306  1.0000
  C   C1074     1.0  0.54179  0.02570  0.05289  1.0000
  S   S145      1.0  0.98562  0.43510  0.13350  1.0000
  C   C1075     1.0  0.67057  0.10722  0.20729  1.0000
  C   C1076     1.0  0.87876  0.17447  0.02844  1.0000
  C   C1077     1.0  0.76381  0.36843  0.31862  1.0000
  H   H849      1.0  0.81514  0.44263  0.13826  1.0000
  C   C1078     1.0  0.88369  0.44332  0.26613  1.0000
  C   C1079     1.0  0.81457  0.25007  0.04672  1.0000
  C   C1080     1.0  0.78449  0.26850  0.04430  1.0000
  C   C1081     1.0  0.77712  0.29372  0.05694  1.0000
  C   C1082     1.0  0.79959  0.30054  0.07218  1.0000
  C   C1083     1.0  0.82959  0.28226  0.07470  1.0000
  C   C1084     1.0  0.83689  0.25686  0.06217  1.0000
  C   C1085     1.0  0.65716  0.13021  0.19479  1.0000
  C   C1086     1.0  0.65240  0.16213  0.20093  1.0000
  C   C1087     1.0  0.67976  0.11591  0.22595  1.0000
  C   C1088     1.0  0.62356  0.24380  0.20883  1.0000
  H   H850      1.0  0.80431  0.13376  0.08202  1.0000
  H   H851      1.0  0.92275  0.14296  0.02567  1.0000
  H   H852      1.0  0.79614  0.40994  0.32404  1.0000
  C   C1089     1.0  0.69903  0.09811  0.15206  1.0000
  H   H853      1.0  0.87599  0.47392  0.24177  1.0000
  H   H854      1.0  0.87250  0.46225  0.10102  1.0000
  H   H855      1.0  0.62715  0.15643  0.11678  1.0000
  H   H856      1.0  0.58354  0.04037  0.14552  1.0000
  C   C1090     1.0  0.50181  0.22775  0.28442  1.0000
  C   C1091     1.0  0.67497  0.14751  0.23226  1.0000
  H   H857      1.0  0.59492  0.15610  0.32115  1.0000
  H   H858      1.0  0.57634  0.04098  0.07566  1.0000
  H   H859      1.0  0.71931  0.14534  0.04285  1.0000
  H   H860      1.0  0.75320  0.30707  0.05528  1.0000
  H   H861      1.0  0.79309  0.31903  0.08253  1.0000
  H   H862      1.0  0.84613  0.28670  0.08703  1.0000
  H   H863      1.0  0.85922  0.24191  0.06500  1.0000
  C   C1092     1.0  0.79369  0.14464  0.06924  1.0000
  H   H864      1.0  0.57974  0.28952  0.09347  1.0000
  H   H865      1.0  0.61145  0.05953  0.29818  1.0000
  H   H866      1.0  0.57949  0.00245  0.21517  1.0000
  C   C1093     1.0  0.59474  0.01754  0.22471  1.0000
  S   S146      1.0  0.93005  0.40378  0.17807  1.0000
  H   H867      1.0  0.75254  0.18705  0.02555  1.0000
  C   C1094     1.0  0.74575  0.15111  0.04715  1.0000
  H   H868      1.0  0.72626  0.32985  0.31620  1.0000
  C   C1095     1.0  0.74734  0.41286  0.33912  1.0000
  C   C1096     1.0  0.81269  0.16819  0.05941  1.0000
  H   H869      1.0  0.64646  0.25733  0.16868  1.0000
  C   C1097     1.0  0.90733  0.38789  0.10598  1.0000
  H   H870      1.0  0.94617  0.24430  0.02537  1.0000
  H   H871      1.0  0.67448  0.08273  0.20231  1.0000
  H   H872      1.0  0.73468  0.48001  0.04278  1.0000
  H   H873      1.0  0.94835  0.36492  0.32618  1.0000
  H   H874      1.0  0.69841  0.28895  0.15979  1.0000
  H   H875      1.0  0.92919  0.43564  0.10549  1.0000
  C   C1098     1.0  0.54180  0.07135  0.19262  1.0000
  C   C1099     1.0  0.64551  0.09711  0.30844  1.0000
  H   H876      1.0  0.69091  0.09822  0.23544  1.0000
  C   C1100     1.0  0.63775  0.46096  0.31185  1.0000
  H   H877      1.0  0.52098  0.10775  0.29144  1.0000
  H   H878      1.0  0.64912  0.06894  0.26042  1.0000
  C   C1101     1.0  0.56674  0.15220  0.22292  1.0000
  C   C1102     1.0  0.60489  0.10345  0.28203  1.0000
  C   C1103     1.0  0.59188  0.06644  0.17187  1.0000
  C   C1104     1.0  0.78883  0.47467  0.03561  1.0000
  C   C1105     1.0  0.51403  0.10760  0.33761  1.0000
  C   C1106     1.0  0.79860  0.18288  0.04310  1.0000
  H   H879      1.0  0.58422  0.16364  0.21302  1.0000
  H   H880      1.0  0.55547  0.01610  0.26961  1.0000
  C   C1107     1.0  0.52157  0.05348  0.17951  1.0000
  H   H881      1.0  0.65844  0.19483  0.22504  1.0000
  H   H882      1.0  0.61896  0.07146  0.16886  1.0000
  H   H883      1.0  0.66239  0.07130  0.10287  1.0000
  H   H884      1.0  0.87825  0.34341  0.10641  1.0000
  C   C1108     1.0  0.53082  0.22484  0.25388  1.0000
  S   S147      1.0  0.68401  0.04053  0.16994  1.0000
  H   H885      1.0  0.65384  0.18689  0.14324  1.0000
  C   C1109     1.0  0.64157  0.14834  0.29225  1.0000
  C   C1110     1.0  0.54762  0.31917  0.11143  1.0000
  H   H886      1.0  0.88983  0.41811  0.29232  1.0000
  H   H887      1.0  0.54986  0.28295  0.22198  1.0000
  H   H888      1.0  0.76610  0.26272  0.03303  1.0000
  C   C1111     1.0  0.53680  0.04252  0.16247  1.0000
  C   C1112     1.0  0.61563  0.13575  0.28025  1.0000
  C   C1113     1.0  0.57178  0.04921  0.15862  1.0000
  H   H889      1.0  0.58691  0.22774  0.25497  1.0000
  H   H890      1.0  0.81609  0.48831  0.16090  1.0000
  H   H891      1.0  0.65668  0.08250  0.31967  1.0000
  H   H892      1.0  0.54794  0.12108  0.15464  1.0000
  H   H893      1.0  0.52162  0.02882  0.15212  1.0000
  H   H894      1.0  0.60637  0.12254  0.23497  1.0000
  C   C1114     1.0  0.51767  0.08202  0.28984  1.0000
  H   H895      1.0  0.57502  0.15055  0.18140  1.0000
  C   C1115     1.0  0.61966  0.08436  0.29641  1.0000
  H   H896      1.0  0.56972  0.33095  0.11823  1.0000
  C   C1116     1.0  0.66136  0.17054  0.21983  1.0000
  C   C1117     1.0  0.68462  0.06703  0.15002  1.0000
  H   H897      1.0  0.57454  0.12299  0.12234  1.0000
  H   H898      1.0  0.68213  0.15431  0.24675  1.0000
  S   S148      1.0  0.95452  0.48101  0.17947  1.0000
  C   C1118     1.0  0.61574  0.15532  0.13093  1.0000
  C   C1119     1.0  0.58607  0.13651  0.13405  1.0000
  C   C1120     1.0  0.57120  0.13541  0.15224  1.0000
  C   C1121     1.0  0.58650  0.15252  0.16739  1.0000
  C   C1122     1.0  0.61621  0.17182  0.16435  1.0000
  C   C1123     1.0  0.63077  0.17283  0.14599  1.0000
  P   P38       1.0  0.63743  0.19229  0.18422  1.0000
  C   C1124     1.0  0.67532  0.21458  0.17626  1.0000
  C   C1125     1.0  0.60929  0.22115  0.19594  1.0000
  C   C1126     1.0  0.57345  0.22205  0.19206  1.0000
  C   C1127     1.0  0.55220  0.24415  0.20150  1.0000
  C   C1128     1.0  0.56650  0.26600  0.21460  1.0000
  C   C1129     1.0  0.60221  0.26589  0.21823  1.0000
  C   C1130     1.0  0.76011  0.47277  0.04781  1.0000
  H   H899      1.0  0.53632  0.17367  0.31162  1.0000
  C   C1131     1.0  0.89198  0.23161  0.02830  1.0000
  C   C1132     1.0  0.65031  0.03321  0.23828  1.0000
  C   C1133     1.0  0.55334  0.02702  0.07187  1.0000
  C   C1134     1.0  0.55706  0.01700  0.32916  1.0000
  H   H900      1.0  0.74168  0.46018  0.07583  1.0000
  H   H901      1.0  0.81223  0.47245  0.30837  1.0000
  C   C1135     1.0  0.76416  0.46145  0.06650  1.0000
  H   H902      1.0  0.55578  0.03892  0.04198  1.0000
  C   C1136     1.0  0.51228  0.00737  0.04806  1.0000
  C   C1137     1.0  0.93851  0.19286  0.02554  1.0000
  H   H903      1.0  0.52977  0.26077  0.07861  1.0000
  P   P39       1.0  0.82185  0.21542  0.03166  1.0000
  Fe  Fe73      1.0  0.89892  0.49290  0.17264  1.0000
  H   H904      1.0  0.54384  0.01158  0.10086  1.0000
  C   C1138     1.0  0.77148  0.39824  0.32697  1.0000
  C   C1139     1.0  0.84377  0.48232  0.33353  1.0000
  H   H905      1.0  0.51023  0.34395  0.12848  1.0000
  C   C1140     1.0  0.53506  0.01051  0.08608  1.0000
  C   C1141     1.0  0.80766  0.22189  0.00732  1.0000
  H   H906      1.0  0.65698  0.00635  0.33332  1.0000
  C   C1142     1.0  0.80942  0.49231  0.14602  1.0000
  C   C1143     1.0  0.81278  0.48189  0.32284  1.0000
  H   H907      1.0  0.58583  0.47972  0.30937  1.0000
  C   C1144     1.0  0.57648  0.11558  0.33741  1.0000
  H   H908      1.0  0.88366  0.25646  0.02863  1.0000
  C   C1145     1.0  0.99270  0.44313  0.24239  1.0000
  C   C1146     1.0  0.59522  0.45999  0.33736  1.0000
  C   C1147     1.0  0.78203  0.49374  0.33081  1.0000
  H   H909      1.0  0.75824  0.49367  0.32248  1.0000
  C   C1148     1.0  0.94938  0.48284  0.33933  1.0000
  Fe  Fe74      1.0  0.85727  0.43760  0.64635  1.0000
  S   S149      1.0  0.89941  0.42088  0.66642  1.0000
  S   S150      1.0  0.84064  0.41945  0.57645  1.0000
  H   H910      1.0  0.49834  0.16744  0.65277  1.0000
  S   S151      1.0  0.82366  0.40300  0.62969  1.0000
  C   C1149     1.0  0.69114  0.47821  0.37532  1.0000
  C   C1150     1.0  0.59250  0.17148  0.57989  1.0000
  H   H911      1.0  0.54721  0.21950  0.60724  1.0000
  H   H912      1.0  0.60246  0.10849  0.34162  1.0000
  C   C1151     1.0  0.56841  0.16625  0.43182  1.0000
  C   C1152     1.0  0.96188  0.38971  0.59650  1.0000
  S   S152      1.0  0.71933  0.05466  0.64763  1.0000
  H   H913      1.0  0.96337  0.36637  0.60329  1.0000
  H   H914      1.0  0.49465  0.20415  0.62514  1.0000
  S   S153      1.0  0.87534  0.49675  0.44748  1.0000
  H   H915      1.0  0.63193  0.24529  0.57807  1.0000
  C   C1153     1.0  0.57566  0.03443  0.34303  1.0000
  H   H916      1.0  0.69641  0.39129  0.61827  1.0000
  C   C1154     1.0  0.59246  0.14707  0.44169  1.0000
  C   C1155     1.0  0.49644  0.17798  0.44532  1.0000
  H   H917      1.0  0.60721  0.32669  0.40300  1.0000
  Fe  Fe75      1.0  0.89088  0.44970  0.43419  1.0000
  S   S154      1.0  0.94907  0.44232  0.43223  1.0000
  C   C1156     1.0  0.84727  0.42223  0.53734  1.0000
  S   S155      1.0  0.77560  0.38724  0.42320  1.0000
  S   S156      1.0  0.85561  0.42021  0.45315  1.0000
  C   C1157     1.0  0.51613  0.08714  0.65611  1.0000
  H   H918      1.0  0.63045  0.04437  0.60116  1.0000
  C   C1158     1.0  0.52151  0.25454  0.36433  1.0000
  C   C1159     1.0  0.81941  0.46809  0.55195  1.0000
  Fe  Fe76      1.0  0.81655  0.42646  0.42920  1.0000
  C   C1160     1.0  0.61010  0.19917  0.58648  1.0000
  S   S157      1.0  0.72392  0.06580  0.43118  1.0000
  C   C1161     1.0  0.74091  0.37584  0.60236  1.0000
  Fe  Fe77      1.0  0.61031  0.24903  0.36835  1.0000
  S   S158      1.0  0.57252  0.26328  0.39132  1.0000
  C   C1162     1.0  0.61320  0.47763  0.54103  1.0000
  S   S159      1.0  0.78001  0.46626  0.61568  1.0000
  Fe  Fe78      1.0  0.65513  0.19295  0.35621  1.0000
  S   S160      1.0  0.66699  0.13962  0.35796  1.0000
  S   S161      1.0  0.72692  0.41451  0.65326  1.0000
  S   S162      1.0  0.66323  0.23264  0.37764  1.0000
  C   C1163     1.0  0.68284  0.12005  0.37860  1.0000
  C   C1164     1.0  0.68973  0.13658  0.39572  1.0000
  C   C1165     1.0  0.70224  0.11973  0.41177  1.0000
  C   C1166     1.0  0.70802  0.08637  0.41082  1.0000
  C   C1167     1.0  0.70076  0.06998  0.39374  1.0000
  C   C1168     1.0  0.68841  0.08675  0.37772  1.0000
  H   H919      1.0  0.68539  0.16224  0.39656  1.0000
  H   H920      1.0  0.70697  0.13241  0.42504  1.0000
  H   H921      1.0  0.70456  0.04432  0.39284  1.0000
  H   H922      1.0  0.68303  0.07377  0.36459  1.0000
  C   C1169     1.0  0.76476  0.36118  0.40379  1.0000
  C   C1170     1.0  0.78430  0.35974  0.38691  1.0000
  C   C1171     1.0  0.77365  0.33917  0.37180  1.0000
  C   C1172     1.0  0.74327  0.32015  0.37332  1.0000
  C   C1173     1.0  0.72381  0.32177  0.39013  1.0000
  C   C1174     1.0  0.73482  0.34172  0.40537  1.0000
  H   H923      1.0  0.80742  0.37452  0.38552  1.0000
  C   C1175     1.0  0.93338  0.45060  0.51615  1.0000
  H   H924      1.0  0.70007  0.30783  0.39132  1.0000
  H   H925      1.0  0.71964  0.34254  0.41838  1.0000
  C   C1176     1.0  0.51364  0.06893  0.45877  1.0000
  C   C1177     1.0  0.96305  0.41459  0.37710  1.0000
  C   C1178     1.0  0.94743  0.42146  0.39479  1.0000
  C   C1179     1.0  0.96686  0.43626  0.40931  1.0000
  H   H926      1.0  0.88166  0.27953  0.38725  1.0000
  H   H927      1.0  0.58553  0.15245  0.58975  1.0000
  H   H928      1.0  0.68298  0.24140  0.60449  1.0000
  H   H929      1.0  0.92077  0.41423  0.39741  1.0000
  H   H930      1.0  0.78885  0.33813  0.35880  1.0000
  C   C1180     1.0  0.70447  0.44698  0.37320  1.0000
  C   C1181     1.0  0.65951  0.38852  0.37238  1.0000
  S   S163      1.0  0.81208  0.46387  0.65918  1.0000
  C   C1182     1.0  0.82825  0.46641  0.51721  1.0000
  C   C1183     1.0  0.95812  0.45104  0.57993  1.0000
  C   C1184     1.0  0.62166  0.34409  0.39456  1.0000
  C   C1185     1.0  0.93023  0.40597  0.59597  1.0000
  H   H931      1.0  0.59327  0.34901  0.61132  1.0000
  H   H932      1.0  0.64632  0.14042  0.44942  1.0000
  C   C1186     1.0  0.68549  0.07651  0.65868  1.0000
  H   H933      1.0  0.80975  0.48038  0.56452  1.0000
  C   C1187     1.0  0.50678  0.15954  0.40552  1.0000
  H   H934      1.0  0.85426  0.36818  0.35927  1.0000
  C   C1188     1.0  0.96997  0.41743  0.67135  1.0000
  C   C1189     1.0  0.65077  0.06657  0.65743  1.0000
  C   C1190     1.0  0.51672  0.04591  0.44422  1.0000
  C   C1191     1.0  0.73869  0.49228  0.39671  1.0000
  H   H935      1.0  0.74437  0.29755  0.66043  1.0000
  H   H936      1.0  0.64423  0.04554  0.64902  1.0000
  H   H937      1.0  0.85286  0.42368  0.50650  1.0000
  H   H938      1.0  0.85945  0.39897  0.53866  1.0000
  C   C1192     1.0  0.71482  0.37464  0.65950  1.0000
  H   H939      1.0  0.84489  0.42408  0.34941  1.0000
  H   H940      1.0  0.58636  0.18966  0.53256  1.0000
  C   C1193     1.0  0.90155  0.36280  0.34312  1.0000
  H   H941      1.0  0.75726  0.23070  0.34693  1.0000
  C   C1194     1.0  0.73717  0.34864  0.65681  1.0000
  C   C1195     1.0  0.60979  0.26386  0.62848  1.0000
  C   C1196     1.0  0.83540  0.43817  0.55386  1.0000
  H   H942      1.0  0.53573  0.01150  0.63921  1.0000
  H   H943      1.0  0.76263  0.35261  0.65062  1.0000
  C   C1197     1.0  0.63299  0.36956  0.36406  1.0000
  H   H944      1.0  0.78512  0.28572  0.43414  1.0000
  C   C1198     1.0  0.75995  0.16009  0.37119  1.0000
  C   C1199     1.0  0.94279  0.42493  0.65875  1.0000
  C   C1200     1.0  0.95059  0.43660  0.64052  1.0000
  C   C1201     1.0  0.61084  0.43918  0.62271  1.0000
  H   H945      1.0  0.62719  0.04455  0.35450  1.0000
  C   C1202     1.0  0.67507  0.28764  0.61751  1.0000
  H   H946      1.0  0.92987  0.44268  0.63082  1.0000
  C   C1203     1.0  0.49619  0.26837  0.64336  1.0000
  H   H947      1.0  0.86684  0.49416  0.36106  1.0000
  C   C1204     1.0  0.60943  0.10666  0.40097  1.0000
  C   C1205     1.0  0.61950  0.08063  0.41225  1.0000
  C   C1206     1.0  0.61013  0.04935  0.40686  1.0000
  C   C1207     1.0  0.59040  0.04412  0.39031  1.0000
  C   C1208     1.0  0.58025  0.07022  0.37893  1.0000
  C   C1209     1.0  0.58995  0.10153  0.38435  1.0000
  P   P40       1.0  0.55342  0.06281  0.35824  1.0000
  H   H948      1.0  0.71790  0.44265  0.56600  1.0000
  C   C1210     1.0  0.64575  0.45760  0.57488  1.0000
  H   H949      1.0  0.55520  0.14513  0.66221  1.0000
  H   H950      1.0  0.61689  0.23893  0.54402  1.0000
  S   S164      1.0  0.62900  0.28154  0.34477  1.0000
  C   C1211     1.0  0.81621  0.48226  0.53374  1.0000
  H   H951      1.0  0.90703  0.39514  0.60210  1.0000
  H   H952      1.0  0.58353  0.01964  0.38626  1.0000
  H   H953      1.0  0.52416  0.03788  0.41401  1.0000
  H   H954      1.0  0.66762  0.48532  0.36803  1.0000
  C   C1212     1.0  0.66497  0.25635  0.61238  1.0000
  S   S165      1.0  0.73074  0.29445  0.35405  1.0000
  H   H955      1.0  0.59367  0.33294  0.36871  1.0000
  C   C1213     1.0  0.71345  0.13974  0.62846  1.0000
  H   H956      1.0  0.57083  0.14645  0.55549  1.0000
  C   C1214     1.0  0.52143  0.05569  0.42529  1.0000
  P   P41       1.0  0.95497  0.49010  0.56886  1.0000
  C   C1215     1.0  0.60406  0.05210  0.60400  1.0000
  H   H957      1.0  0.61783  0.13081  0.40462  1.0000
  H   H958      1.0  0.63559  0.08455  0.42482  1.0000
  C   C1216     1.0  0.62516  0.39059  0.60522  1.0000
  H   H959      1.0  0.55773  0.37704  0.63576  1.0000
  H   H960      1.0  0.58306  0.12200  0.37572  1.0000
  P   P42       1.0  0.52321  0.15392  0.42959  1.0000
  C   C1217     1.0  0.72330  0.42341  0.57594  1.0000
  H   H961      1.0  0.87191  0.32972  0.40592  1.0000
  C   C1218     1.0  0.68192  0.36908  0.66772  1.0000
  C   C1219     1.0  0.62475  0.08378  0.66718  1.0000
  C   C1220     1.0  0.51957  0.11172  0.43536  1.0000
  C   C1221     1.0  0.73495  0.43877  0.38302  1.0000
  C   C1222     1.0  0.70201  0.41818  0.59196  1.0000
  C   C1223     1.0  0.64451  0.43716  0.55883  1.0000
  H   H962      1.0  0.54196  0.25692  0.35381  1.0000
  C   C1224     1.0  0.62018  0.29501  0.63376  1.0000
  H   H963      1.0  0.72068  0.11227  0.67022  1.0000
  C   C1225     1.0  0.72681  0.31749  0.66248  1.0000
  C   C1226     1.0  0.56414  0.09277  0.61515  1.0000
  C   C1227     1.0  0.64792  0.36282  0.40298  1.0000
  C   C1228     1.0  0.66682  0.38491  0.39197  1.0000
  H   H964      1.0  0.65399  0.35997  0.41801  1.0000
  H   H965      1.0  0.68725  0.39875  0.39887  1.0000
  H   H966      1.0  0.73499  0.12456  0.63264  1.0000
  H   H967      1.0  0.77531  0.45447  0.40227  1.0000
  H   H968      1.0  0.51580  0.02049  0.44761  1.0000
  H   H969      1.0  0.78486  0.36667  0.58402  1.0000
  H   H970      1.0  0.74854  0.35837  0.61301  1.0000
  P   P43       1.0  0.68330  0.41740  0.35796  1.0000
  H   H971      1.0  0.61163  0.43867  0.36379  1.0000
  C   C1229     1.0  0.58380  0.16912  0.63988  1.0000
  H   H972      1.0  0.93598  0.42745  0.50912  1.0000
  H   H973      1.0  0.72121  0.25406  0.40110  1.0000
  C   C1230     1.0  0.58435  0.42251  0.63228  1.0000
  C   C1231     1.0  0.61530  0.20344  0.42382  1.0000
  H   H974      1.0  0.60094  0.48548  0.52788  1.0000
  C   C1232     1.0  0.58409  0.16802  0.56051  1.0000
  H   H975      1.0  0.70067  0.29666  0.61370  1.0000
  H   H976      1.0  0.76890  0.40836  0.56051  1.0000
  H   H977      1.0  0.73148  0.00978  0.52619  1.0000
  H   H978      1.0  0.56201  0.21025  0.41584  1.0000
  C   C1233     1.0  0.68631  0.47661  0.63016  1.0000
  H   H979      1.0  0.58475  0.25510  0.63330  1.0000
  H   H980      1.0  0.84311  0.11987  0.45923  1.0000
  H   H981      1.0  0.90372  0.44874  0.58757  1.0000
  H   H982      1.0  0.75581  0.13448  0.36902  1.0000
  C   C1234     1.0  0.54941  0.20283  0.61905  1.0000
  H   H983      1.0  0.51035  0.06133  0.47347  1.0000
  C   C1235     1.0  0.54198  0.04122  0.60414  1.0000
  C   C1236     1.0  0.75199  0.46130  0.39466  1.0000
  C   C1237     1.0  0.52935  0.25679  0.38384  1.0000
  C   C1238     1.0  0.51292  0.04818  0.36811  1.0000
  H   H984      1.0  0.75364  0.43611  0.34522  1.0000
  S   S166      1.0  0.79571  0.47230  0.44199  1.0000
  H   H985      1.0  0.66662  0.19012  0.43318  1.0000
  Fe  Fe79      1.0  0.82773  0.43980  0.60602  1.0000
  C   C1239     1.0  0.61197  0.03090  0.34418  1.0000
  C   C1240     1.0  0.75242  0.40419  0.57285  1.0000
  H   H986      1.0  0.60340  0.30963  0.64265  1.0000
  H   H987      1.0  0.94827  0.40213  0.36619  1.0000
  S   S167      1.0  0.60025  0.20671  0.34914  1.0000
  C   C1241     1.0  0.61409  0.34759  0.37515  1.0000
  S   S168      1.0  0.85337  0.45284  0.40937  1.0000
  C   C1242     1.0  0.92842  0.43654  0.58780  1.0000
  C   C1243     1.0  0.55364  0.16087  0.65000  1.0000
  H   H988      1.0  0.67600  0.45615  0.63789  1.0000
  C   C1244     1.0  0.91702  0.47577  0.50658  1.0000
  H   H989      1.0  0.66818  0.27511  0.41627  1.0000
  C   C1245     1.0  0.59813  0.08272  0.61155  1.0000
  C   C1246     1.0  0.50259  0.25396  0.39738  1.0000
  C   C1247     1.0  0.59288  0.19232  0.54759  1.0000
  C   C1248     1.0  0.62950  0.48770  0.57404  1.0000
  H   H990      1.0  0.52760  0.09567  0.40629  1.0000
  H   H991      1.0  0.82374  0.33232  0.42933  1.0000
  H   H992      1.0  0.74547  0.41479  0.38177  1.0000
  C   C1249     1.0  0.94518  0.45492  0.53495  1.0000
  C   C1250     1.0  0.53579  0.07197  0.61183  1.0000
  C   C1251     1.0  0.59841  0.37409  0.61465  1.0000
  C   C1252     1.0  0.57601  0.03140  0.60023  1.0000
  Fe  Fe80      1.0  0.83698  0.46777  0.46459  1.0000
  H   H993      1.0  0.84324  0.23224  0.39191  1.0000
  H   H994      1.0  0.51333  0.11931  0.46584  1.0000
  H   H995      1.0  0.60842  0.15932  0.64454  1.0000
  C   C1253     1.0  0.66640  0.15175  0.60660  1.0000
  C   C1254     1.0  0.51597  0.17030  0.37172  1.0000
  H   H996      1.0  0.58442  0.12490  0.44849  1.0000
  H   H997      1.0  0.64044  0.37796  0.59460  1.0000
  C   C1255     1.0  0.62772  0.15582  0.44231  1.0000
  C   C1256     1.0  0.63220  0.24419  0.61779  1.0000
  H   H998      1.0  0.50857  0.25559  0.41248  1.0000
  H   H999      1.0  0.71853  0.17134  0.65286  1.0000
  H   H1000     1.0  0.61997  0.09842  0.61490  1.0000
  C   C1257     1.0  0.61014  0.22007  0.55405  1.0000
  H   H1001     1.0  0.90571  0.33822  0.34766  1.0000
  C   C1258     1.0  0.67565  0.18490  0.63484  1.0000
  C   C1259     1.0  0.65267  0.30697  0.62816  1.0000
  C   C1260     1.0  0.65666  0.17803  0.61809  1.0000
  H   H1002     1.0  0.54229  0.08727  0.65057  1.0000
  H   H1003     1.0  0.70171  0.11190  0.60326  1.0000
  C   C1261     1.0  0.86743  0.41157  0.34400  1.0000
  C   C1262     1.0  0.61350  0.49775  0.55712  1.0000
  H   H1004     1.0  0.59910  0.00077  0.63702  1.0000
  C   C1263     1.0  0.84355  0.43616  0.51908  1.0000
  H   H1005     1.0  0.62681  0.37171  0.34900  1.0000
  H   H1006     1.0  0.62817  0.43162  0.52947  1.0000
  C   C1264     1.0  0.58191  0.19066  0.62448  1.0000
  Fe  Fe81      1.0  0.77866  0.43184  0.64064  1.0000
  C   C1265     1.0  0.76137  0.38054  0.58609  1.0000
  C   C1266     1.0  0.69452  0.13255  0.61190  1.0000
  S   S169      1.0  0.86480  0.47237  0.62221  1.0000
  C   C1267     1.0  0.63919  0.18382  0.43318  1.0000
  Fe  Fe82      1.0  0.68177  0.26282  0.35301  1.0000
  C   C1268     1.0  0.58010  0.19486  0.42329  1.0000
  H   H1007     1.0  0.66092  0.33092  0.63253  1.0000
  C   C1269     1.0  0.57824  0.38994  0.62832  1.0000
  C   C1270     1.0  0.71136  0.39461  0.60530  1.0000
  C   C1271     1.0  0.51948  0.19425  0.62917  1.0000
  H   H1008     1.0  0.55985  0.11653  0.62089  1.0000
  C   C1272     1.0  0.52155  0.17347  0.64472  1.0000
  H   H1009     1.0  0.65248  0.14581  0.59361  1.0000
  C   C1273     1.0  0.62857  0.44730  0.54191  1.0000
  C   C1274     1.0  0.84336  0.49394  0.35243  1.0000
  C   C1275     1.0  0.70409  0.16598  0.63988  1.0000
  H   H1010     1.0  0.65593  0.41343  0.55934  1.0000
  H   H1011     1.0  0.61876  0.02907  0.41527  1.0000
  C   C1276     1.0  0.54732  0.09815  0.34369  1.0000
  P   P44       1.0  0.62038  0.20315  0.61163  1.0000
  H   H1012     1.0  0.66851  0.20484  0.64408  1.0000
  H   H1013     1.0  0.52475  0.12367  0.58772  1.0000
  H   H1014     1.0  0.61476  0.46455  0.62569  1.0000
  C   C1277     1.0  0.76058  0.21425  0.35878  1.0000
  C   C1278     1.0  0.76897  0.22620  0.37696  1.0000
  C   C1279     1.0  0.77286  0.20516  0.39249  1.0000
  C   C1280     1.0  0.76833  0.17191  0.38940  1.0000
  P   P45       1.0  0.78226  0.22117  0.41613  1.0000
  C   C1281     1.0  0.74257  0.23488  0.42723  1.0000
  C   C1282     1.0  0.80182  0.19007  0.43054  1.0000
  C   C1283     1.0  0.83776  0.18990  0.43418  1.0000
  C   C1284     1.0  0.85254  0.16478  0.44464  1.0000
  C   C1285     1.0  0.83161  0.13961  0.45142  1.0000
  C   C1286     1.0  0.79581  0.13972  0.44795  1.0000
  C   C1287     1.0  0.78095  0.16500  0.43775  1.0000
  C   C1288     1.0  0.73774  0.23224  0.44710  1.0000
  C   C1289     1.0  0.70765  0.24433  0.45569  1.0000
  C   C1290     1.0  0.68248  0.25962  0.44458  1.0000
  C   C1291     1.0  0.68744  0.26288  0.42489  1.0000
  C   C1292     1.0  0.71740  0.25063  0.41627  1.0000
  C   C1293     1.0  0.81148  0.25521  0.41349  1.0000
  C   C1294     1.0  0.80631  0.28365  0.42404  1.0000
  C   C1295     1.0  0.82824  0.31026  0.42136  1.0000
  C   C1296     1.0  0.85535  0.30882  0.40811  1.0000
  C   C1297     1.0  0.86077  0.28059  0.39761  1.0000
  C   C1298     1.0  0.83897  0.25385  0.40029  1.0000
  H   H1015     1.0  0.95705  0.43483  0.54218  1.0000
  C   C1299     1.0  0.63202  0.42311  0.60946  1.0000
  C   C1300     1.0  0.98536  0.44049  0.63485  1.0000
  H   H1016     1.0  0.77203  0.25197  0.37889  1.0000
  H   H1017     1.0  0.77079  0.15480  0.40088  1.0000
  H   H1018     1.0  0.85452  0.20890  0.42889  1.0000
  H   H1019     1.0  0.88031  0.16461  0.44732  1.0000
  H   H1020     1.0  0.52084  0.28047  0.64577  1.0000
  H   H1021     1.0  0.77957  0.11989  0.45287  1.0000
  H   H1022     1.0  0.75323  0.16461  0.43506  1.0000
  H   H1023     1.0  0.75741  0.22139  0.45605  1.0000
  H   H1024     1.0  0.70409  0.24225  0.47101  1.0000
  H   H1025     1.0  0.65927  0.26919  0.45122  1.0000
  H   H1026     1.0  0.53336  0.17621  0.36007  1.0000
  H   H1027     1.0  0.92774  0.49803  0.41123  1.0000
  C   C1301     1.0  0.52308  0.08847  0.42091  1.0000
  C   C1302     1.0  0.52933  0.16529  0.39006  1.0000
  H   H1028     1.0  0.52081  0.02447  0.60143  1.0000
  C   C1303     1.0  0.75576  0.18124  0.35593  1.0000
  Fe  Fe83      1.0  0.72224  0.01089  0.43043  1.0000
  P   P46       1.0  0.66594  0.44445  0.59678  1.0000
  C   C1304     1.0  0.61873  0.22354  0.57342  1.0000
  H   H1029     1.0  0.56852  0.43488  0.64276  1.0000
  H   H1030     1.0  0.62395  0.22514  0.41664  1.0000
  C   C1305     1.0  0.87263  0.37972  0.34969  1.0000
  C   C1306     1.0  0.61918  0.44473  0.34929  1.0000
  H   H1031     1.0  0.55715  0.16658  0.39202  1.0000
  C   C1307     1.0  0.50259  0.13651  0.59329  1.0000
  C   C1308     1.0  0.51516  0.10176  0.45438  1.0000
  Fe  Fe84      1.0  0.81692  0.49623  0.63377  1.0000
  C   C1309     1.0  0.69409  0.31196  0.67092  1.0000
  H   H1032     1.0  0.50789  0.17483  0.57269  1.0000
  C   C1310     1.0  0.50659  0.01506  0.36986  1.0000
  H   H1033     1.0  0.99124  0.44954  0.62076  1.0000
  C   C1311     1.0  0.55106  0.00877  0.65207  1.0000
  C   C1312     1.0  0.50662  0.20941  0.45051  1.0000
  H   H1034     1.0  0.53086  0.21971  0.44561  1.0000
  H   H1035     1.0  0.95338  0.45749  0.34170  1.0000
  H   H1036     1.0  0.66446  0.38907  0.66988  1.0000
  H   H1037     1.0  0.97001  0.49756  0.38466  1.0000
  S   S170      1.0  0.82421  0.48588  0.49473  1.0000
  C   C1313     1.0  0.68429  0.47782  0.61012  1.0000
  Fe  Fe85      1.0  0.71331  0.00498  0.63393  1.0000
  H   H1038     1.0  0.87936  0.49686  0.56484  1.0000
  H   H1039     1.0  0.59812  0.07530  0.66658  1.0000
  C   C1314     1.0  0.69382  0.10444  0.66918  1.0000
  C   C1315     1.0  0.71546  0.39753  0.34325  1.0000
  C   C1316     1.0  0.98966  0.43415  0.57995  1.0000
  C   C1317     1.0  0.99158  0.40374  0.58843  1.0000
  S   S171      1.0  0.59764  0.22197  0.67249  1.0000
  H   H1040     1.0  0.58075  0.00749  0.59454  1.0000
  H   H1041     1.0  0.90671  0.47205  0.49227  1.0000
  C   C1318     1.0  0.94064  0.48457  0.54434  1.0000
  C   C1319     1.0  0.53481  0.01000  0.66988  1.0000
  H   H1042     1.0  0.50705  0.01409  0.67068  1.0000
  H   H1043     1.0  0.74828  0.17207  0.34196  1.0000
  C   C1320     1.0  0.58665  0.00250  0.65087  1.0000
  Fe  Fe86      1.0  0.83555  0.49825  0.42411  1.0000
  H   H1044     1.0  0.56940  0.46541  0.34262  1.0000
  C   C1321     1.0  0.65258  0.43730  0.34253  1.0000
  Fe  Fe87      1.0  0.93353  0.47475  0.84787  1.0000
  S   S172      1.0  0.93912  0.42903  0.86478  1.0000
  C   C1322     1.0  0.89828  0.37680  0.70995  1.0000
  Fe  Fe88      1.0  0.94206  0.43969  0.80914  1.0000
  Fe  Fe89      1.0  0.90338  0.40678  0.84255  1.0000
  S   S173      1.0  0.85256  0.37891  0.84780  1.0000
  S   S174      1.0  0.89553  0.45366  0.82682  1.0000
  Fe  Fe90      1.0  0.76379  0.23021  0.90357  1.0000
  S   S175      1.0  0.71499  0.24891  0.91762  1.0000
  S   S176      1.0  0.81588  0.25679  0.89995  1.0000
  Fe  Fe91      1.0  0.73133  0.16233  0.89677  1.0000
  S   S177      1.0  0.68058  0.17633  0.90988  1.0000
  S   S178      1.0  0.74266  0.11211  0.88518  1.0000
  Fe  Fe92      1.0  0.68737  0.22241  0.89370  1.0000
  S   S179      1.0  0.64721  0.24013  0.87284  1.0000
  Fe  Fe93      1.0  0.71259  0.20096  0.93286  1.0000
  S   S180      1.0  0.69879  0.18544  0.96326  1.0000
  S   S181      1.0  0.73621  0.20677  0.87880  1.0000
  S   S182      1.0  0.76335  0.18399  0.92057  1.0000
  H   H1045     1.0  0.79876  0.17133  0.00111  1.0000
  H   H1046     1.0  0.61093  0.01120  0.80409  1.0000
  H   H1047     1.0  0.69624  0.04364  0.91023  1.0000
  C   C1323     1.0  0.95246  0.37097  0.73640  1.0000
  H   H1048     1.0  0.84162  0.30111  0.83354  1.0000
  H   H1049     1.0  0.82435  0.20037  0.79955  1.0000
  C   C1324     1.0  0.55805  0.02550  0.80914  1.0000
  Fe  Fe94      1.0  0.59085  0.23719  0.72725  1.0000
  S   S183      1.0  0.58567  0.24534  0.75930  1.0000
  H   H1050     1.0  0.83341  0.34953  0.72669  1.0000
  H   H1051     1.0  0.59770  0.03956  0.77199  1.0000
  C   C1325     1.0  0.79840  0.19563  0.99559  1.0000
  C   C1326     1.0  0.54636  0.23736  0.77178  1.0000
  C   C1327     1.0  0.54571  0.23959  0.79188  1.0000
  C   C1328     1.0  0.92836  0.36001  0.70502  1.0000
  H   H1052     1.0  0.86037  0.44265  0.92534  1.0000
  H   H1053     1.0  0.56923  0.24617  0.79955  1.0000
  C   C1329     1.0  0.98504  0.48284  0.97004  1.0000
  C   C1330     1.0  0.69773  0.20885  0.98458  1.0000
  H   H1054     1.0  0.53407  0.08955  0.83664  1.0000
  C   C1331     1.0  0.70416  0.24204  0.98467  1.0000
  H   H1055     1.0  0.82069  0.46191  0.75719  1.0000
  H   H1056     1.0  0.71007  0.25422  0.97140  1.0000
  C   C1332     1.0  0.71566  0.05629  0.86987  1.0000
  C   C1333     1.0  0.70809  0.08693  0.87728  1.0000
  C   C1334     1.0  0.67336  0.09639  0.87863  1.0000
  H   H1057     1.0  0.86725  0.36873  0.76509  1.0000
  H   H1058     1.0  0.66714  0.12002  0.88412  1.0000
  C   C1335     1.0  0.60397  0.24439  0.88047  1.0000
  C   C1336     1.0  0.59591  0.24990  0.89971  1.0000
  C   C1337     1.0  0.56104  0.25371  0.90529  1.0000
  C   C1338     1.0  0.53423  0.25165  0.89169  1.0000
  C   C1339     1.0  0.54235  0.24615  0.87247  1.0000
  C   C1340     1.0  0.57714  0.24282  0.86686  1.0000
  H   H1059     1.0  0.61655  0.25143  0.91024  1.0000
  H   H1060     1.0  0.55485  0.25789  0.92018  1.0000
  H   H1061     1.0  0.52189  0.24492  0.86186  1.0000
  H   H1062     1.0  0.58315  0.23886  0.85193  1.0000
  C   C1341     1.0  0.84318  0.34605  0.86334  1.0000
  C   C1342     1.0  0.86924  0.32857  0.87255  1.0000
  C   C1343     1.0  0.86040  0.30147  0.88375  1.0000
  C   C1344     1.0  0.82551  0.29138  0.88583  1.0000
  C   C1345     1.0  0.79949  0.30898  0.87669  1.0000
  C   C1346     1.0  0.80833  0.33619  0.86564  1.0000
  H   H1063     1.0  0.89620  0.33569  0.87089  1.0000
  H   H1064     1.0  0.88076  0.28809  0.89077  1.0000
  H   H1065     1.0  0.77253  0.30178  0.87825  1.0000
  H   H1066     1.0  0.78800  0.34985  0.85889  1.0000
  H   H1067     1.0  0.77981  0.18041  0.96781  1.0000
  H   H1068     1.0  0.80345  0.46240  0.79126  1.0000
  H   H1069     1.0  0.71513  0.22920  0.74373  1.0000
  H   H1070     1.0  0.97930  0.34510  0.71416  1.0000
  S   S184      1.0  0.58751  0.27755  0.70598  1.0000
  H   H1071     1.0  0.61973  0.08209  0.87519  1.0000
  H   H1072     1.0  0.75446  0.02716  0.90220  1.0000
  C   C1347     1.0  0.82772  0.44189  0.76625  1.0000
  C   C1348     1.0  0.91231  0.46231  0.92792  1.0000
  S   S185      1.0  0.94686  0.39122  0.82291  1.0000
  C   C1349     1.0  0.88782  0.43859  0.92290  1.0000
  C   C1350     1.0  0.77749  0.01786  0.90912  1.0000
  S   S186      1.0  0.60044  0.13136  0.69098  1.0000
  Fe  Fe95      1.0  0.98179  0.41708  0.84395  1.0000
  H   H1073     1.0  0.67456  0.14366  0.68653  1.0000
  H   H1074     1.0  0.53439  0.09084  0.68521  1.0000
  C   C1351     1.0  0.99079  0.44457  0.74585  1.0000
  H   H1075     1.0  0.84686  0.04436  0.93524  1.0000
  C   C1352     1.0  0.60585  0.01990  0.74389  1.0000
  C   C1353     1.0  0.80803  0.25299  0.99949  1.0000
  C   C1354     1.0  0.78785  0.23165  0.96908  1.0000
  C   C1355     1.0  0.95853  0.42811  0.91636  1.0000
  C   C1356     1.0  0.93406  0.40432  0.91154  1.0000
  H   H1076     1.0  0.93113  0.35045  0.69064  1.0000
  C   C1357     1.0  0.56952  0.16506  0.90873  1.0000
  C   C1358     1.0  0.89738  0.31677  0.79702  1.0000
  H   H1077     1.0  0.78064  0.32720  0.71107  1.0000
  C   C1359     1.0  0.51345  0.33518  0.96449  1.0000
  C   C1360     1.0  0.82643  0.41655  0.79742  1.0000
  H   H1078     1.0  0.79763  0.28188  0.97457  1.0000
  H   H1079     1.0  0.86459  0.49107  0.79626  1.0000
  H   H1080     1.0  0.58468  0.18711  0.90836  1.0000
  H   H1081     1.0  0.51484  0.08632  0.91011  1.0000
  S   S187      1.0  0.49723  0.25178  0.68166  1.0000
  C   C1361     1.0  0.81772  0.44219  0.78551  1.0000
  P   P47       1.0  0.85780  0.41529  0.73364  1.0000
  C   C1362     1.0  0.83598  0.17840  0.84590  1.0000
  C   C1363     1.0  0.89866  0.40970  0.91458  1.0000
  H   H1082     1.0  0.57358  0.09102  0.76015  1.0000
  C   C1364     1.0  0.66774  0.12228  0.67841  1.0000
  H   H1083     1.0  0.75909  0.00943  0.69123  1.0000
  C   C1365     1.0  0.98744  0.44102  0.76581  1.0000
  H   H1084     1.0  0.98895  0.47871  0.00073  1.0000
  H   H1085     1.0  0.94249  0.38191  0.90511  1.0000
  H   H1086     1.0  0.50153  0.10077  0.79685  1.0000
  S   S188      1.0  0.61909  0.01646  0.86277  1.0000
  C   C1366     1.0  0.79969  0.03922  0.91878  1.0000
  H   H1087     1.0  0.72178  0.05707  0.69580  1.0000
  Fe  Fe96      1.0  0.63231  0.25316  0.69105  1.0000
  C   C1367     1.0  0.56827  0.06274  0.98986  1.0000
  C   C1368     1.0  0.84855  0.28435  0.78590  1.0000
  H   H1088     1.0  0.64638  0.33403  0.67995  1.0000
  C   C1369     1.0  0.53065  0.10799  0.90968  1.0000
  S   S189      1.0  0.94702  0.44871  0.77718  1.0000
  C   C1370     1.0  0.60849  0.05440  0.82118  1.0000
  C   C1371     1.0  0.76365  0.27461  0.77466  1.0000
  C   C1372     1.0  0.71253  0.11250  0.83099  1.0000
  C   C1373     1.0  0.73960  0.13286  0.83692  1.0000
  C   C1374     1.0  0.73773  0.16587  0.83348  1.0000
  C   C1375     1.0  0.70901  0.17862  0.82394  1.0000
  C   C1376     1.0  0.68182  0.15827  0.81785  1.0000
  C   C1377     1.0  0.68352  0.12521  0.82174  1.0000
  P   P48       1.0  0.64360  0.17410  0.80631  1.0000
  C   C1378     1.0  0.60731  0.16594  0.82219  1.0000
  C   C1379     1.0  0.64743  0.21741  0.80467  1.0000
  C   C1380     1.0  0.65682  0.23242  0.78745  1.0000
  C   C1381     1.0  0.66027  0.26594  0.78660  1.0000
  C   C1382     1.0  0.65456  0.28469  0.80292  1.0000
  C   C1383     1.0  0.64534  0.26991  0.82011  1.0000
  C   C1384     1.0  0.64195  0.23646  0.82098  1.0000
  C   C1385     1.0  0.57281  0.16511  0.81548  1.0000
  C   C1386     1.0  0.54512  0.16137  0.82827  1.0000
  C   C1387     1.0  0.55156  0.15806  0.84783  1.0000
  C   C1388     1.0  0.58568  0.15897  0.85468  1.0000
  C   C1389     1.0  0.61337  0.16312  0.84200  1.0000
  C   C1390     1.0  0.63915  0.15701  0.78244  1.0000
  C   C1391     1.0  0.66412  0.13563  0.77510  1.0000
  C   C1392     1.0  0.66225  0.12505  0.75607  1.0000
  C   C1393     1.0  0.63584  0.13606  0.74409  1.0000
  C   C1394     1.0  0.61093  0.15718  0.75123  1.0000
  C   C1395     1.0  0.61265  0.16763  0.77025  1.0000
  H   H1089     1.0  0.71362  0.08701  0.83405  1.0000
  H   H1090     1.0  0.76153  0.12320  0.84474  1.0000
  H   H1091     1.0  0.75812  0.18167  0.83873  1.0000
  H   H1092     1.0  0.70788  0.20432  0.82173  1.0000
  H   H1093     1.0  0.66226  0.10936  0.81767  1.0000
  H   H1094     1.0  0.66073  0.21856  0.77452  1.0000
  H   H1095     1.0  0.66639  0.27739  0.77311  1.0000
  H   H1096     1.0  0.65684  0.31066  0.80220  1.0000
  H   H1097     1.0  0.64067  0.28426  0.83284  1.0000
  H   H1098     1.0  0.63514  0.22551  0.83444  1.0000
  H   H1099     1.0  0.56679  0.16832  0.80057  1.0000
  H   H1100     1.0  0.51855  0.16196  0.82309  1.0000
  H   H1101     1.0  0.79294  0.01800  0.83757  1.0000
  H   H1102     1.0  0.59083  0.15738  0.86988  1.0000
  H   H1103     1.0  0.63940  0.16516  0.84790  1.0000
  H   H1104     1.0  0.68573  0.12769  0.78370  1.0000
  H   H1105     1.0  0.68168  0.10882  0.75044  1.0000
  H   H1106     1.0  0.63488  0.12853  0.72920  1.0000
  H   H1107     1.0  0.59082  0.16629  0.74188  1.0000
  H   H1108     1.0  0.59428  0.18532  0.77511  1.0000
  C   C1396     1.0  0.71084  0.03314  0.69750  1.0000
  H   H1109     1.0  0.97394  0.36979  0.74645  1.0000
  H   H1110     1.0  0.51593  0.22729  0.74662  1.0000
  H   H1111     1.0  0.70771  0.28523  0.00192  1.0000
  H   H1112     1.0  0.74501  0.42270  0.69936  1.0000
  C   C1397     1.0  0.81103  0.23163  0.84408  1.0000
  H   H1113     1.0  0.59795  0.09527  0.83914  1.0000
  H   H1114     1.0  0.85080  0.37047  0.79932  1.0000
  C   C1398     1.0  0.51747  0.09134  0.97887  1.0000
  H   H1115     1.0  0.75985  0.20239  0.79755  1.0000
  C   C1399     1.0  0.58673  0.07640  0.83032  1.0000
  C   C1400     1.0  0.84434  0.39024  0.78997  1.0000
  H   H1116     1.0  0.79370  0.06471  0.91920  1.0000
  S   S190      1.0  0.55484  0.20431  0.71140  1.0000
  C   C1401     1.0  0.50599  0.31120  0.95098  1.0000
  H   H1117     1.0  0.65931  0.05042  0.70258  1.0000
  H   H1118     1.0  0.74248  0.04927  0.86840  1.0000
  C   C1402     1.0  0.81955  0.39926  0.72183  1.0000
  C   C1403     1.0  0.85192  0.30104  0.81912  1.0000
  S   S191      1.0  0.97913  0.46436  0.82892  1.0000
  H   H1119     1.0  0.51521  0.10184  0.94891  1.0000
  H   H1120     1.0  0.63263  0.04080  0.90997  1.0000
  C   C1404     1.0  0.82314  0.20186  0.81501  1.0000
  C   C1405     1.0  0.76513  0.28787  0.82320  1.0000
  C   C1406     1.0  0.76485  0.32130  0.82033  1.0000
  C   C1407     1.0  0.74070  0.34048  0.82995  1.0000
  C   C1408     1.0  0.71700  0.32648  0.84265  1.0000
  C   C1409     1.0  0.71701  0.29323  0.84548  1.0000
  C   C1410     1.0  0.74057  0.27391  0.83557  1.0000
  H   H1121     1.0  0.78335  0.33267  0.81078  1.0000
  H   H1122     1.0  0.74099  0.36633  0.82795  1.0000
  H   H1123     1.0  0.69879  0.34138  0.85045  1.0000
  H   H1124     1.0  0.69873  0.28237  0.85540  1.0000
  H   H1125     1.0  0.73978  0.24817  0.83781  1.0000
  C   C1411     1.0  0.85397  0.38962  0.77065  1.0000
  Fe  Fe97      1.0  0.60164  0.18556  0.69601  1.0000
  C   C1412     1.0  0.63316  0.11174  0.67767  1.0000
  C   C1413     1.0  0.59414  0.02893  0.81065  1.0000
  H   H1126     1.0  0.79687  0.44565  0.71548  1.0000
  H   H1127     1.0  0.83604  0.27110  0.77441  1.0000
  H   H1128     1.0  0.89681  0.32944  0.82700  1.0000
  C   C1414     1.0  0.68880  0.03475  0.86454  1.0000
  H   H1129     1.0  0.84617  0.15517  0.81891  1.0000
  C   C1415     1.0  0.53602  0.04773  0.81807  1.0000
  C   C1416     1.0  0.58939  0.05408  0.71751  1.0000
  C   C1417     1.0  0.75634  0.22033  0.78660  1.0000
  Fe  Fe98      1.0  0.55350  0.24304  0.68923  1.0000
  C   C1418     1.0  0.64650  0.07479  0.87353  1.0000
  H   H1130     1.0  0.92084  0.39899  0.75525  1.0000
  C   C1419     1.0  0.76425  0.40690  0.70559  1.0000
  C   C1420     1.0  0.60215  0.02446  0.72410  1.0000
  H   H1131     1.0  0.51440  0.23613  0.81758  1.0000
  C   C1421     1.0  0.95552  0.35718  0.71821  1.0000
  C   C1422     1.0  0.68169  0.05827  0.92018  1.0000
  C   C1423     1.0  0.69906  0.07989  0.93229  1.0000
  C   C1424     1.0  0.68009  0.09928  0.94481  1.0000
  C   C1425     1.0  0.64376  0.09724  0.94511  1.0000
  C   C1426     1.0  0.62607  0.07598  0.93269  1.0000
  C   C1427     1.0  0.64537  0.05665  0.92015  1.0000
  P   P49       1.0  0.57905  0.07516  0.93203  1.0000
  C   C1428     1.0  0.56420  0.03839  0.92061  1.0000
  C   C1429     1.0  0.56239  0.07626  0.95618  1.0000
  C   C1430     1.0  0.58117  0.06205  0.97116  1.0000
  H   H1132     1.0  0.53007  0.15544  0.85770  1.0000
  C   C1431     1.0  0.51817  0.13464  0.89975  1.0000
  H   H1133     1.0  0.58793  0.05919  0.70235  1.0000
  C   C1432     1.0  0.94781  0.45754  0.92420  1.0000
  C   C1433     1.0  0.81433  0.36578  0.72081  1.0000
  H   H1134     1.0  0.79172  0.00792  0.87206  1.0000
  C   C1434     1.0  0.56176  0.03666  0.90057  1.0000
  C   C1435     1.0  0.56312  0.10951  0.91896  1.0000
  H   H1135     1.0  0.85293  0.44687  0.69621  1.0000
  H   H1136     1.0  0.55727  0.01166  0.94695  1.0000
  H   H1137     1.0  0.52628  0.29510  0.94616  1.0000
  C   C1436     1.0  0.82390  0.20616  0.85494  1.0000
  C   C1437     1.0  0.87517  0.49404  0.69973  1.0000
  C   C1438     1.0  0.87996  0.30049  0.78224  1.0000
  H   H1138     1.0  0.72715  0.08223  0.93164  1.0000
  H   H1139     1.0  0.69352  0.11653  0.95397  1.0000
  H   H1140     1.0  0.62956  0.11297  0.95468  1.0000
  C   C1439     1.0  0.83589  0.17635  0.82592  1.0000
  H   H1141     1.0  0.60588  0.05054  0.96843  1.0000
  H   H1142     1.0  0.87829  0.38011  0.69919  1.0000
  H   H1143     1.0  0.69499  0.01115  0.85901  1.0000
  H   H1144     1.0  0.92171  0.32931  0.79423  1.0000
  H   H1145     1.0  0.49518  0.02514  0.74779  1.0000
  C   C1440     1.0  0.51466  0.23385  0.80214  1.0000
  C   C1441     1.0  0.74397  0.26652  0.75845  1.0000
  H   H1146     1.0  0.56949  0.05687  0.89176  1.0000
  C   C1442     1.0  0.77060  0.25140  0.78870  1.0000
  C   C1443     1.0  0.55057  0.07299  0.82891  1.0000
  H   H1147     1.0  0.96415  0.40909  0.68561  1.0000
  C   C1444     1.0  0.59524  0.04366  0.75679  1.0000
  C   C1445     1.0  0.86465  0.46370  0.70625  1.0000
  C   C1446     1.0  0.65404  0.04365  0.86686  1.0000
  C   C1447     1.0  0.89474  0.39027  0.72830  1.0000
  H   H1148     1.0  0.68483  0.16783  0.00206  1.0000
  C   C1448     1.0  0.67534  0.02921  0.70124  1.0000
  H   H1149     1.0  0.90338  0.48428  0.93460  1.0000
  H   H1150     1.0  0.81942  0.41697  0.81246  1.0000
  S   S192      1.0  0.63854  0.21520  0.71388  1.0000
  C   C1449     1.0  0.80932  0.22919  0.82403  1.0000
  H   H1151     1.0  0.54794  0.00740  0.87615  1.0000
  C   C1450     1.0  0.84651  0.41587  0.75875  1.0000
  H   H1152     1.0  0.63641  0.05611  0.82306  1.0000
  H   H1153     1.0  0.87966  0.39149  0.91044  1.0000
  C   C1451     1.0  0.83406  0.28496  0.80436  1.0000
  C   C1452     1.0  0.73676  0.21227  0.77034  1.0000
  C   C1453     1.0  0.57871  0.07775  0.73046  1.0000
  P   P50       1.0  0.79480  0.26285  0.80991  1.0000
  C   C1454     1.0  0.58250  0.13830  0.91833  1.0000
  C   C1455     1.0  0.75942  0.37358  0.70453  1.0000
  H   H1154     1.0  0.72576  0.18830  0.76880  1.0000
  C   C1456     1.0  0.73067  0.23532  0.75624  1.0000
  C   C1457     1.0  0.51584  0.22874  0.76206  1.0000
  H   H1155     1.0  0.97717  0.47804  0.88872  1.0000
  H   H1156     1.0  0.84595  0.15877  0.85442  1.0000
  C   C1458     1.0  0.55539  0.01118  0.93151  1.0000
  C   C1459     1.0  0.88342  0.31687  0.81547  1.0000
  H   H1157     1.0  0.98581  0.42373  0.91379  1.0000
  C   C1460     1.0  0.78816  0.20058  0.97662  1.0000
  C   C1461     1.0  0.53731  0.16332  0.89951  1.0000
  H   H1158     1.0  0.77326  0.29906  0.77632  1.0000
  H   H1159     1.0  0.73869  0.28452  0.74765  1.0000
  C   C1462     1.0  0.92227  0.38759  0.74137  1.0000
  H   H1160     1.0  0.73630  0.36366  0.69778  1.0000
  H   H1161     1.0  0.51551  0.04769  0.77853  1.0000
  H   H1162     1.0  0.60757  0.14051  0.92525  1.0000
  H   H1163     1.0  0.82476  0.20815  0.87043  1.0000
  H   H1164     1.0  0.56891  0.10045  0.72517  1.0000
  C   C1463     1.0  0.53645  0.07742  0.99373  1.0000
  H   H1165     1.0  0.80280  0.25323  0.85146  1.0000
  C   C1464     1.0  0.54972  0.00856  0.89164  1.0000
  C   C1465     1.0  0.78443  0.35303  0.71211  1.0000
  C   C1466     1.0  0.58148  0.07250  0.75012  1.0000
  C   C1467     1.0  0.53030  0.09076  0.96016  1.0000
  C   C1468     1.0  0.86998  0.45497  0.72540  1.0000
  C   C1469     1.0  0.79792  0.25782  0.98048  1.0000
  H   H1166     1.0  0.58317  0.05218  0.00139  1.0000
  C   C1470     1.0  0.88764  0.47642  0.73767  1.0000
  H   H1167     1.0  0.53953  0.33748  0.97032  1.0000
  C   C1471     1.0  0.79396  0.41977  0.71447  1.0000
  C   C1472     1.0  0.82966  0.02778  0.92773  1.0000
  H   H1168     1.0  0.52730  0.18414  0.89207  1.0000
  H   H1169     1.0  0.89345  0.46962  0.75225  1.0000
  H   H1170     1.0  0.96835  0.45129  0.73743  1.0000
  H   H1171     1.0  0.89105  0.30014  0.76799  1.0000
  H   H1172     1.0  0.77949  0.23545  0.95443  1.0000
  C   C1473     1.0  0.70280  0.25956  0.00199  1.0000
  C   C1474     1.0  0.67161  0.33793  0.67349  1.0000
  P   P51       1.0  0.97997  0.48789  0.93025  1.0000
  C   C1475     1.0  0.55422  0.00543  0.68654  1.0000
  C   C1476     1.0  0.51177  0.08898  0.67595  1.0000
  C   C1477     1.0  0.68994  0.19346  0.00197  1.0000
  C   C1478     1.0  0.73193  0.00627  0.69498  1.0000
  C   C1479     1.0  0.96117  0.49236  0.68373  1.0000
  S   S193      1.0  0.68273  0.27222  0.67790  1.0000
  H   H1173     1.0  0.94478  0.47347  0.68959  1.0000
  H   H1174     1.0  0.54115  0.00605  0.70026  1.0000
  C   C1480     1.0  0.59013  0.99948  0.68546  1.0000
  H   H1175     1.0  0.54747  0.00495  0.80142  1.0000
  H   H1176     1.0  0.96187  0.49746  0.97072  1.0000
  Fe  Fe99      1.0  0.84750  0.67619  0.09334  1.0000
  S   S194      1.0  0.88085  0.70522  0.07317  1.0000
  S   S195      1.0  0.85659  0.62201  0.09413  1.0000
  Fe  Fe100     1.0  0.80640  0.73557  0.10652  1.0000
  S   S196      1.0  0.83738  0.76888  0.08780  1.0000
  S   S197      1.0  0.76060  0.74885  0.12592  1.0000
  Fe  Fe101     1.0  0.83198  0.73077  0.06488  1.0000
  S   S198      1.0  0.81594  0.74826  0.03522  1.0000
  Fe  Fe102     1.0  0.88405  0.74078  0.09741  1.0000
  S   S199      1.0  0.93628  0.76504  0.10268  1.0000
  S   S200      1.0  0.79784  0.69889  0.08307  1.0000
  S   S201      1.0  0.85372  0.71024  0.11817  1.0000
  C   C1481     1.0  0.92885  0.56793  0.24449  1.0000
  S   S202      1.0  0.64855  0.96265  0.14145  1.0000
  H   H1177     1.0  0.97393  0.69384  0.26784  1.0000
  Fe  Fe103     1.0  0.62190  0.93967  0.19356  1.0000
  S   S203      1.0  0.61093  0.90661  0.16827  1.0000
  S   S204      1.0  0.61318  0.93169  0.22579  1.0000
  Fe  Fe104     1.0  0.66548  0.91930  0.15830  1.0000
  S   S205      1.0  0.71014  0.89206  0.14392  1.0000
  Fe  Fe105     1.0  0.59533  0.95242  0.15322  1.0000
  C   C1482     1.0  0.79972  0.60914  0.05552  1.0000
  S   S206      1.0  0.67750  0.94911  0.18457  1.0000
  C   C1483     1.0  0.50726  0.91587  0.14565  1.0000
  C   C1484     1.0  0.86895  0.55689  0.22237  1.0000
  C   C1485     1.0  0.64221  0.62112  0.01306  1.0000
  H   H1178     1.0  0.88570  0.60683  0.19274  1.0000
  C   C1486     1.0  0.96714  0.67075  0.27397  1.0000
  H   H1179     1.0  0.87849  0.66705  0.27469  1.0000
  H   H1180     1.0  0.97619  0.61201  0.22217  1.0000
  C   C1487     1.0  0.57359  0.93431  0.23900  1.0000
  C   C1488     1.0  0.57465  0.93327  0.25916  1.0000
  C   C1489     1.0  0.54375  0.93314  0.27010  1.0000
  C   C1490     1.0  0.67954  0.92389  0.28241  1.0000
  H   H1181     1.0  0.98410  0.65985  0.13081  1.0000
  C   C1491     1.0  0.54120  0.93623  0.22996  1.0000
  H   H1182     1.0  0.59949  0.93196  0.26635  1.0000
  H   H1183     1.0  0.54502  0.93145  0.28552  1.0000
  H   H1184     1.0  0.53997  0.93704  0.21452  1.0000
  C   C1492     1.0  0.67477  0.86052  0.29548  1.0000
  H   H1185     1.0  0.81821  0.59310  0.06219  1.0000
  H   H1186     1.0  0.88101  0.78640  0.12696  1.0000
  C   C1493     1.0  0.57419  0.99526  0.31714  1.0000
  H   H1187     1.0  0.74067  0.75010  0.02875  1.0000
  C   C1494     1.0  0.51030  0.93578  0.24087  1.0000
  C   C1495     1.0  0.86449  0.60135  0.11580  1.0000
  C   C1496     1.0  0.86181  0.59764  0.15046  1.0000
  C   C1497     1.0  0.85694  0.61527  0.13353  1.0000
  H   H1188     1.0  0.85474  0.60838  0.16397  1.0000
  H   H1189     1.0  0.84662  0.63939  0.13418  1.0000
  C   C1498     1.0  0.95801  0.75585  0.12411  1.0000
  S   S207      1.0  0.87973  0.54464  0.17159  1.0000
  C   C1499     1.0  0.87836  0.71856  0.27771  1.0000
  H   H1190     1.0  0.65379  0.84946  0.26751  1.0000
  C   C1500     1.0  0.95737  0.73462  0.15630  1.0000
  C   C1501     1.0  0.94043  0.74037  0.13895  1.0000
  C   C1502     1.0  0.91422  0.52798  0.32954  1.0000
  C   C1503     1.0  0.87728  0.56974  0.11517  1.0000
  H   H1191     1.0  0.94328  0.72300  0.16772  1.0000
  H   H1192     1.0  0.91356  0.73337  0.13723  1.0000
  C   C1504     1.0  0.74583  0.78875  0.13005  1.0000
  C   C1505     1.0  0.71570  0.79366  0.14109  1.0000
  C   C1506     1.0  0.70361  0.82503  0.14501  1.0000
  C   C1507     1.0  0.72192  0.85185  0.13816  1.0000
  C   C1508     1.0  0.75204  0.84686  0.12715  1.0000
  C   C1509     1.0  0.76377  0.81556  0.12296  1.0000
  H   H1193     1.0  0.70157  0.77310  0.14660  1.0000
  H   H1194     1.0  0.68044  0.82849  0.15350  1.0000
  H   H1195     1.0  0.76648  0.86741  0.12184  1.0000
  H   H1196     1.0  0.78697  0.81224  0.11446  1.0000
  C   C1510     1.0  0.94895  0.61132  0.28969  1.0000
  C   C1511     1.0  0.83136  0.73455  0.01275  1.0000
  C   C1512     1.0  0.95418  0.52055  0.09584  1.0000
  Fe  Fe106     1.0  0.93506  0.74874  0.33191  1.0000
  H   H1197     1.0  0.86604  0.69889  0.02398  1.0000
  H   H1198     1.0  0.75515  0.58002  0.06266  1.0000
  H   H1199     1.0  0.98875  0.65086  0.33437  1.0000
  C   C1513     1.0  0.66662  0.89971  0.27034  1.0000
  C   C1514     1.0  0.87904  0.68986  0.26724  1.0000
  C   C1515     1.0  0.87493  0.56616  0.14989  1.0000
  H   H1200     1.0  0.76185  0.81533  0.23994  1.0000
  H   H1201     1.0  0.95135  0.52941  0.22763  1.0000
  H   H1202     1.0  0.65171  0.69749  0.04486  1.0000
  H   H1203     1.0  0.89833  0.60516  0.25831  1.0000
  C   C1516     1.0  0.99210  0.74408  0.15899  1.0000
  H   H1204     1.0  0.93393  0.89195  0.23738  1.0000
  C   C1517     1.0  0.92849  0.54388  0.23035  1.0000
  C   C1518     1.0  0.49449  0.98979  0.06217  1.0000
  C   C1519     1.0  0.89880  0.58632  0.24759  1.0000
  H   H1205     1.0  0.94723  0.60549  0.18272  1.0000
  H   H1206     1.0  0.72660  0.77910  0.08711  1.0000
  H   H1207     1.0  0.79700  0.68170  0.03347  1.0000
  H   H1208     1.0  0.59427  0.67184  0.04061  1.0000
  C   C1520     1.0  0.88272  0.55228  0.13215  1.0000
  C   C1521     1.0  0.86897  0.58083  0.23648  1.0000
  H   H1209     1.0  0.93172  0.51301  0.08753  1.0000
  C   C1522     1.0  0.69011  0.91649  0.30106  1.0000
  H   H1210     1.0  0.75725  0.96768  0.18602  1.0000
  H   H1211     1.0  0.91269  0.83505  0.13789  1.0000
  H   H1212     1.0  0.58775  0.62304  0.02026  1.0000
  H   H1213     1.0  0.93262  0.63853  0.31446  1.0000
  H   H1214     1.0  0.74336  0.79183  0.05368  1.0000
  C   C1523     1.0  0.64959  0.67597  0.03615  1.0000
  H   H1215     1.0  0.88762  0.86971  0.16326  1.0000
  C   C1524     1.0  0.97797  0.54269  0.08831  1.0000
  S   S208      1.0  0.94976  0.76093  0.30113  1.0000
  H   H1216     1.0  0.97390  0.55245  0.07414  1.0000
  C   C1525     1.0  0.79427  0.50282  0.10740  1.0000
  H   H1217     1.0  0.51274  0.94590  0.03092  1.0000
  H   H1218     1.0  0.82425  0.77202  0.14119  1.0000
  H   H1219     1.0  0.87769  0.71807  0.29321  1.0000
  H   H1220     1.0  0.70047  0.83191  0.18949  1.0000
  C   C1526     1.0  0.79510  0.52868  0.12030  1.0000
  P   P52       1.0  0.96839  0.57571  0.25767  1.0000
  C   C1527     1.0  0.99301  0.76498  0.12664  1.0000
  H   H1221     1.0  0.79271  0.93700  0.13078  1.0000
  C   C1528     1.0  0.94392  0.63956  0.30023  1.0000
  S   S209      1.0  0.60288  0.98407  0.17895  1.0000
  H   H1222     1.0  0.94189  0.50892  0.26213  1.0000
  H   H1223     1.0  0.68130  0.94842  0.27725  1.0000
  H   H1224     1.0  0.82063  0.88991  0.14512  1.0000
  H   H1225     1.0  0.79823  0.80618  0.16609  1.0000
  H   H1226     1.0  0.88290  0.55870  0.10150  1.0000
  H   H1227     1.0  0.70513  0.81220  0.22289  1.0000
  H   H1228     1.0  0.49898  0.93067  0.18770  1.0000
  C   C1529     1.0  0.81142  0.63783  0.04732  1.0000
  H   H1229     1.0  0.81336  0.83797  0.22390  1.0000
  C   C1530     1.0  0.76417  0.60183  0.05578  1.0000
  C   C1531     1.0  0.95323  0.66926  0.29242  1.0000
  H   H1230     1.0  0.69733  0.62522  0.00832  1.0000
  C   C1532     1.0  0.74029  0.62314  0.04773  1.0000
  C   C1533     1.0  0.75196  0.65173  0.03907  1.0000
  C   C1534     1.0  0.85576  0.70988  0.01118  1.0000
  P   P53       1.0  0.72152  0.68085  0.02999  1.0000
  C   C1535     1.0  0.67899  0.66267  0.02730  1.0000
  C   C1536     1.0  0.72081  0.71290  0.04757  1.0000
  C   C1537     1.0  0.71172  0.70582  0.06657  1.0000
  C   C1538     1.0  0.71318  0.72980  0.08068  1.0000
  C   C1539     1.0  0.72418  0.76089  0.07600  1.0000
  C   C1540     1.0  0.73164  0.74426  0.04297  1.0000
  H   H1231     1.0  0.91876  0.83573  0.22843  1.0000
  C   C1541     1.0  0.62966  0.86472  0.33903  1.0000
  H   H1232     1.0  0.99127  0.50795  0.13919  1.0000
  C   C1542     1.0  0.61315  0.63414  0.02217  1.0000
  H   H1233     1.0  0.70020  0.93563  0.31004  1.0000
  H   H1234     1.0  0.97466  0.77096  0.26299  1.0000
  C   C1543     1.0  0.74899  0.83219  0.31622  1.0000
  H   H1235     1.0  0.98307  0.64462  0.24919  1.0000
  H   H1236     1.0  0.65826  0.90553  0.25592  1.0000
  H   H1237     1.0  0.79094  0.55303  0.11530  1.0000
  H   H1238     1.0  0.84598  0.59529  0.23865  1.0000
  H   H1239     1.0  0.84620  0.55285  0.21342  1.0000
  H   H1240     1.0  0.50415  0.92619  0.07850  1.0000
  H   H1241     1.0  0.71284  0.61752  0.04869  1.0000
  H   H1242     1.0  0.62584  0.86335  0.32373  1.0000
  H   H1243     1.0  0.70450  0.68154  0.07061  1.0000
  H   H1244     1.0  0.70725  0.72409  0.09546  1.0000
  C   C1544     1.0  0.73338  0.76810  0.05716  1.0000
  C   C1545     1.0  0.96354  0.61255  0.27124  1.0000
  H   H1245     1.0  0.80353  0.54345  0.14956  1.0000
  H   H1246     1.0  0.94930  0.69117  0.30059  1.0000
  C   C1546     1.0  0.72458  0.83711  0.33088  1.0000
  C   C1547     1.0  0.68769  0.88470  0.30778  1.0000
  H   H1247     1.0  0.93735  0.57498  0.33373  1.0000
  H   H1248     1.0  0.76091  0.97595  0.15107  1.0000
  H   H1249     1.0  0.94109  0.58856  0.29591  1.0000
  H   H1250     1.0  0.98475  0.65437  0.18705  1.0000
  C   C1548     1.0  0.77415  0.95579  0.15758  1.0000
  C   C1549     1.0  0.97776  0.54398  0.27435  1.0000
  C   C1550     1.0  0.95776  0.65459  0.19143  1.0000
  C   C1551     1.0  0.87943  0.74806  0.26822  1.0000
  C   C1552     1.0  0.88149  0.74893  0.24826  1.0000
  C   C1553     1.0  0.88330  0.72019  0.23762  1.0000
  C   C1554     1.0  0.88157  0.69059  0.24728  1.0000
  P   P54       1.0  0.88961  0.72173  0.21198  1.0000
  C   C1555     1.0  0.84913  0.72790  0.19935  1.0000
  C   C1556     1.0  0.91904  0.75483  0.20696  1.0000
  C   C1557     1.0  0.91472  0.77383  0.19055  1.0000
  C   C1558     1.0  0.93833  0.79871  0.18657  1.0000
  H   H1251     1.0  0.96090  0.70325  0.20125  1.0000
  H   H1252     1.0  0.90110  0.93732  0.22333  1.0000
  C   C1559     1.0  0.94711  0.76135  0.21935  1.0000
  C   C1560     1.0  0.84549  0.71718  0.18032  1.0000
  C   C1561     1.0  0.81456  0.72248  0.17029  1.0000
  C   C1562     1.0  0.78731  0.73903  0.17898  1.0000
  C   C1563     1.0  0.79085  0.75011  0.19780  1.0000
  C   C1564     1.0  0.82163  0.74458  0.20800  1.0000
  C   C1565     1.0  0.90850  0.68434  0.20383  1.0000
  C   C1566     1.0  0.88750  0.65674  0.20147  1.0000
  C   C1567     1.0  0.90180  0.62819  0.19443  1.0000
  C   C1568     1.0  0.93670  0.62730  0.18895  1.0000
  C   C1569     1.0  0.96096  0.51396  0.27310  1.0000
  C   C1570     1.0  0.94395  0.68266  0.19930  1.0000
  H   H1253     1.0  0.87980  0.77023  0.27648  1.0000
  H   H1254     1.0  0.88287  0.77206  0.24120  1.0000
  H   H1255     1.0  0.88298  0.66804  0.23959  1.0000
  H   H1256     1.0  0.89400  0.76895  0.18042  1.0000
  H   H1257     1.0  0.93593  0.81227  0.17346  1.0000
  C   C1571     1.0  0.67500  0.63541  0.01554  1.0000
  H   H1258     1.0  0.89222  0.52790  0.13151  1.0000
  H   H1259     1.0  0.95168  0.74643  0.23176  1.0000
  H   H1260     1.0  0.86664  0.70506  0.17308  1.0000
  H   H1261     1.0  0.81176  0.71418  0.15562  1.0000
  H   H1262     1.0  0.76364  0.74355  0.17095  1.0000
  H   H1263     1.0  0.76966  0.76306  0.20440  1.0000
  H   H1264     1.0  0.82391  0.75349  0.22251  1.0000
  H   H1265     1.0  0.86004  0.65736  0.20490  1.0000
  H   H1266     1.0  0.99249  0.79084  0.22472  1.0000
  H   H1267     1.0  0.78970  0.80174  0.30536  1.0000
  H   H1268     1.0  0.78455  0.92019  0.20084  1.0000
  S   S210      1.0  0.54981  0.96603  0.13445  1.0000
  C   C1572     1.0  0.80234  0.52336  0.13963  1.0000
  C   C1573     1.0  0.97032  0.78655  0.21544  1.0000
  H   H1269     1.0  0.75178  0.85463  0.17330  1.0000
  C   C1574     1.0  0.89864  0.53841  0.21943  1.0000
  H   H1270     1.0  0.83888  0.64407  0.04778  1.0000
  C   C1575     1.0  0.78763  0.65913  0.03925  1.0000
  H   H1271     1.0  0.67255  0.83588  0.30036  1.0000
  C   C1576     1.0  0.90424  0.85552  0.22240  1.0000
  C   C1577     1.0  0.91281  0.88720  0.22743  1.0000
  C   C1578     1.0  0.89425  0.91274  0.21954  1.0000
  C   C1579     1.0  0.86699  0.90667  0.20668  1.0000
  C   C1580     1.0  0.85806  0.87488  0.20168  1.0000
  C   C1581     1.0  0.87714  0.84938  0.20949  1.0000
  P   P55       1.0  0.82315  0.86605  0.18508  1.0000
  C   C1582     1.0  0.80603  0.90212  0.17427  1.0000
  C   C1583     1.0  0.84129  0.84029  0.16684  1.0000
  C   C1584     1.0  0.87365  0.84825  0.15871  1.0000
  C   C1585     1.0  0.88793  0.82881  0.14438  1.0000
  C   C1586     1.0  0.87017  0.80124  0.13821  1.0000
  C   C1587     1.0  0.83815  0.79311  0.14629  1.0000
  C   C1588     1.0  0.82354  0.81260  0.16048  1.0000
  C   C1589     1.0  0.80806  0.90711  0.15442  1.0000
  C   C1590     1.0  0.79221  0.93389  0.14616  1.0000
  C   C1591     1.0  0.96605  0.80510  0.19900  1.0000
  H   H1272     1.0  0.62336  0.97453  0.30927  1.0000
  C   C1592     1.0  0.78758  0.92416  0.18562  1.0000
  C   C1593     1.0  0.78668  0.84730  0.19711  1.0000
  C   C1594     1.0  0.78921  0.83626  0.21605  1.0000
  C   C1595     1.0  0.75990  0.82350  0.22528  1.0000
  C   C1596     1.0  0.72795  0.82173  0.21572  1.0000
  C   C1597     1.0  0.72528  0.83272  0.19692  1.0000
  C   C1598     1.0  0.75446  0.84552  0.18771  1.0000
  C   C1599     1.0  0.98790  0.51821  0.12513  1.0000
  H   H1273     1.0  0.51663  0.98752  0.18482  1.0000
  Fe  Fe107     1.0  0.65722  0.99139  0.16812  1.0000
  H   H1274     1.0  0.85335  0.92686  0.20059  1.0000
  H   H1275     1.0  0.87092  0.82472  0.20559  1.0000
  C   C1600     1.0  0.66417  0.86806  0.27688  1.0000
  H   H1276     1.0  0.53074  0.90326  0.14952  1.0000
  H   H1277     1.0  0.88996  0.53796  0.32459  1.0000
  C   C1601     1.0  0.76733  0.78264  0.33115  1.0000
  H   H1278     1.0  0.89886  0.52023  0.20833  1.0000
  H   H1279     1.0  0.78479  0.76229  0.33173  1.0000
  H   H1280     1.0  0.86822  0.51987  0.29662  1.0000
  C   C1602     1.0  0.77020  0.80500  0.31635  1.0000
  P   P56       1.0  0.70086  0.87441  0.33187  1.0000
  H   H1281     1.0  0.75243  0.84992  0.30505  1.0000
  C   C1603     1.0  0.77200  0.95102  0.17731  1.0000
  C   C1604     1.0  0.97219  0.64259  0.26337  1.0000
  H   H1282     1.0  0.50530  0.98986  0.28461  1.0000
  C   C1605     1.0  0.51130  0.93382  0.26099  1.0000
  C   C1606     1.0  0.95932  0.50819  0.11417  1.0000
  H   H1283     1.0  0.78913  0.50773  0.09250  1.0000
  C   C1607     1.0  0.50942  0.94701  0.13822  1.0000
  H   H1284     1.0  0.98493  0.82367  0.19553  1.0000
  C   C1608     1.0  0.94100  0.54917  0.33484  1.0000
  S   S211      1.0  0.88214  0.72657  0.33696  1.0000
  C   C1609     1.0  0.61022  0.99158  0.31849  1.0000
  C   C1610     1.0  0.61684  0.66160  0.03365  1.0000
  H   H1285     1.0  0.55952  0.98102  0.30687  1.0000
  C   C1611     1.0  0.50548  0.99239  0.08131  1.0000
  C   C1612     1.0  0.98949  0.75016  0.28995  1.0000
  C   C1613     1.0  0.87079  0.49999  0.26841  1.0000
  H   H1286     1.0  0.86500  0.52260  0.26151  1.0000
  H   H1287     1.0  0.64381  0.99739  0.21613  1.0000
  C   C1614     1.0  0.87299  0.49834  0.28837  1.0000
  Fe  Fe108     1.0  0.71534  0.96958  0.59518  1.0000
  S   S212      1.0  0.67147  0.98783  0.61373  1.0000
  H   H1288     1.0  0.62916  0.50341  0.58646  1.0000
  C   C1615     1.0  0.76080  0.87427  0.48777  1.0000
  H   H1289     1.0  0.75817  0.51468  0.35582  1.0000
  C   C1616     1.0  0.63728  0.86945  0.37876  1.0000
  C   C1617     1.0  0.82251  0.77884  0.62118  1.0000
  H   H1290     1.0  0.91641  0.56762  0.61861  1.0000
  S   S213      1.0  0.81025  0.55045  0.63689  1.0000
  C   C1618     1.0  0.68876  0.92563  0.52074  1.0000
  C   C1619     1.0  0.70018  0.50361  0.60045  1.0000
  H   H1291     1.0  0.73004  0.54764  0.60328  1.0000
  H   H1292     1.0  0.92523  0.54473  0.43327  1.0000
  H   H1293     1.0  0.69409  0.84171  0.63574  1.0000
  S   S214      1.0  0.92970  0.73294  0.66160  1.0000
  Fe  Fe109     1.0  0.75566  0.94171  0.63012  1.0000
  S   S215      1.0  0.63509  0.90885  0.64200  1.0000
  S   S216      1.0  0.80667  0.92045  0.64148  1.0000
  S   S217      1.0  0.71758  0.92053  0.60889  1.0000
  C   C1620     1.0  0.90876  0.55260  0.60656  1.0000
  C   C1621     1.0  0.73398  0.95852  0.35671  1.0000
  H   H1294     1.0  0.63999  0.87272  0.39408  1.0000
  C   C1622     1.0  0.99201  0.64191  0.40821  1.0000
  H   H1295     1.0  0.86080  0.65389  0.65811  1.0000
  H   H1296     1.0  0.70412  0.81814  0.35745  1.0000
  Fe  Fe110     1.0  0.75824  0.94558  0.42166  1.0000
  H   H1297     1.0  0.88732  0.78491  0.40167  1.0000
  S   S218      1.0  0.81890  0.54587  0.41096  1.0000
  S   S219      1.0  0.68691  0.92708  0.48121  1.0000
  Fe  Fe111     1.0  0.87813  0.76149  0.36185  1.0000
  S   S220      1.0  0.82724  0.78780  0.36837  1.0000
  Fe  Fe112     1.0  0.90924  0.69306  0.35731  1.0000
  S   S221      1.0  0.90797  0.63803  0.35678  1.0000
  S   S222      1.0  0.90074  0.72566  0.38250  1.0000
  H   H1298     1.0  0.60595  0.95225  0.35099  1.0000
  S   S223      1.0  0.65158  0.95476  0.38284  1.0000
  S   S224      1.0  0.80935  0.92232  0.41235  1.0000
  S   S225      1.0  0.70890  0.91784  0.42673  1.0000
  C   C1623     1.0  0.82298  0.82643  0.37940  1.0000
  C   C1624     1.0  0.85185  0.84497  0.38499  1.0000
  C   C1625     1.0  0.84723  0.87425  0.39498  1.0000
  C   C1626     1.0  0.81375  0.88574  0.39919  1.0000
  C   C1627     1.0  0.78489  0.86786  0.39294  1.0000
  C   C1628     1.0  0.78952  0.83833  0.38323  1.0000
  H   H1299     1.0  0.87781  0.83652  0.38194  1.0000
  H   H1300     1.0  0.86979  0.88800  0.39957  1.0000
  H   H1301     1.0  0.75901  0.87675  0.39569  1.0000
  H   H1302     1.0  0.76702  0.82445  0.37887  1.0000
  C   C1629     1.0  0.84570  0.57186  0.39717  1.0000
  C   C1630     1.0  0.83561  0.60402  0.39454  1.0000
  C   C1631     1.0  0.85512  0.62493  0.38278  1.0000
  C   C1632     1.0  0.88456  0.61364  0.37322  1.0000
  C   C1633     1.0  0.89496  0.58164  0.37612  1.0000
  C   C1634     1.0  0.87568  0.56085  0.38802  1.0000
  H   H1303     1.0  0.81236  0.61271  0.40149  1.0000
  H   H1304     1.0  0.84677  0.64947  0.38068  1.0000
  H   H1305     1.0  0.91809  0.57284  0.36919  1.0000
  H   H1306     1.0  0.88351  0.53612  0.38977  1.0000
  C   C1635     1.0  0.53677  0.92733  0.37736  1.0000
  C   C1636     1.0  0.55285  0.92666  0.39541  1.0000
  C   C1637     1.0  0.58794  0.93593  0.39751  1.0000
  C   C1638     1.0  0.60707  0.94525  0.38145  1.0000
  C   C1639     1.0  0.59094  0.94583  0.36345  1.0000
  C   C1640     1.0  0.55582  0.93714  0.36140  1.0000
  H   H1307     1.0  0.53826  0.91869  0.40773  1.0000
  H   H1308     1.0  0.60038  0.93517  0.41140  1.0000
  C   C1641     1.0  0.71698  0.52820  0.61075  1.0000
  H   H1309     1.0  0.68619  0.93941  0.34540  1.0000
  H   H1310     1.0  0.67662  0.90218  0.51925  1.0000
  H   H1311     1.0  0.68926  0.92429  0.55180  1.0000
  C   C1642     1.0  0.76888  0.95254  0.36094  1.0000
  H   H1312     1.0  0.85551  0.56819  0.60718  1.0000
  C   C1643     1.0  0.79016  0.85902  0.65502  1.0000
  C   C1644     1.0  0.81620  0.88148  0.65058  1.0000
  C   C1645     1.0  0.85113  0.87332  0.65403  1.0000
  C   C1646     1.0  0.86003  0.84319  0.66182  1.0000
  S   S226      1.0  0.75699  0.98938  0.61482  1.0000
  H   H1313     1.0  0.76320  0.86500  0.65259  1.0000
  H   H1314     1.0  0.87153  0.89048  0.65066  1.0000
  H   H1315     1.0  0.69792  0.52477  0.38877  1.0000
  Fe  Fe113     1.0  0.70251  0.95023  0.45271  1.0000
  H   H1316     1.0  0.98075  0.64688  0.36905  1.0000
  C   C1647     1.0  0.76290  0.80415  0.43019  1.0000
  H   H1317     1.0  0.60131  0.52115  0.55648  1.0000
  H   H1318     1.0  0.74269  0.85234  0.43434  1.0000
  Fe  Fe114     1.0  0.67675  0.94033  0.62881  1.0000
  H   H1319     1.0  0.50088  0.92707  0.43632  1.0000
  C   C1648     1.0  0.94505  0.51841  0.40913  1.0000
  C   C1649     1.0  0.84265  0.57460  0.64818  1.0000
  C   C1650     1.0  0.87243  0.56099  0.65620  1.0000
  S   S227      1.0  0.73255  0.98304  0.40368  1.0000
  S   S228      1.0  0.67090  0.98685  0.43649  1.0000
  C   C1651     1.0  0.86412  0.62807  0.65767  1.0000
  C   C1652     1.0  0.83860  0.60821  0.64899  1.0000
  H   H1320     1.0  0.80645  0.97288  0.57160  1.0000
  C   C1653     1.0  0.91269  0.50540  0.51574  1.0000
  H   H1321     1.0  0.76924  0.92561  0.48724  1.0000
  H   H1322     1.0  0.81565  0.61894  0.64280  1.0000
  C   C1654     1.0  0.52073  0.93767  0.63814  1.0000
  C   C1655     1.0  0.53324  0.92184  0.65433  1.0000
  C   C1656     1.0  0.56843  0.91304  0.65534  1.0000
  C   C1657     1.0  0.59140  0.92086  0.64045  1.0000
  C   C1658     1.0  0.57895  0.93693  0.62432  1.0000
  C   C1659     1.0  0.54358  0.94500  0.62309  1.0000
  H   H1323     1.0  0.49932  0.90702  0.46971  1.0000
  S   S229      1.0  0.75341  0.97625  0.44842  1.0000
  H   H1324     1.0  0.59648  0.94269  0.61271  1.0000
  H   H1325     1.0  0.53397  0.95721  0.61053  1.0000
  C   C1660     1.0  0.79903  0.82888  0.66285  1.0000
  C   C1661     1.0  0.79897  0.79303  0.60853  1.0000
  H   H1326     1.0  0.73270  0.54537  0.63862  1.0000
  C   C1662     1.0  0.99057  0.54493  0.39104  1.0000
  C   C1663     1.0  0.67280  0.84841  0.58870  1.0000
  C   C1664     1.0  0.70331  0.50110  0.64039  1.0000
  H   H1327     1.0  0.72094  0.72551  0.48139  1.0000
  H   H1328     1.0  0.82387  0.94593  0.60178  1.0000
  C   C1665     1.0  0.73285  0.77256  0.40575  1.0000
  H   H1329     1.0  0.94095  0.71395  0.42972  1.0000
  C   C1666     1.0  0.89775  0.58081  0.66500  1.0000
  H   H1330     1.0  0.95950  0.64813  0.60375  1.0000
  C   C1667     1.0  0.76335  0.89941  0.34680  1.0000
  C   C1668     1.0  0.75875  0.77538  0.41976  1.0000
  C   C1669     1.0  0.95592  0.64437  0.40545  1.0000
  H   H1331     1.0  0.74337  0.87544  0.49993  1.0000
  C   C1670     1.0  0.69581  0.93812  0.53922  1.0000
  C   C1671     1.0  0.66849  0.84659  0.60853  1.0000
  S   S230      1.0  0.71503  0.95897  0.65055  1.0000
  H   H1332     1.0  0.97481  0.67657  0.49447  1.0000
  H   H1333     1.0  0.65056  0.85314  0.57962  1.0000
  C   C1672     1.0  0.71097  0.96870  0.54132  1.0000
  C   C1673     1.0  0.71273  0.97366  0.50633  1.0000
  H   H1334     1.0  0.95952  0.53307  0.60267  1.0000
  H   H1335     1.0  0.78436  0.97041  0.36855  1.0000
  C   C1674     1.0  0.93312  0.53297  0.59743  1.0000
  H   H1336     1.0  0.69705  0.84688  0.40996  1.0000
  H   H1337     1.0  0.69159  0.87739  0.37338  1.0000
  C   C1675     1.0  0.74025  0.82982  0.42660  1.0000
  H   H1338     1.0  0.97076  0.63136  0.47123  1.0000
  C   C1676     1.0  0.80943  0.72693  0.48275  1.0000
  C   C1677     1.0  0.86630  0.81782  0.45222  1.0000
  H   H1339     1.0  0.93502  0.80469  0.42245  1.0000
  H   H1340     1.0  0.70899  0.84812  0.56534  1.0000
  H   H1341     1.0  0.94196  0.62654  0.39702  1.0000
  C   C1678     1.0  0.71412  0.82680  0.41273  1.0000
  C   C1679     1.0  0.75421  0.77684  0.53845  1.0000
  C   C1680     1.0  0.77768  0.78593  0.52414  1.0000
  C   C1681     1.0  0.80188  0.81054  0.52762  1.0000
  C   C1682     1.0  0.80236  0.82638  0.54532  1.0000
  C   C1683     1.0  0.77793  0.81830  0.55947  1.0000
  C   C1684     1.0  0.75449  0.79280  0.55613  1.0000
  P   P57       1.0  0.77810  0.83939  0.58209  1.0000
  C   C1685     1.0  0.80921  0.81957  0.59741  1.0000
  C   C1686     1.0  0.78864  0.88131  0.57833  1.0000
  C   C1687     1.0  0.80494  0.89931  0.59284  1.0000
  C   C1688     1.0  0.81185  0.93210  0.59032  1.0000
  C   C1689     1.0  0.80217  0.94723  0.57334  1.0000
  C   C1690     1.0  0.78562  0.92955  0.55887  1.0000
  C   C1691     1.0  0.77830  0.89685  0.56145  1.0000
  C   C1692     1.0  0.86750  0.81583  0.61078  1.0000
  C   C1693     1.0  0.77532  0.90269  0.48059  1.0000
  C   C1694     1.0  0.85666  0.79040  0.62241  1.0000
  C   C1695     1.0  0.84711  0.79384  0.42234  1.0000
  C   C1696     1.0  0.84400  0.83015  0.59817  1.0000
  C   C1697     1.0  0.73504  0.84023  0.59242  1.0000
  C   C1698     1.0  0.70595  0.84541  0.58066  1.0000
  C   C1699     1.0  0.75338  0.76150  0.46804  1.0000
  H   H1342     1.0  0.80709  0.92379  0.45845  1.0000
  C   C1700     1.0  0.69735  0.84187  0.62034  1.0000
  C   C1701     1.0  0.73055  0.83906  0.61236  1.0000
  H   H1343     1.0  0.73576  0.75746  0.53584  1.0000
  H   H1344     1.0  0.77727  0.77380  0.51042  1.0000
  H   H1345     1.0  0.82026  0.81743  0.51659  1.0000
  H   H1346     1.0  0.82151  0.84522  0.54787  1.0000
  H   H1347     1.0  0.73631  0.78537  0.56712  1.0000
  H   H1348     1.0  0.81166  0.88822  0.60631  1.0000
  H   H1349     1.0  0.84216  0.76197  0.46923  1.0000
  H   H1350     1.0  0.96378  0.59136  0.42853  1.0000
  H   H1351     1.0  0.77739  0.94158  0.54592  1.0000
  H   H1352     1.0  0.76402  0.88405  0.55039  1.0000
  C   C1702     1.0  0.87428  0.55274  0.60026  1.0000
  H   H1353     1.0  0.69036  0.79607  0.39145  1.0000
  H   H1354     1.0  0.99125  0.53319  0.54189  1.0000
  H   H1355     1.0  0.71929  0.98760  0.49378  1.0000
  H   H1356     1.0  0.85293  0.84984  0.58930  1.0000
  C   C1703     1.0  0.89389  0.61439  0.66566  1.0000
  C   C1704     1.0  0.86378  0.53244  0.58532  1.0000
  C   C1705     1.0  0.81250  0.50540  0.36040  1.0000
  C   C1706     1.0  0.69698  0.94340  0.50420  1.0000
  H   H1357     1.0  0.75273  0.83720  0.62181  1.0000
  C   C1707     1.0  0.90077  0.81719  0.44579  1.0000
  C   C1708     1.0  0.77538  0.71640  0.48615  1.0000
  C   C1709     1.0  0.74736  0.73376  0.47886  1.0000
  C   C1710     1.0  0.60438  0.86421  0.37077  1.0000
  H   H1358     1.0  0.73028  0.75049  0.39755  1.0000
  H   H1359     1.0  0.70066  0.50421  0.58497  1.0000
  H   H1360     1.0  0.82698  0.78531  0.41275  1.0000
  H   H1361     1.0  0.64298  0.85000  0.61482  1.0000
  C   C1711     1.0  0.93748  0.66983  0.41352  1.0000
  C   C1712     1.0  0.79651  0.90171  0.46438  1.0000
  C   C1713     1.0  0.95500  0.69343  0.42416  1.0000
  S   S231      1.0  0.96236  0.71323  0.35057  1.0000
  H   H1362     1.0  0.75507  0.82330  0.48422  1.0000
  P   P58       1.0  0.79479  0.80667  0.44924  1.0000
  S   S232      1.0  0.72035  0.98625  0.56407  1.0000
  H   H1363     1.0  0.92088  0.53302  0.54137  1.0000
  Fe  Fe115     1.0  0.95189  0.74814  0.37434  1.0000
  H   H1364     1.0  0.54380  0.93723  0.34740  1.0000
  C   C1714     1.0  0.78754  0.77210  0.46440  1.0000
  C   C1715     1.0  0.97609  0.50412  0.34466  1.0000
  S   S233      1.0  0.92904  0.78600  0.35531  1.0000
  H   H1365     1.0  0.83116  0.71333  0.48829  1.0000
  C   C1716     1.0  0.99093  0.69134  0.42689  1.0000
  C   C1717     1.0  0.95223  0.50687  0.66643  1.0000
  H   H1366     1.0  0.75195  0.50965  0.40587  1.0000
  H   H1367     1.0  0.77072  0.69467  0.49433  1.0000
  C   C1718     1.0  0.76740  0.84480  0.47873  1.0000
  H   H1368     1.0  0.92154  0.82661  0.45474  1.0000
  C   C1719     1.0  0.78352  0.92301  0.35600  1.0000
  H   H1369     1.0  0.90969  0.67154  0.41113  1.0000
  C   C1720     1.0  0.83914  0.80610  0.44053  1.0000
  H   H1370     1.0  0.51575  0.91607  0.66596  1.0000
  H   H1371     1.0  0.69920  0.89009  0.66334  1.0000
  H   H1372     1.0  0.87587  0.53521  0.65560  1.0000
  C   C1721     1.0  0.97299  0.63398  0.61439  1.0000
  C   C1722     1.0  0.96537  0.57132  0.41864  1.0000
  C   C1723     1.0  0.92478  0.50996  0.53446  1.0000
  H   H1373     1.0  0.87455  0.77993  0.63263  1.0000
  H   H1374     1.0  0.89398  0.82481  0.61184  1.0000
  H   H1375     1.0  0.58163  0.86309  0.37991  1.0000
  C   C1724     1.0  0.80303  0.87239  0.45527  1.0000
  C   C1725     1.0  0.90841  0.80490  0.42765  1.0000
  H   H1376     1.0  0.89892  0.52445  0.50844  1.0000
  H   H1377     1.0  0.80424  0.50561  0.53242  1.0000
  H   H1378     1.0  0.81846  0.87234  0.44229  1.0000
  H   H1379     1.0  0.96665  0.66931  0.63679  1.0000
  C   C1726     1.0  0.97341  0.53111  0.65876  1.0000
  H   H1380     1.0  0.63350  0.99182  0.66619  1.0000
  H   H1381     1.0  0.81234  0.51442  0.37497  1.0000
  Fe  Fe116     1.0  0.68255  0.95734  0.41032  1.0000
  H   H1382     1.0  0.77262  0.78373  0.60778  1.0000
  C   C1727     1.0  0.98620  0.60377  0.60961  1.0000
  H   H1383     1.0  0.81420  0.75933  0.63040  1.0000
  C   C1728     1.0  0.78879  0.84366  0.46246  1.0000
  H   H1384     1.0  0.73137  0.77448  0.46230  1.0000
  H   H1385     1.0  0.77560  0.75511  0.42244  1.0000
  H   H1386     1.0  0.81029  0.91804  0.35985  1.0000
  C   C1729     1.0  0.88157  0.79335  0.41598  1.0000
  C   C1730     1.0  0.71043  0.79822  0.40229  1.0000
  H   H1387     1.0  0.86083  0.82760  0.46627  1.0000
  C   C1731     1.0  0.81555  0.75467  0.47192  1.0000
  C   C1732     1.0  0.66643  0.87241  0.36693  1.0000
  H   H1388     1.0  0.74193  0.77052  0.35754  1.0000
  C   C1733     1.0  0.97200  0.53722  0.34224  1.0000
  H   H1389     1.0  0.83672  0.53174  0.58093  1.0000
  C   C1734     1.0  0.88803  0.51273  0.57622  1.0000
  S   S234      1.0  0.99027  0.75627  0.39823  1.0000
  H   H1390     1.0  0.72226  0.98105  0.36104  1.0000
  C   C1735     1.0  0.71855  0.52693  0.63071  1.0000
  H   H1391     1.0  0.96563  0.54223  0.64550  1.0000
  C   C1736     1.0  0.71956  0.98621  0.52476  1.0000
  H   H1392     1.0  0.92041  0.57013  0.67145  1.0000
  H   H1393     1.0  0.98312  0.59449  0.59519  1.0000
  C   C1737     1.0  0.94360  0.54474  0.42154  1.0000
  C   C1738     1.0  0.97712  0.64599  0.63296  1.0000
  C   C1739     1.0  0.83401  0.82072  0.66628  1.0000
  H   H1394     1.0  0.77524  0.87650  0.34364  1.0000
  C   C1740     1.0  0.96873  0.51835  0.39402  1.0000
  H   H1395     1.0  0.57796  0.90031  0.66772  1.0000
  C   C1741     1.0  0.92313  0.51352  0.58182  1.0000
  C   C1742     1.0  0.70824  0.50074  0.38706  1.0000
  H   H1396     1.0  0.88702  0.83732  0.66433  1.0000
  C   C1743     1.0  0.78191  0.50549  0.34959  1.0000
  H   H1397     1.0  0.70583  0.49934  0.65580  1.0000
  H   H1398     1.0  0.99264  0.55370  0.34631  1.0000
  C   C1744     1.0  0.72818  0.90525  0.34253  1.0000
  C   C1745     1.0  0.98833  0.57206  0.40300  1.0000
  H   H1399     1.0  0.77867  0.81172  0.66624  1.0000
  C   C1746     1.0  0.60611  0.99741  0.66748  1.0000
  C   C1747     1.0  0.60056  0.86192  0.35093  1.0000
  C   C1748     1.0  0.71360  0.93486  0.34777  1.0000
  C   C1749     1.0  0.66290  0.86996  0.34694  1.0000
  C   C1750     1.0  0.74306  0.78730  0.34573  1.0000
  C   C1751     1.0  0.72180  0.81446  0.34566  1.0000
  H   H1400     1.0  0.57484  0.85880  0.34477  1.0000
  H   H1401     1.0  0.92891  0.49905  0.65893  1.0000
  H   H1402     1.0  0.52520  0.99776  0.36461  1.0000
  Fe  Fe117     1.0  0.78916  0.73837  0.89796  1.0000
  S   S235      1.0  0.84038  0.75819  0.90875  1.0000
  S   S236      1.0  0.74033  0.76977  0.89837  1.0000
  Fe  Fe118     1.0  0.82043  0.67081  0.89023  1.0000
  S   S237      1.0  0.87311  0.68665  0.90016  1.0000
  S   S238      1.0  0.81109  0.61926  0.87983  1.0000
  Fe  Fe119     1.0  0.84533  0.71110  0.92453  1.0000
  S   S239      1.0  0.86890  0.69969  0.95368  1.0000
  Fe  Fe120     1.0  0.86277  0.73151  0.88359  1.0000
  S   S240      1.0  0.89999  0.75095  0.86159  1.0000
  S   S241      1.0  0.79260  0.69272  0.91551  1.0000
  S   S242      1.0  0.81144  0.71441  0.87186  1.0000
  Fe  Fe121     1.0  0.57349  0.90630  0.84525  1.0000
  S   S243      1.0  0.56740  0.95591  0.83360  1.0000
  C   C1752     1.0  0.81132  0.90665  0.70156  1.0000
  Fe  Fe122     1.0  0.65020  0.90362  0.83590  1.0000
  S   S244      1.0  0.65007  0.95325  0.82265  1.0000
  S   S245      1.0  0.69961  0.87349  0.83511  1.0000
  Fe  Fe123     1.0  0.61832  0.96737  0.84817  1.0000
  S   S246      1.0  0.93669  0.52499  0.86075  1.0000
  Fe  Fe124     1.0  0.59910  0.93865  0.80890  1.0000
  S   S247      1.0  0.58593  0.95447  0.77855  1.0000
  S   S248      1.0  0.62132  0.91873  0.86248  1.0000
  S   S249      1.0  0.60246  0.88797  0.81954  1.0000
  C   C1753     1.0  0.68201  0.97127  0.69979  1.0000
  H   H1403     1.0  0.68454  0.81499  0.89582  1.0000
  Fe  Fe125     1.0  0.92801  0.69178  0.68249  1.0000
  Fe  Fe126     1.0  0.94084  0.73581  0.71752  1.0000
  H   H1404     1.0  0.79303  0.78907  0.77629  1.0000
  H   H1405     1.0  0.55072  0.89708  0.89057  1.0000
  C   C1754     1.0  0.54588  0.94503  0.76684  1.0000
  C   C1755     1.0  0.60590  0.95310  0.71575  1.0000
  C   C1756     1.0  0.74655  0.71255  0.96821  1.0000
  H   H1406     1.0  0.77718  0.86107  0.76539  1.0000
  C   C1757     1.0  0.98151  0.55499  0.75424  1.0000
  C   C1758     1.0  0.53921  0.95799  0.74867  1.0000
  C   C1759     1.0  0.57166  0.90353  0.71476  1.0000
  H   H1407     1.0  0.75044  0.87421  0.79652  1.0000
  H   H1408     1.0  0.55780  0.97405  0.74228  1.0000
  H   H1409     1.0  0.87089  0.50049  0.68491  1.0000
  H   H1410     1.0  0.67817  0.93687  0.76877  1.0000
  S   S250      1.0  0.94783  0.73608  0.75003  1.0000
  C   C1760     1.0  0.83744  0.99496  0.92697  1.0000
  H   H1411     1.0  0.72943  0.76227  0.83599  1.0000
  C   C1761     1.0  0.85394  0.71367  0.97620  1.0000
  C   C1762     1.0  0.82965  0.73841  0.97778  1.0000
  C   C1763     1.0  0.69998  0.92052  0.76787  1.0000
  H   H1412     1.0  0.81957  0.74959  0.96500  1.0000
  H   H1413     1.0  0.55061  0.88942  0.70856  1.0000
  C   C1764     1.0  0.84625  0.59281  0.87522  1.0000
  C   C1765     1.0  0.88085  0.60355  0.87584  1.0000
  C   C1766     1.0  0.83932  0.56068  0.86992  1.0000
  H   H1414     1.0  0.88668  0.62821  0.87964  1.0000
  H   H1415     1.0  0.81268  0.55213  0.86933  1.0000
  C   C1767     1.0  0.94383  0.74647  0.86801  1.0000
  C   C1768     1.0  0.96975  0.74893  0.85398  1.0000
  H   H1416     1.0  0.79943  0.76773  0.99706  1.0000
  S   S251      1.0  0.94155  0.78058  0.69955  1.0000
  C   C1769     1.0  0.98985  0.73361  0.76066  1.0000
  C   C1770     1.0  0.95313  0.74135  0.88709  1.0000
  H   H1417     1.0  0.96256  0.75296  0.83921  1.0000
  C   C1771     1.0  0.59252  0.81528  0.84965  1.0000
  C   C1772     1.0  0.97328  0.61549  0.80789  1.0000
  H   H1418     1.0  0.93324  0.73956  0.89798  1.0000
  C   C1773     1.0  0.73113  0.80026  0.88132  1.0000
  C   C1774     1.0  0.75277  0.80629  0.86564  1.0000
  C   C1775     1.0  0.74347  0.82967  0.85198  1.0000
  C   C1776     1.0  0.71218  0.84679  0.85365  1.0000
  C   C1777     1.0  0.69126  0.84164  0.86968  1.0000
  C   C1778     1.0  0.70092  0.81877  0.88352  1.0000
  H   H1419     1.0  0.77648  0.79270  0.86391  1.0000
  H   H1420     1.0  0.76026  0.83392  0.83983  1.0000
  H   H1421     1.0  0.66731  0.85479  0.87121  1.0000
  H   H1422     1.0  0.85742  0.77698  0.82889  1.0000
  H   H1423     1.0  0.93380  0.64864  0.71836  1.0000
  C   C1779     1.0  0.63933  0.77742  0.85379  1.0000
  C   C1780     1.0  0.78534  0.98491  0.90805  1.0000
  Fe  Fe127     1.0  0.89627  0.75923  0.68318  1.0000
  C   C1781     1.0  0.78832  0.91304  0.71670  1.0000
  C   C1782     1.0  0.95013  0.62026  0.79257  1.0000
  C   C1783     1.0  0.93642  0.65113  0.78968  1.0000
  P   P59       1.0  0.93423  0.58641  0.77854  1.0000
  C   C1784     1.0  0.90190  0.56530  0.79243  1.0000
  C   C1785     1.0  0.89468  0.53272  0.78858  1.0000
  C   C1786     1.0  0.66640  0.86918  0.68495  1.0000
  C   C1787     1.0  0.80712  0.96907  0.71645  1.0000
  C   C1788     1.0  0.85871  0.56442  0.81778  1.0000
  C   C1789     1.0  0.88357  0.58114  0.80703  1.0000
  C   C1790     1.0  0.91523  0.60008  0.75634  1.0000
  C   C1791     1.0  0.93314  0.62257  0.74498  1.0000
  C   C1792     1.0  0.91981  0.63147  0.72717  1.0000
  C   C1793     1.0  0.88823  0.61849  0.72072  1.0000
  C   C1794     1.0  0.87004  0.59643  0.73201  1.0000
  C   C1795     1.0  0.88346  0.58719  0.74975  1.0000
  C   C1796     1.0  0.97387  0.55009  0.94538  1.0000
  S   S252      1.0  0.97608  0.70798  0.69838  1.0000
  C   C1797     1.0  0.78663  0.94441  0.72423  1.0000
  H   H1424     1.0  0.82188  0.94825  0.91687  1.0000
  H   H1425     1.0  0.90870  0.51980  0.77755  1.0000
  C   C1798     1.0  0.76523  0.68750  0.97651  1.0000
  C   C1799     1.0  0.74292  0.89172  0.74892  1.0000
  H   H1426     1.0  0.84523  0.57646  0.82935  1.0000
  H   H1427     1.0  0.88864  0.60622  0.81034  1.0000
  H   H1428     1.0  0.87786  0.62551  0.70693  1.0000
  H   H1429     1.0  0.84568  0.58625  0.72688  1.0000
  H   H1430     1.0  0.86906  0.56976  0.75811  1.0000
  C   C1800     1.0  0.61353  0.75888  0.91770  1.0000
  C   C1801     1.0  0.64935  0.75377  0.92031  1.0000
  C   C1802     1.0  0.66126  0.72506  0.92822  1.0000
  C   C1803     1.0  0.63752  0.70127  0.93379  1.0000
  C   C1804     1.0  0.60182  0.70620  0.93140  1.0000
  C   C1805     1.0  0.58981  0.73486  0.92336  1.0000
  C   C1806     1.0  0.62663  0.85811  0.90682  1.0000
  H   H1431     1.0  0.68476  0.96437  0.87906  1.0000
  H   H1432     1.0  0.64006  0.84850  0.70912  1.0000
  H   H1433     1.0  0.66828  0.77176  0.91599  1.0000
  H   H1434     1.0  0.68903  0.72119  0.92976  1.0000
  H   H1435     1.0  0.64686  0.67894  0.93983  1.0000
  H   H1436     1.0  0.58345  0.68766  0.93566  1.0000
  C   C1807     1.0  0.66419  0.85882  0.70390  1.0000
  C   C1808     1.0  0.61936  0.79694  0.84190  1.0000
  H   H1437     1.0  0.64892  0.76143  0.88227  1.0000
  H   H1438     1.0  0.57677  0.83022  0.84046  1.0000
  H   H1439     1.0  0.62483  0.79805  0.82671  1.0000
  C   C1809     1.0  0.74123  0.95127  0.83755  1.0000
  C   C1810     1.0  0.73983  0.94560  0.85725  1.0000
  C   C1811     1.0  0.75726  0.96627  0.87006  1.0000
  C   C1812     1.0  0.97034  0.67207  0.81628  1.0000
  P   P60       1.0  0.75598  0.95799  0.89544  1.0000
  C   C1813     1.0  0.76890  0.91653  0.89822  1.0000
  H   H1440     1.0  0.83117  0.67906  0.72292  1.0000
  H   H1441     1.0  0.97138  0.53927  0.80183  1.0000
  C   C1814     1.0  0.82927  0.96263  0.70108  1.0000
  H   H1442     1.0  0.91304  0.52259  0.74048  1.0000
  C   C1815     1.0  0.72418  0.87571  0.70941  1.0000
  C   C1816     1.0  0.59014  0.89178  0.73042  1.0000
  C   C1817     1.0  0.79821  0.90510  0.88839  1.0000
  C   C1818     1.0  0.80816  0.87292  0.89011  1.0000
  C   C1819     1.0  0.78886  0.85191  0.90157  1.0000
  C   C1820     1.0  0.75946  0.86297  0.91122  1.0000
  C   C1821     1.0  0.74945  0.89514  0.90956  1.0000
  H   H1443     1.0  0.64403  0.86711  0.67553  1.0000
  S   S253      1.0  0.52489  0.87857  0.85292  1.0000
  C   C1822     1.0  0.65913  0.88187  0.93312  1.0000
  C   C1823     1.0  0.64836  0.97523  0.92278  1.0000
  C   C1824     1.0  0.95890  0.58064  0.94669  1.0000
  C   C1825     1.0  0.64534  0.88397  0.91466  1.0000
  C   C1826     1.0  0.81538  0.97354  0.91717  1.0000
  H   H1444     1.0  0.78577  0.67585  0.96846  1.0000
  H   H1445     1.0  0.72791  0.93513  0.82776  1.0000
  H   H1446     1.0  0.72543  0.92485  0.86244  1.0000
  C   C1827     1.0  0.85178  0.53197  0.81392  1.0000
  H   H1447     1.0  0.70626  0.74755  0.97224  1.0000
  C   C1828     1.0  0.83143  0.93143  0.69370  1.0000
  C   C1829     1.0  0.77698  0.99208  0.86275  1.0000
  H   H1448     1.0  0.69316  0.73071  0.00540  1.0000
  H   H1449     1.0  0.63935  0.59997  0.00404  1.0000
  H   H1450     1.0  0.81329  0.92101  0.87932  1.0000
  H   H1451     1.0  0.83063  0.86404  0.88242  1.0000
  C   C1830     1.0  0.89222  0.51549  0.71211  1.0000
  H   H1452     1.0  0.74414  0.84625  0.91967  1.0000
  H   H1453     1.0  0.72639  0.90298  0.91695  1.0000
  H   H1454     1.0  0.66049  0.76349  0.84787  1.0000
  H   H1455     1.0  0.67359  0.90193  0.93918  1.0000
  C   C1831     1.0  0.80063  0.70387  0.74414  1.0000
  P   P61       1.0  0.76050  0.88126  0.72568  1.0000
  C   C1832     1.0  0.63577  0.82778  0.93591  1.0000
  C   C1833     1.0  0.68348  0.96671  0.89444  1.0000
  C   C1834     1.0  0.69753  0.88224  0.67809  1.0000
  H   H1456     1.0  0.91976  0.61251  0.93554  1.0000
  H   H1457     1.0  0.89972  0.57406  0.91066  1.0000
  H   H1458     1.0  0.53662  0.96207  0.93089  1.0000
  C   C1835     1.0  0.90118  0.55044  0.86592  1.0000
  C   C1836     1.0  0.60617  0.79533  0.88144  1.0000
  H   H1459     1.0  0.56568  0.82982  0.87504  1.0000
  C   C1837     1.0  0.73277  0.69405  0.00613  1.0000
  H   H1460     1.0  0.94718  0.69309  0.95332  1.0000
  H   H1461     1.0  0.62794  0.97380  0.89412  1.0000
  H   H1462     1.0  0.66495  0.85214  0.95808  1.0000
  H   H1463     1.0  0.97145  0.74471  0.78906  1.0000
  C   C1838     1.0  0.81834  0.74868  0.99597  1.0000
  C   C1839     1.0  0.50580  0.82826  0.92845  1.0000
  H   H1464     1.0  0.96806  0.59784  0.95730  1.0000
  C   C1840     1.0  0.83123  0.69077  0.73682  1.0000
  C   C1841     1.0  0.86666  0.53953  0.86533  1.0000
  H   H1465     1.0  0.50423  0.96019  0.72443  1.0000
  H   H1466     1.0  0.84824  0.92653  0.68160  1.0000
  C   C1842     1.0  0.50867  0.95014  0.73847  1.0000
  H   H1467     1.0  0.90770  0.81309  0.83379  1.0000
  H   H1468     1.0  0.74935  0.81476  0.71132  1.0000
  H   H1469     1.0  0.88395  0.76890  0.76895  1.0000
  C   C1843     1.0  0.72062  0.72807  0.97868  1.0000
  P   P62       1.0  0.59856  0.79588  0.90701  1.0000
  C   C1844     1.0  0.52783  0.78639  0.89956  1.0000
  C   C1845     1.0  0.62227  0.82955  0.91724  1.0000
  H   H1470     1.0  0.76098  0.98177  0.81518  1.0000
  H   H1471     1.0  0.63090  0.90122  0.75083  1.0000
  C   C1846     1.0  0.92052  0.56739  0.92030  1.0000
  H   H1472     1.0  0.73677  0.81513  0.78348  1.0000
  C   C1847     1.0  0.65426  0.85381  0.94376  1.0000
  H   H1473     1.0  0.62323  0.97949  0.92925  1.0000
  C   C1848     1.0  0.71506  0.91338  0.75015  1.0000
  H   H1474     1.0  0.52562  0.91445  0.78898  1.0000
  H   H1475     1.0  0.88596  0.68324  0.74176  1.0000
  H   H1476     1.0  0.61591  0.86044  0.89259  1.0000
  H   H1477     1.0  0.86104  0.51482  0.86139  1.0000
  H   H1478     1.0  0.80550  0.99330  0.72214  1.0000
  H   H1479     1.0  0.97116  0.56884  0.74254  1.0000
  S   S254      1.0  0.89244  0.71655  0.70309  1.0000
  C   C1849     1.0  0.63261  0.77637  0.87344  1.0000
  H   H1480     1.0  0.88592  0.68051  0.99190  1.0000
  C   C1850     1.0  0.58610  0.81473  0.86932  1.0000
  C   C1851     1.0  0.93186  0.58908  0.93434  1.0000
  H   H1481     1.0  0.74995  0.89582  0.68442  1.0000
  H   H1482     1.0  0.56436  0.94244  0.69543  1.0000
  H   H1483     1.0  0.93408  0.80460  0.77416  1.0000
  H   H1484     1.0  0.56210  0.73807  0.92153  1.0000
  C   C1852     1.0  0.94681  0.67690  0.80134  1.0000
  C   C1853     1.0  0.96875  0.67914  0.94777  1.0000
  C   C1854     1.0  0.96696  0.66634  0.92928  1.0000
  H   H1485     1.0  0.64928  0.90551  0.90629  1.0000
  C   C1855     1.0  0.86202  0.69286  0.74742  1.0000
  C   C1856     1.0  0.71353  0.96467  0.90581  1.0000
  H   H1486     1.0  0.94417  0.67073  0.92052  1.0000
  C   C1857     1.0  0.96160  0.52770  0.93179  1.0000
  H   H1487     1.0  0.53594  0.77020  0.88825  1.0000
  H   H1488     1.0  0.63203  0.80635  0.94445  1.0000
  H   H1489     1.0  0.93624  0.70062  0.79893  1.0000
  H   H1490     1.0  0.64584  0.95454  0.73759  1.0000
  C   C1858     1.0  0.96888  0.55855  0.77305  1.0000
  C   C1859     1.0  0.79498  0.78856  0.71905  1.0000
  C   C1860     1.0  0.82772  0.78968  0.72776  1.0000
  C   C1861     1.0  0.83984  0.81836  0.73598  1.0000
  C   C1862     1.0  0.81930  0.84600  0.73540  1.0000
  C   C1863     1.0  0.78626  0.84506  0.72674  1.0000
  C   C1864     1.0  0.77422  0.81608  0.71856  1.0000
  H   H1491     1.0  0.67614  0.97639  0.94957  1.0000
  H   H1492     1.0  0.90102  0.53870  0.70687  1.0000
  C   C1865     1.0  0.67812  0.97345  0.93419  1.0000
  C   C1866     1.0  0.54373  0.98294  0.92247  1.0000
  H   H1493     1.0  0.70529  0.80234  0.81347  1.0000
  H   H1494     1.0  0.77669  0.70198  0.73599  1.0000
  H   H1495     1.0  0.58326  0.86864  0.73648  1.0000
  H   H1496     1.0  0.82941  0.86824  0.74144  1.0000
  P   P63       1.0  0.61475  0.99346  0.70714  1.0000
  H   H1497     1.0  0.78515  0.73611  0.82920  1.0000
  C   C1867     1.0  0.86953  0.51628  0.79919  1.0000
  H   H1498     1.0  0.61627  0.99787  0.74953  1.0000
  H   H1499     1.0  0.79626  0.82681  0.90269  1.0000
  C   C1868     1.0  0.93581  0.53708  0.91873  1.0000
  H   H1500     1.0  0.78633  0.76662  0.71200  1.0000
  H   H1501     1.0  0.84413  0.76854  0.72762  1.0000
  H   H1502     1.0  0.86558  0.81931  0.74234  1.0000
  H   H1503     1.0  0.70057  0.91120  0.79818  1.0000
  H   H1504     1.0  0.69075  0.85367  0.73070  1.0000
  C   C1869     1.0  0.90810  0.58253  0.87116  1.0000
  C   C1870     1.0  0.71761  0.97537  0.69637  1.0000
  C   C1871     1.0  0.52266  0.89513  0.89114  1.0000
  C   C1872     1.0  0.52088  0.92468  0.77502  1.0000
  H   H1505     1.0  0.94644  0.82698  0.80654  1.0000
  C   C1873     1.0  0.55265  0.80198  0.91121  1.0000
  H   H1506     1.0  0.91728  0.65542  0.77864  1.0000
  C   C1874     1.0  0.82045  0.65493  0.82459  1.0000
  C   C1875     1.0  0.85082  0.65290  0.83547  1.0000
  C   C1876     1.0  0.87597  0.67723  0.83454  1.0000
  C   C1877     1.0  0.87082  0.70374  0.82268  1.0000
  C   C1878     1.0  0.84008  0.70630  0.81190  1.0000
  C   C1879     1.0  0.81515  0.68144  0.81273  1.0000
  P   P64       1.0  0.83287  0.73984  0.79609  1.0000
  C   C1880     1.0  0.86719  0.76955  0.79867  1.0000
  C   C1881     1.0  0.83198  0.72195  0.77253  1.0000
  C   C1882     1.0  0.86232  0.70800  0.76526  1.0000
  H   H1507     1.0  0.93471  0.59119  0.87170  1.0000
  C   C1883     1.0  0.80087  0.71921  0.76202  1.0000
  C   C1884     1.0  0.88849  0.77834  0.78318  1.0000
  C   C1885     1.0  0.91690  0.79907  0.78602  1.0000
  C   C1886     1.0  0.92388  0.81164  0.80423  1.0000
  C   C1887     1.0  0.90202  0.80398  0.81953  1.0000
  C   C1888     1.0  0.87352  0.78337  0.81672  1.0000
  C   C1889     1.0  0.79262  0.75974  0.80181  1.0000
  C   C1890     1.0  0.77914  0.78284  0.78926  1.0000
  C   C1891     1.0  0.74742  0.79771  0.79330  1.0000
  C   C1892     1.0  0.72940  0.79018  0.81007  1.0000
  C   C1893     1.0  0.74301  0.76765  0.82278  1.0000
  C   C1894     1.0  0.77469  0.75274  0.81882  1.0000
  H   H1508     1.0  0.80085  0.63612  0.82566  1.0000
  H   H1509     1.0  0.85470  0.63260  0.84474  1.0000
  H   H1510     1.0  0.89924  0.67590  0.84330  1.0000
  H   H1511     1.0  0.89088  0.72209  0.82225  1.0000
  H   H1512     1.0  0.79147  0.68274  0.80437  1.0000
  H   H1513     1.0  0.88645  0.70920  0.77330  1.0000
  C   C1895     1.0  0.62509  0.94057  0.73109  1.0000
  H   H1514     1.0  0.77667  0.72833  0.76763  1.0000
  C   C1896     1.0  0.65106  0.97203  0.90295  1.0000
  C   C1897     1.0  0.69297  0.86189  0.71607  1.0000
  H   H1515     1.0  0.67117  0.94713  0.69977  1.0000
  H   H1516     1.0  0.70479  0.92450  0.73735  1.0000
  H   H1517     1.0  0.75262  0.72016  0.95376  1.0000
  H   H1518     1.0  0.73340  0.96676  0.93484  1.0000
  C   C1898     1.0  0.75583  0.87782  0.76578  1.0000
  C   C1899     1.0  0.57947  0.93399  0.70742  1.0000
  C   C1900     1.0  0.74075  0.88515  0.78349  1.0000
  H   H1519     1.0  0.81308  0.88268  0.69543  1.0000
  H   H1520     1.0  0.53151  0.96014  0.89544  1.0000
  C   C1901     1.0  0.50391  0.88641  0.87474  1.0000
  C   C1902     1.0  0.86700  0.69956  0.99298  1.0000
  C   C1903     1.0  0.71266  0.90620  0.78450  1.0000
  H   H1521     1.0  0.51950  0.90673  0.92123  1.0000
  H   H1522     1.0  0.55974  0.83475  0.93520  1.0000
  H   H1523     1.0  0.99263  0.63935  0.90749  1.0000
  C   C1904     1.0  0.61707  0.91014  0.73846  1.0000
  C   C1905     1.0  0.76005  0.97748  0.83045  1.0000
  H   H1524     1.0  0.73387  0.95466  0.69377  1.0000
  H   H1525     1.0  0.97815  0.69208  0.82541  1.0000
  H   H1526     1.0  0.98335  0.59192  0.81103  1.0000
  C   C1906     1.0  0.72634  0.88547  0.69021  1.0000
  H   H1527     1.0  0.76934  0.95011  0.73592  1.0000
  C   C1907     1.0  0.71056  0.96812  0.92577  1.0000
  C   C1908     1.0  0.54071  0.98176  0.90255  1.0000
  H   H1528     1.0  0.95759  0.63298  0.74978  1.0000
  C   C1909     1.0  0.54132  0.82255  0.92591  1.0000
  C   C1910     1.0  0.75839  0.67820  0.99536  1.0000
  H   H1529     1.0  0.84463  0.98181  0.69475  1.0000
  Fe  Fe128     1.0  0.97469  0.75130  0.67946  1.0000
  C   C1911     1.0  0.50498  0.90067  0.90844  1.0000
  C   C1912     1.0  0.71353  0.71868  0.99750  1.0000
  H   H1530     1.0  0.92721  0.52094  0.90739  1.0000
  C   C1913     1.0  0.89878  0.50652  0.73103  1.0000
  C   C1914     1.0  0.98208  0.53864  0.78749  1.0000
  C   C1915     1.0  0.98339  0.64133  0.81963  1.0000
  H   H1531     1.0  0.99032  0.60542  0.68950  1.0000
  S   S255      1.0  0.92714  0.63786  0.67664  1.0000
  H   H1532     1.0  0.51321  0.92251  0.99836  1.0000
  H   H1533     1.0  0.77327  0.65871  0.00134  1.0000
  C   C1916     1.0  0.99169  0.50151  0.69320  1.0000
  H   H1534     1.0  0.86063  0.98611  0.93398  1.0000
  S   S256      1.0  0.84368  0.78213  0.67591  1.0000
  H   H1535     1.0  0.83308  0.51889  0.82257  1.0000
  C   C1917     1.0  0.98836  0.73982  0.89225  1.0000
  H   H1536     1.0  0.49710  0.84490  0.93942  1.0000
  C   C1918     1.0  0.99384  0.73848  0.78050  1.0000
  C   C1919     1.0  0.77802  0.99782  0.84305  1.0000
  C   C1920     1.0  0.66068  0.99824  0.70250  1.0000
