data_image0
_chemical_formula_structural       C3HFeHSH2C4SCHCHCSHCHCHC4PC10HC4PC2SCH10CH4C2HC3HCHSC3HC2H2C4HC2HCHC2HC3HCH2FeCH3C2SHC2H2C2H3CH4CH4C2H9FeHCH3C5FeS2FeHFeCFeS3FeS2FeSCFeSFeS3CFeSHFeS2C2H2C3HSC7H4CPH2C2SH2C4H4C2HCHCHC6H4C3PHCFeC3S2H2C2HC4HCSC3H2CHCH2CHC13HC6H2CH8C3H2CHCPH2CH2SC6PC16H8FeH2CH7C2H2C6H2C2PHCHCHCSC2HC2H2PCH2FeH2C3HC2HCH2CHCH3CHCH2CH2CHSHC3H3C3HC2HS2CHC4HC2H2CHC2HC4HCHCH2C3H4C2HCHCH3C2H3FeS2FeS2FeSFeS3FeS2FeS2FeHFeSCSHFeS2HFeS2HFeC6HCHCH5C6HCH2C2HCH3CH2C6H4CHC2HC2HCH3C2H2CH2PH2CPHC3FeC9PC18H20C3HC2HC4HC2HCHC4H2C3SPC3HCHCH2C2HC2H2SH3C3HCPCHSC2H2C3H3CSC2HC2HC2HC2SCH2C2HCHCHCH2CH3C2H3CH2C2HCHFeHC2SC3FeHC3HCH3CH2SHCHC2SH2C2H3C4HCHCHC2HCH3SCSCHCHCH2C3HC4HC3HC2HCHC2HC2H4CH2CHC7HC3HCHSC6HCH3CH2CHC4SHCPCH2CH2CHC3HCHCHCH3CSCHC2H2CHC2HPHCHC2HSC3H2PC6H4CHFeH5FeC2HC2H2CHCHCH2C2HCH3C2H3CFeS2FeCFeCFeHS2FeS2FeS2FeSFeS3C2HCH4CH4C6H4C3PC4HC2H2CHC5HC3H3CHCHC3HPC3HC2HC5HCHSCH2C3HC5H3CH2C3HCH2C2HC2H2C2HCH3C2HCHC3H2CHC2HC3HCH4PC3H2CHCH2C2SC3H3C4H3C3PC6H3C4H4C4H2CH2C3H3C2HC2H3C4H2PHSC2HC3HCH2CHCHCHCH2C3HSCHFeS2FeHFeSCSFeCHFeS2FeHSHFeHPCH3CH2S2CSCH2C6HCH4CH3SCHCSC3HCH3CHCHC9HC7FeH3C2HCHCHC7HC2HSHCFeC4HCHCH5C4HCH5SHPH2CHC2H2CH2C3PC20HCH2CH13CH4C2HC5SC2HCHC2SC2H2CSCHCHCSH2CHCPC2H2SCHCHCH3SFeSC2SH2C2S2HFeHCFeSHFeS2CHFeSCFeCSCHC2S2C2H2C3HCHC2HCH3CH2CHC2H3CHCHC3H2CHC3H2CHCH4FeHC5PC7HC4HCSC2HCH5C2H2C2H4CSCSCH3C2H2C3HC2HC2HSCHCHCFeCH3CH2C3HC2H2CH4PH2CH2C3H4C3HC2FeS2FeS2FeSFeHS2FeSCFeSCFeSFeCSHCH4CHCH2CHC9H4C2PC3H2CH2CHCH2C2H2C2HCPC3H3C8H2CSH7PH2C3HC2H2CH2CHC5PC3HC5HSH2C6PC18H22C3H3CHC2SHCHCH2C4HCH2CHC3HCHCHCHCHCH3C5H2CH2C3SC2H2CHC2FeS2H2CSCSHSHFeHSHC2HC2HC4HC2HC3HC3HC4H2CHSCHCHCH3C2HC2HCH4CH2C2HC3H2C2PHC2SHCHFeC2HCFeH2CH3C3H2CH2CH2C4H3C5H3C2HC3PCHC2HCH2C2HC5H4CH2C2HC4HCH2C3HSC5HFeHCH3C5SHC5HCPH2CH3FeCPFeS2FeHFeS3FeS2FeS2FeSFeHS2HCSHSHCHC2HSC6H4CSCH4SC5H3CHCHCHC7H4CH3CH2C2HC10PH9C6PC15H17PCHC3H3C2HSCH3CFeC2HC5HCHC2HCHC2HC3HFeSC3HC2H3CHC3H3CHC3HCH2C2H2C2H4CHC2HCH2C5HC4H2CHSCPCH2C3HC4H4CHCH4CHC3HCH3C3H4FeS2FeS2FeHFeS3FeH2FeS2FeSFeS3CHSHCH2CHC4SCH2C5H2C6H5CHC2HPC6H4C2HC5H2C3H3C2H3CHSC8PC18H12C2H6C6PC17H9CH2CH5CH2C2HCHCHC2H2C2HCFeH3CH2C4HC5HC2HCHCHC2H2CHCHCHCH2CHSHCH6C2HCHCSHC6HCHCPC2SHCHC3HSHCH2CHCPHC2H2CHC2HCH2PFeCH2C5SCSHFeCSC2S3FeCSCHC2HC3SCFeCFeCS2C2H2C2H2SCFeC2PC13HC4HC2H5CH7C2H2CHC2HC4H2CFeH4C2H4C2HCH3C3HC2HCHC3SCHC3H3CH2CH3C3H3CHCH3C5HC4HCHCSH2C2HCHPCH2CH3
_chemical_formula_sum              "C1440 H1152 Fe96 S192 P48"
_cell_length_a       71.2015
_cell_length_b       38.9128
_cell_length_c       37.9447
_cell_angle_alpha    89.9385
_cell_angle_beta     89.9567
_cell_angle_gamma    88.2701

_space_group_name_H-M_alt    "P 1"
_space_group_IT_number       1

loop_
  _space_group_symop_operation_xyz
  'x, y, z'

loop_
  _atom_site_type_symbol
  _atom_site_label
  _atom_site_symmetry_multiplicity
  _atom_site_fract_x
  _atom_site_fract_y
  _atom_site_fract_z
  _atom_site_occupancy
  C   C1        1.0  0.17816  0.00221  0.15150  1.0000
  C   C2        1.0  0.30675  0.99918  0.44987  1.0000
  C   C3        1.0  0.04440  0.99197  0.29597  1.0000
  H   H1        1.0  0.10462  0.10002  0.11518  1.0000
  Fe  Fe1       1.0  0.00204  0.44598  0.30834  1.0000
  H   H2        1.0  0.22620  0.03016  0.03004  1.0000
  S   S1        1.0  0.00708  0.41769  0.35980  1.0000
  H   H3        1.0  0.04951  0.03106  0.45483  1.0000
  H   H4        1.0  0.31061  0.41050  0.42268  1.0000
  C   C4        1.0  0.12317  0.99395  0.30760  1.0000
  C   C5        1.0  0.03736  0.99154  0.23379  1.0000
  C   C6        1.0  0.07673  0.45408  0.05859  1.0000
  C   C7        1.0  0.15422  0.47727  0.01151  1.0000
  S   S2        1.0  0.99989  0.08499  0.35994  1.0000
  C   C8        1.0  0.02830  0.43660  0.00681  1.0000
  H   H5        1.0  0.28867  0.23873  0.47821  1.0000
  C   C9        1.0  0.16697  0.03183  0.14606  1.0000
  H   H6        1.0  0.15926  0.04334  0.16789  1.0000
  C   C10       1.0  0.13442  0.02582  0.02561  1.0000
  S   S3        1.0  0.00854  0.01708  0.27619  1.0000
  H   H7        1.0  0.13469  0.04801  0.04271  1.0000
  C   C11       1.0  0.03151  0.09806  0.27378  1.0000
  H   H8        1.0  0.17294  0.04149  0.05787  1.0000
  C   C12       1.0  0.03611  0.08060  0.24267  1.0000
  H   H9        1.0  0.01577  0.36974  0.15471  1.0000
  C   C13       1.0  0.08863  0.42573  0.05034  1.0000
  C   C14       1.0  0.06459  0.10394  0.28634  1.0000
  C   C15       1.0  0.06934  0.08643  0.25503  1.0000
  C   C16       1.0  0.05494  0.07447  0.23342  1.0000
  P   P1        1.0  0.09376  0.08036  0.24276  1.0000
  C   C17       1.0  0.09560  0.06782  0.19699  1.0000
  C   C18       1.0  0.10498  0.12098  0.24893  1.0000
  C   C19       1.0  0.09501  0.15187  0.24151  1.0000
  C   C20       1.0  0.10350  0.18348  0.24616  1.0000
  C   C21       1.0  0.12203  0.18453  0.25812  1.0000
  C   C22       1.0  0.13207  0.15394  0.26545  1.0000
  C   C23       1.0  0.12361  0.12226  0.26091  1.0000
  C   C24       1.0  0.09957  0.09192  0.17061  1.0000
  C   C25       1.0  0.10137  0.08150  0.13545  1.0000
  C   C26       1.0  0.16533  0.04602  0.11231  1.0000
  H   H10       1.0  0.10443  0.39904  0.00967  1.0000
  C   C27       1.0  0.09327  0.03332  0.18757  1.0000
  C   C28       1.0  0.10527  0.04696  0.26878  1.0000
  C   C29       1.0  0.09706  0.03470  0.29981  1.0000
  C   C30       1.0  0.10605  0.00836  0.31918  1.0000
  P   P2        1.0  0.07016  0.46242  0.10399  1.0000
  C   C31       1.0  0.13146  0.00606  0.27682  1.0000
  C   C32       1.0  0.12254  0.03240  0.25743  1.0000
  S   S4        1.0  0.29915  0.99570  0.40511  1.0000
  C   C33       1.0  0.09068  0.45726  0.13182  1.0000
  H   H11       1.0  0.04943  0.39594  0.00325  1.0000
  H   H12       1.0  0.07547  0.11315  0.30355  1.0000
  H   H13       1.0  0.05807  0.06018  0.20961  1.0000
  H   H14       1.0  0.08065  0.15154  0.23206  1.0000
  H   H15       1.0  0.09568  0.20718  0.24054  1.0000
  H   H16       1.0  0.12859  0.20905  0.26174  1.0000
  H   H17       1.0  0.14644  0.15474  0.27474  1.0000
  H   H18       1.0  0.13165  0.09899  0.26689  1.0000
  H   H19       1.0  0.10140  0.11867  0.17698  1.0000
  H   H20       1.0  0.23580  0.18009  0.45961  1.0000
  C   C34       1.0  0.99437  0.41012  0.47955  1.0000
  H   H21       1.0  0.00832  0.47908  0.00237  1.0000
  H   H22       1.0  0.09026  0.01425  0.20746  1.0000
  H   H23       1.0  0.08351  0.04455  0.30866  1.0000
  H   H24       1.0  0.16753  0.46312  0.01137  1.0000
  C   C35       1.0  0.07750  0.48276  0.28529  1.0000
  C   C36       1.0  0.04123  0.41525  0.98892  1.0000
  H   H25       1.0  0.12898  0.04099  0.23324  1.0000
  C   C37       1.0  0.12454  0.45915  0.13948  1.0000
  C   C38       1.0  0.05236  0.43341  0.11868  1.0000
  C   C39       1.0  0.03648  0.37910  0.11450  1.0000
  H   H26       1.0  0.31720  0.21287  0.45059  1.0000
  C   C40       1.0  0.25182  0.47807  0.45151  1.0000
  H   H27       1.0  0.09557  0.00473  0.00415  1.0000
  S   S5        1.0  0.13205  0.98875  0.08770  1.0000
  C   C41       1.0  0.18601  0.00062  0.08909  1.0000
  C   C42       1.0  0.04977  0.40183  0.10172  1.0000
  C   C43       1.0  0.04154  0.44166  0.14865  1.0000
  H   H28       1.0  0.31689  0.07314  0.35219  1.0000
  C   C44       1.0  0.30042  0.02766  0.47005  1.0000
  C   C45       1.0  0.08898  0.44291  0.98898  1.0000
  H   H29       1.0  0.98768  0.00050  0.20802  1.0000
  H   H30       1.0  0.30941  0.42966  0.36020  1.0000
  C   C46       1.0  0.01817  0.46221  0.98844  1.0000
  C   C47       1.0  0.12255  0.45161  0.17527  1.0000
  C   C48       1.0  0.10471  0.44709  0.18946  1.0000
  C   C49       1.0  0.08882  0.44987  0.16790  1.0000
  H   H31       1.0  0.09359  0.40836  0.07089  1.0000
  C   C50       1.0  0.09504  0.02303  0.15241  1.0000
  C   C51       1.0  0.21466  0.03089  0.01149  1.0000
  H   H32       1.0  0.98785  0.23924  0.28442  1.0000
  C   C52       1.0  0.02842  0.41882  0.16155  1.0000
  H   H33       1.0  0.02501  0.07079  0.22634  1.0000
  C   C53       1.0  0.04872  0.02682  0.48304  1.0000
  C   C54       1.0  0.07698  0.47095  0.99682  1.0000
  H   H34       1.0  0.10083  0.03885  0.09923  1.0000
  C   C55       1.0  0.04574  0.47756  0.26195  1.0000
  C   C56       1.0  0.03173  0.99935  0.26861  1.0000
  C   C57       1.0  0.07088  0.47658  0.03147  1.0000
  H   H35       1.0  0.05509  0.45581  0.31114  1.0000
  C   C58       1.0  0.09476  0.42029  0.01571  1.0000
  H   H36       1.0  0.03460  0.35465  0.10151  1.0000
  H   H37       1.0  0.29148  0.04721  0.45783  1.0000
  Fe  Fe2       1.0  0.99148  0.04523  0.31997  1.0000
  C   C59       1.0  0.10868  0.46221  0.11790  1.0000
  H   H38       1.0  0.13478  0.45020  0.19226  1.0000
  H   H39       1.0  0.10313  0.44239  0.21748  1.0000
  H   H40       1.0  0.07521  0.44692  0.17989  1.0000
  C   C60       1.0  0.31449  0.20870  0.47835  1.0000
  C   C61       1.0  0.17482  0.03053  0.08388  1.0000
  S   S6        1.0  0.02234  0.46168  0.26358  1.0000
  H   H41       1.0  0.09941  0.99833  0.34255  1.0000
  C   C62       1.0  0.04574  0.10968  0.29565  1.0000
  C   C63       1.0  0.19931  0.00951  0.01599  1.0000
  H   H42       1.0  0.22368  0.01069  0.10420  1.0000
  H   H43       1.0  0.20764  0.21787  0.46979  1.0000
  C   C64       1.0  0.02586  0.38755  0.14445  1.0000
  C   C65       1.0  0.09915  0.04707  0.12638  1.0000
  H   H44       1.0  0.04206  0.12300  0.31989  1.0000
  H   H45       1.0  0.15621  0.06837  0.10793  1.0000
  H   H46       1.0  0.05803  0.39448  0.07891  1.0000
  C   C66       1.0  0.05899  0.47085  0.28848  1.0000
  H   H47       1.0  0.03613  0.46544  0.38423  1.0000
  H   H48       1.0  0.98838  0.38625  0.42967  1.0000
  H   H49       1.0  0.02045  0.42521  0.18523  1.0000
  H   H50       1.0  0.09358  0.99623  0.14543  1.0000
  C   C67       1.0  0.13323  0.99278  0.04066  1.0000
  H   H51       1.0  0.07040  0.46418  0.39587  1.0000
  H   H52       1.0  0.13832  0.46365  0.12854  1.0000
  H   H53       1.0  0.11055  0.46925  0.09055  1.0000
  H   H54       1.0  0.01688  0.10206  0.28118  1.0000
  C   C68       1.0  0.13534  0.03050  0.98862  1.0000
  C   C69       1.0  0.18442  0.01145  0.99175  1.0000
  H   H55       1.0  0.04033  0.99755  0.32287  1.0000
  H   H56       1.0  0.08757  0.47709  0.30598  1.0000
  H   H57       1.0  0.02631  0.43358  0.03496  1.0000
  H   H58       1.0  0.02773  0.99699  0.21234  1.0000
  H   H59       1.0  0.24448  0.45416  0.44984  1.0000
  H   H60       1.0  0.26195  0.47550  0.39787  1.0000
  H   H61       1.0  0.00543  0.42559  0.46889  1.0000
  H   H62       1.0  0.04347  0.46558  0.16252  1.0000
  H   H63       1.0  0.01952  0.01397  0.48175  1.0000
  Fe  Fe3       1.0  0.98917  0.45979  0.38547  1.0000
  H   H64       1.0  0.17231  0.99556  0.99496  1.0000
  C   C70       1.0  0.08476  0.99150  0.98991  1.0000
  H   H65       1.0  0.17930  0.99104  0.17764  1.0000
  H   H66       1.0  0.25479  0.99268  0.12714  1.0000
  H   H67       1.0  0.14457  0.99436  0.26752  1.0000
  C   C71       1.0  0.06372  0.48663  0.38378  1.0000
  C   C72       1.0  0.22034  0.22169  0.48484  1.0000
  C   C73       1.0  0.23623  0.20049  0.47901  1.0000
  C   C74       1.0  0.23059  0.98778  0.09357  1.0000
  C   C75       1.0  0.04445  0.48717  0.37691  1.0000
  Fe  Fe4       1.0  0.12600  0.38065  0.84177  1.0000
  S   S7        1.0  0.12693  0.41238  0.79208  1.0000
  S   S8        1.0  0.11344  0.32707  0.83756  1.0000
  Fe  Fe5       1.0  0.14112  0.43992  0.88675  1.0000
  H   H68       1.0  0.09942  0.25995  0.82360  1.0000
  Fe  Fe6       1.0  0.11490  0.45632  0.82396  1.0000
  C   C76       1.0  0.02085  0.46630  0.95215  1.0000
  Fe  Fe7       1.0  0.15588  0.42741  0.81035  1.0000
  S   S9        1.0  0.17915  0.41785  0.76818  1.0000
  S   S10       1.0  0.11192  0.42382  0.87296  1.0000
  S   S11       1.0  0.15504  0.39399  0.85899  1.0000
  Fe  Fe8       1.0  0.14301  0.11932  0.84309  1.0000
  S   S12       1.0  0.14480  0.09946  0.78735  1.0000
  S   S13       1.0  0.14974  0.17519  0.85721  1.0000
  Fe  Fe9       1.0  0.13966  0.04594  0.87417  1.0000
  S   S14       1.0  0.14148  0.02240  0.81956  1.0000
  C   C77       1.0  0.15043  0.32776  0.76331  1.0000
  Fe  Fe10      1.0  0.16499  0.05886  0.80843  1.0000
  S   S15       1.0  0.19384  0.03940  0.78666  1.0000
  Fe  Fe11      1.0  0.12105  0.06463  0.80275  1.0000
  S   S16       1.0  0.09494  0.06246  0.76613  1.0000
  S   S17       1.0  0.16423  0.07969  0.86381  1.0000
  S   S18       1.0  0.11827  0.08700  0.85769  1.0000
  C   C78       1.0  0.05348  0.48702  0.88729  1.0000
  Fe  Fe12      1.0  0.28918  0.43647  0.69789  1.0000
  S   S19       1.0  0.28704  0.40297  0.65010  1.0000
  H   H69       1.0  0.30340  0.36470  0.82189  1.0000
  Fe  Fe13      1.0  0.29098  0.07697  0.67137  1.0000
  S   S20       1.0  0.29992  0.09353  0.61664  1.0000
  S   S21       1.0  0.26042  0.09208  0.68709  1.0000
  C   C79       1.0  0.30330  0.24325  0.67668  1.0000
  C   C80       1.0  0.98967  0.41251  0.51530  1.0000
  H   H70       1.0  0.30015  0.05277  0.52110  1.0000
  H   H71       1.0  0.02170  0.00559  0.66771  1.0000
  C   C81       1.0  0.13677  0.30311  0.75934  1.0000
  C   C82       1.0  0.27365  0.29955  0.80571  1.0000
  C   C83       1.0  0.31594  0.10371  0.78389  1.0000
  H   H72       1.0  0.14638  0.35421  0.76854  1.0000
  S   S22       1.0  0.15114  0.45403  0.94285  1.0000
  C   C84       1.0  0.23123  0.33692  0.65133  1.0000
  C   C85       1.0  0.21234  0.05502  0.75938  1.0000
  C   C86       1.0  0.21004  0.08413  0.73793  1.0000
  C   C87       1.0  0.22496  0.09510  0.71646  1.0000
  C   C88       1.0  0.24241  0.07707  0.71571  1.0000
  C   C89       1.0  0.24477  0.04789  0.73705  1.0000
  C   C90       1.0  0.22983  0.03698  0.75863  1.0000
  H   H73       1.0  0.19659  0.09762  0.73719  1.0000
  H   H74       1.0  0.22285  0.11741  0.69987  1.0000
  H   H75       1.0  0.25802  0.03353  0.73674  1.0000
  H   H76       1.0  0.23181  0.01424  0.77480  1.0000
  C   C91       1.0  0.07616  0.03335  0.75866  1.0000
  P   P3        1.0  0.27402  0.23708  0.55011  1.0000
  H   H77       1.0  0.17341  0.03525  0.94448  1.0000
  H   H78       1.0  0.20750  0.32169  0.72709  1.0000
  C   C92       1.0  0.04455  0.02378  0.73460  1.0000
  C   C93       1.0  0.05959  0.04568  0.74196  1.0000
  S   S23       1.0  0.31111  0.40207  0.72335  1.0000
  H   H79       1.0  0.03194  0.03412  0.72226  1.0000
  H   H80       1.0  0.05829  0.07256  0.73486  1.0000
  C   C94       1.0  0.20314  0.42831  0.75973  1.0000
  C   C95       1.0  0.21238  0.41372  0.73015  1.0000
  C   C96       1.0  0.23130  0.42098  0.72217  1.0000
  C   C97       1.0  0.24124  0.44369  0.74331  1.0000
  H   H81       1.0  0.03020  0.37813  0.89179  1.0000
  H   H82       1.0  0.20381  0.14578  0.85391  1.0000
  H   H83       1.0  0.20474  0.39686  0.71314  1.0000
  H   H84       1.0  0.23804  0.40960  0.69925  1.0000
  C   C98       1.0  0.23723  0.31090  0.71957  1.0000
  C   C99       1.0  0.20033  0.05511  0.95866  1.0000
  H   H85       1.0  0.22205  0.35972  0.77811  1.0000
  C   C100      1.0  0.30780  0.19861  0.55020  1.0000
  H   H86       1.0  0.27101  0.27365  0.81442  1.0000
  C   C101      1.0  0.31224  0.47598  0.53373  1.0000
  H   H87       1.0  0.28078  0.18910  0.74070  1.0000
  C   C102      1.0  0.12417  0.28515  0.84172  1.0000
  C   C103      1.0  0.14260  0.27985  0.85382  1.0000
  C   C104      1.0  0.15014  0.24609  0.85815  1.0000
  C   C105      1.0  0.13956  0.21714  0.84985  1.0000
  C   C106      1.0  0.12131  0.22247  0.83686  1.0000
  C   C107      1.0  0.11366  0.25623  0.83305  1.0000
  H   H88       1.0  0.15088  0.30174  0.86055  1.0000
  H   H89       1.0  0.16419  0.24237  0.86846  1.0000
  H   H90       1.0  0.11294  0.20060  0.83049  1.0000
  H   H91       1.0  0.30580  0.19512  0.57825  1.0000
  C   C108      1.0  0.01685  0.40382  0.63774  1.0000
  C   C109      1.0  0.03190  0.99017  0.84295  1.0000
  C   C110      1.0  0.31663  0.13859  0.79304  1.0000
  P   P4        1.0  0.03782  0.45143  0.88752  1.0000
  H   H92       1.0  0.20643  0.46194  0.80405  1.0000
  C   C111      1.0  0.27707  0.34168  0.53919  1.0000
  Fe  Fe14      1.0  0.31777  0.04483  0.61461  1.0000
  C   C112      1.0  0.31939  0.25716  0.76511  1.0000
  C   C113      1.0  0.06333  0.02636  0.54077  1.0000
  C   C114      1.0  0.28939  0.35019  0.56624  1.0000
  S   S24       1.0  0.26478  0.45610  0.73343  1.0000
  S   S25       1.0  0.13675  0.00591  0.91897  1.0000
  H   H93       1.0  0.99324  0.10091  0.59685  1.0000
  H   H94       1.0  0.10874  0.00767  0.65190  1.0000
  C   C115      1.0  0.31662  0.00557  0.52243  1.0000
  C   C116      1.0  0.19644  0.32667  0.84484  1.0000
  H   H95       1.0  0.02704  0.38722  0.65114  1.0000
  C   C117      1.0  0.29830  0.22313  0.49403  1.0000
  C   C118      1.0  0.06449  0.03131  0.50428  1.0000
  C   C119      1.0  0.99959  0.08027  0.61238  1.0000
  C   C120      1.0  0.99901  0.45294  0.87487  1.0000
  H   H96       1.0  0.10065  0.00196  0.88200  1.0000
  C   C121      1.0  0.29186  0.35098  0.81048  1.0000
  S   S26       1.0  0.31489  0.10313  0.69813  1.0000
  C   C122      1.0  0.25170  0.17753  0.74792  1.0000
  C   C123      1.0  0.03634  0.99087  0.87900  1.0000
  C   C124      1.0  0.29460  0.21740  0.52988  1.0000
  H   H97       1.0  0.19153  0.11284  0.80380  1.0000
  H   H98       1.0  0.00203  0.36198  0.61549  1.0000
  C   C125      1.0  0.01689  0.46079  0.86201  1.0000
  H   H99       1.0  0.27572  0.25164  0.74986  1.0000
  C   C126      1.0  0.00060  0.04596  0.66553  1.0000
  H   H100      1.0  0.29853  0.27045  0.59972  1.0000
  H   H101      1.0  0.08706  0.02333  0.94414  1.0000
  C   C127      1.0  0.25263  0.20528  0.49846  1.0000
  H   H102      1.0  0.26921  0.09113  0.79519  1.0000
  C   C128      1.0  0.26329  0.23459  0.62112  1.0000
  C   C129      1.0  0.05964  0.10173  0.90681  1.0000
  C   C130      1.0  0.06604  0.11381  0.87438  1.0000
  C   C131      1.0  0.07084  0.09055  0.84761  1.0000
  C   C132      1.0  0.06967  0.05519  0.85345  1.0000
  C   C133      1.0  0.06362  0.04285  0.88612  1.0000
  C   C134      1.0  0.05817  0.06639  0.91252  1.0000
  C   C135      1.0  0.02305  0.03386  0.61858  1.0000
  C   C136      1.0  0.01856  0.47419  0.82782  1.0000
  C   C137      1.0  0.22076  0.24748  0.51042  1.0000
  C   C138      1.0  0.27998  0.36757  0.78617  1.0000
  C   C139      1.0  0.26388  0.23491  0.75164  1.0000
  C   C140      1.0  0.25332  0.23175  0.52353  1.0000
  H   H103      1.0  0.07564  0.03038  0.55674  1.0000
  C   C141      1.0  0.07222  0.48167  0.89784  1.0000
  C   C142      1.0  0.14283  0.47697  0.98111  1.0000
  C   C143      1.0  0.27337  0.99092  0.60727  1.0000
  C   C144      1.0  0.03181  0.01710  0.49819  1.0000
  C   C145      1.0  0.18497  0.03406  0.96316  1.0000
  C   C146      1.0  0.98911  0.41113  0.60079  1.0000
  H   H104      1.0  0.26291  0.13491  0.62328  1.0000
  H   H105      1.0  0.20066  0.07262  0.93643  1.0000
  C   C147      1.0  0.99236  0.07254  0.64558  1.0000
  H   H106      1.0  0.02862  0.45053  0.65746  1.0000
  H   H107      1.0  0.30034  0.18214  0.81361  1.0000
  H   H108      1.0  0.25433  0.23203  0.67530  1.0000
  H   H109      1.0  0.05575  0.11979  0.92745  1.0000
  H   H110      1.0  0.06726  0.14116  0.86991  1.0000
  H   H111      1.0  0.07567  0.09985  0.82234  1.0000
  H   H112      1.0  0.07346  0.03757  0.83242  1.0000
  H   H113      1.0  0.05276  0.05745  0.93747  1.0000
  C   C148      1.0  0.08114  0.01093  0.62854  1.0000
  C   C149      1.0  0.25824  0.21747  0.65198  1.0000
  C   C150      1.0  0.26201  0.31575  0.78045  1.0000
  H   H114      1.0  0.25400  0.15008  0.74389  1.0000
  H   H115      1.0  0.27180  0.16467  0.56862  1.0000
  C   C151      1.0  0.26682  0.19955  0.74641  1.0000
  H   H116      1.0  0.04538  0.32679  0.86423  1.0000
  C   C152      1.0  0.20347  0.29279  0.84429  1.0000
  P   P5        1.0  0.24180  0.29445  0.76331  1.0000
  H   H117      1.0  0.02468  0.99137  0.93178  1.0000
  H   H118      1.0  0.07743  0.45619  0.90495  1.0000
  C   C153      1.0  0.28244  0.10426  0.79521  1.0000
  H   H119      1.0  0.04918  0.07660  0.64275  1.0000
  H   H120      1.0  0.07524  0.09730  0.67882  1.0000
  S   S27       1.0  0.14389  0.47435  0.83900  1.0000
  C   C154      1.0  0.12014  0.16112  0.74349  1.0000
  C   C155      1.0  0.11610  0.15475  0.70813  1.0000
  C   C156      1.0  0.12782  0.16716  0.68172  1.0000
  C   C157      1.0  0.14370  0.18565  0.69068  1.0000
  C   C158      1.0  0.14807  0.19138  0.72624  1.0000
  C   C159      1.0  0.13607  0.17930  0.75254  1.0000
  P   P6        1.0  0.16831  0.21557  0.73850  1.0000
  C   C160      1.0  0.16117  0.25911  0.74994  1.0000
  C   C161      1.0  0.17963  0.19384  0.77533  1.0000
  C   C162      1.0  0.18636  0.21230  0.80424  1.0000
  C   C163      1.0  0.19537  0.19506  0.83218  1.0000
  C   C164      1.0  0.19748  0.15928  0.83173  1.0000
  C   C165      1.0  0.19048  0.14068  0.80347  1.0000
  C   C166      1.0  0.18147  0.15783  0.77555  1.0000
  C   C167      1.0  0.14207  0.26884  0.75282  1.0000
  C   C168      1.0  0.16941  0.31833  0.76090  1.0000
  C   C169      1.0  0.17480  0.28409  0.75446  1.0000
  C   C170      1.0  0.18466  0.21625  0.70184  1.0000
  C   C171      1.0  0.19595  0.18707  0.69372  1.0000
  C   C172      1.0  0.20851  0.18762  0.66537  1.0000
  C   C173      1.0  0.20986  0.21718  0.64474  1.0000
  C   C174      1.0  0.19849  0.24613  0.65219  1.0000
  C   C175      1.0  0.18578  0.24557  0.68029  1.0000
  H   H121      1.0  0.11111  0.15134  0.76402  1.0000
  H   H122      1.0  0.10392  0.14008  0.70136  1.0000
  H   H123      1.0  0.12460  0.16237  0.65430  1.0000
  H   H124      1.0  0.15251  0.19525  0.66986  1.0000
  H   H125      1.0  0.13913  0.18366  0.78012  1.0000
  H   H126      1.0  0.18408  0.23975  0.80606  1.0000
  H   H127      1.0  0.19989  0.20922  0.85501  1.0000
  H   H128      1.0  0.12204  0.31053  0.76212  1.0000
  Fe  Fe15      1.0  0.31050  0.43390  0.62658  1.0000
  H   H129      1.0  0.17554  0.14288  0.75451  1.0000
  H   H130      1.0  0.13117  0.25028  0.75025  1.0000
  C   C176      1.0  0.23200  0.45822  0.77290  1.0000
  H   H131      1.0  0.18957  0.27709  0.75271  1.0000
  H   H132      1.0  0.19501  0.16369  0.70890  1.0000
  H   H133      1.0  0.21712  0.16498  0.65918  1.0000
  H   H134      1.0  0.21957  0.21745  0.62273  1.0000
  H   H135      1.0  0.19938  0.26895  0.63596  1.0000
  H   H136      1.0  0.17672  0.26798  0.68477  1.0000
  H   H137      1.0  0.26314  0.30126  0.51240  1.0000
  C   C177      1.0  0.21321  0.45040  0.78125  1.0000
  C   C178      1.0  0.27224  0.30743  0.53415  1.0000
  H   H138      1.0  0.04273  0.99324  0.82324  1.0000
  H   H139      1.0  0.26602  0.30303  0.70296  1.0000
  C   C179      1.0  0.07180  0.38843  0.82699  1.0000
  C   C180      1.0  0.06544  0.35575  0.83507  1.0000
  C   C181      1.0  0.05041  0.35216  0.85835  1.0000
  C   C182      1.0  0.04197  0.38124  0.87410  1.0000
  C   C183      1.0  0.04883  0.41404  0.86725  1.0000
  C   C184      1.0  0.06341  0.41752  0.84269  1.0000
  H   H140      1.0  0.99528  0.04041  0.69161  1.0000
  H   H141      1.0  0.05453  0.40328  0.93958  1.0000
  C   C185      1.0  0.09370  0.05403  0.66726  1.0000
  C   C186      1.0  0.26517  0.35005  0.77109  1.0000
  P   P7        1.0  0.06027  0.99755  0.89243  1.0000
  H   H142      1.0  0.22182  0.17383  0.75427  1.0000
  C   C187      1.0  0.26812  0.17973  0.59176  1.0000
  H   H143      1.0  0.27041  0.15186  0.81485  1.0000
  C   C188      1.0  0.24572  0.24855  0.75821  1.0000
  H   H144      1.0  0.23942  0.47587  0.78948  1.0000
  C   C189      1.0  0.06632  0.47118  0.75917  1.0000
  S   S28       1.0  0.31122  0.47033  0.67324  1.0000
  C   C190      1.0  0.31023  0.21101  0.66483  1.0000
  C   C191      1.0  0.22347  0.30627  0.79439  1.0000
  H   H145      1.0  0.03227  0.47911  0.81681  1.0000
  C   C192      1.0  0.27948  0.28158  0.55666  1.0000
  C   C193      1.0  0.30013  0.15568  0.80494  1.0000
  H   H146      1.0  0.08342  0.39118  0.80880  1.0000
  H   H147      1.0  0.07224  0.33323  0.82329  1.0000
  P   P8        1.0  0.04429  0.01189  0.60350  1.0000
  C   C194      1.0  0.03345  0.44436  0.93382  1.0000
  H   H148      1.0  0.06841  0.44259  0.83570  1.0000
  H   H149      1.0  0.18582  0.33451  0.86397  1.0000
  Fe  Fe16      1.0  0.30988  0.36962  0.67461  1.0000
  H   H150      1.0  0.28612  0.99763  0.59367  1.0000
  H   H151      1.0  0.17978  0.33787  0.76403  1.0000
  C   C195      1.0  0.07698  0.07352  0.66420  1.0000
  C   C196      1.0  0.20333  0.35065  0.82112  1.0000
  C   C197      1.0  0.25823  0.18156  0.65272  1.0000
  H   H152      1.0  0.25607  0.36368  0.75256  1.0000
  C   C198      1.0  0.21678  0.34056  0.79601  1.0000
  C   C199      1.0  0.26305  0.16276  0.62260  1.0000
  H   H153      1.0  0.13638  0.05606  0.97767  1.0000
  C   C200      1.0  0.04578  0.98886  0.74365  1.0000
  H   H154      1.0  0.20235  0.34466  0.66735  1.0000
  H   H155      1.0  0.29055  0.24470  0.69203  1.0000
  C   C201      1.0  0.25207  0.31186  0.69532  1.0000
  H   H156      1.0  0.19837  0.27453  0.86336  1.0000
  C   C202      1.0  0.01783  0.43948  0.64119  1.0000
  H   H157      1.0  0.23715  0.27193  0.55018  1.0000
  H   H158      1.0  0.07540  0.44843  0.75776  1.0000
  H   H159      1.0  0.99737  0.44100  0.90039  1.0000
  C   C203      1.0  0.21717  0.28270  0.81957  1.0000
  H   H160      1.0  0.30967  0.26867  0.74625  1.0000
  C   C204      1.0  0.30526  0.03084  0.50604  1.0000
  H   H161      1.0  0.22904  0.34792  0.62536  1.0000
  H   H162      1.0  0.19815  0.37715  0.82208  1.0000
  C   C205      1.0  0.23354  0.19097  0.75354  1.0000
  H   H163      1.0  0.26306  0.26239  0.62101  1.0000
  H   H164      1.0  0.27111  0.45886  0.60320  1.0000
  C   C206      1.0  0.21621  0.33508  0.67498  1.0000
  H   H165      1.0  0.30283  0.18790  0.67112  1.0000
  S   S29       1.0  0.30707  0.02613  0.66753  1.0000
  H   H166      1.0  0.04695  0.45332  0.71987  1.0000
  C   C207      1.0  0.31263  0.27361  0.66851  1.0000
  C   C208      1.0  0.00474  0.46101  0.62401  1.0000
  C   C209      1.0  0.01568  0.02631  0.65190  1.0000
  H   H167      1.0  0.28208  0.39421  0.77908  1.0000
  H   H168      1.0  0.26097  0.32707  0.64357  1.0000
  H   H169      1.0  0.25442  0.16804  0.67647  1.0000
  C   C210      1.0  0.00259  0.38963  0.61752  1.0000
  C   C211      1.0  0.26262  0.01676  0.62404  1.0000
  C   C212      1.0  0.01510  0.06149  0.59919  1.0000
  H   H170      1.0  0.08988  0.98838  0.78088  1.0000
  C   C213      1.0  0.07970  0.00222  0.95596  1.0000
  C   C214      1.0  0.28867  0.31701  0.82034  1.0000
  H   H171      1.0  0.09419  0.43908  0.96236  1.0000
  S   S30       1.0  0.30294  0.31326  0.68419  1.0000
  S   S31       1.0  0.30822  0.44359  0.56637  1.0000
  C   C215      1.0  0.00253  0.48123  0.80747  1.0000
  H   H172      1.0  0.29771  0.30437  0.83963  1.0000
  C   C216      1.0  0.26853  0.21577  0.59091  1.0000
  C   C217      1.0  0.28313  0.13854  0.80596  1.0000
  C   C218      1.0  0.23050  0.22642  0.75783  1.0000
  C   C219      1.0  0.21918  0.32208  0.70900  1.0000
  H   H173      1.0  0.21627  0.23649  0.76080  1.0000
  C   C220      1.0  0.03063  0.01193  0.53457  1.0000
  C   C221      1.0  0.24916  0.32520  0.66149  1.0000
  H   H174      1.0  0.22298  0.25675  0.82071  1.0000
  H   H175      1.0  0.29323  0.37666  0.57004  1.0000
  C   C222      1.0  0.13508  0.00211  0.96596  1.0000
  H   H176      1.0  0.26705  0.04314  0.62335  1.0000
  C   C223      1.0  0.23713  0.25231  0.52995  1.0000
  C   C224      1.0  0.05012  0.47409  0.73760  1.0000
  H   H177      1.0  0.10481  0.06267  0.68438  1.0000
  C   C225      1.0  0.24633  0.00857  0.64234  1.0000
  C   C226      1.0  0.99054  0.44691  0.60366  1.0000
  C   C227      1.0  0.04634  0.01674  0.55622  1.0000
  C   C228      1.0  0.04395  0.41929  0.95265  1.0000
  H   H178      1.0  0.99721  0.43011  0.53177  1.0000
  C   C229      1.0  0.06219  0.06153  0.64381  1.0000
  H   H179      1.0  0.01736  0.00455  0.54587  1.0000
  C   C230      1.0  0.29223  0.29025  0.58309  1.0000
  H   H180      1.0  0.02082  0.06877  0.57393  1.0000
  H   H181      1.0  0.29846  0.06015  0.77622  1.0000
  C   C231      1.0  0.29704  0.32447  0.58804  1.0000
  C   C232      1.0  0.29889  0.08679  0.78451  1.0000
  C   C233      1.0  0.07732  0.99851  0.76810  1.0000
  H   H182      1.0  0.30683  0.33104  0.60868  1.0000
  H   H183      1.0  0.20834  0.26359  0.51525  1.0000
  H   H184      1.0  0.31401  0.20535  0.74950  1.0000
  H   H185      1.0  0.23822  0.02862  0.65581  1.0000
  C   C234      1.0  0.06406  0.02985  0.62621  1.0000
  C   C235      1.0  0.09585  0.02293  0.64915  1.0000
  H   H186      1.0  0.26459  0.18793  0.49421  1.0000
  C   C236      1.0  0.21516  0.05359  0.98285  1.0000
  H   H187      1.0  0.22701  0.07006  0.97940  1.0000
  C   C237      1.0  0.26204  0.48124  0.59852  1.0000
  H   H188      1.0  0.27150  0.36170  0.52192  1.0000
  H   H189      1.0  0.07758  0.03894  0.49246  1.0000
  H   H190      1.0  0.30285  0.44415  0.49113  1.0000
  C   C238      1.0  0.30816  0.46898  0.49813  1.0000
  C   C239      1.0  0.02181  0.98896  0.90391  1.0000
  H   H191      1.0  0.01324  0.48679  0.93842  1.0000
  H   H192      1.0  0.24714  0.47664  0.64773  1.0000
  H   H193      1.0  0.98736  0.32714  0.55526  1.0000
  Fe  Fe17      1.0  0.12677  0.62198  0.18382  1.0000
  S   S32       1.0  0.13933  0.59460  0.23080  1.0000
  S   S33       1.0  0.11313  0.67545  0.19126  1.0000
  Fe  Fe18      1.0  0.13339  0.55837  0.13503  1.0000
  S   S34       1.0  0.14704  0.52769  0.17922  1.0000
  S   S35       1.0  0.12383  0.53934  0.08017  1.0000
  Fe  Fe19      1.0  0.12300  0.54854  0.21318  1.0000
  S   S36       1.0  0.10680  0.51621  0.25354  1.0000
  Fe  Fe20      1.0  0.16212  0.57637  0.19346  1.0000
  S   S37       1.0  0.19365  0.58633  0.20209  1.0000
  S   S38       1.0  0.10901  0.57728  0.16888  1.0000
  S   S39       1.0  0.14989  0.60589  0.14673  1.0000
  Fe  Fe21      1.0  0.11234  0.93377  0.20346  1.0000
  S   S40       1.0  0.11113  0.91129  0.14822  1.0000
  S   S41       1.0  0.09048  0.94835  0.24654  1.0000
  Fe  Fe22      1.0  0.15593  0.93487  0.20276  1.0000
  S   S42       1.0  0.15777  0.91392  0.14789  1.0000
  S   S43       1.0  0.17888  0.94917  0.24198  1.0000
  Fe  Fe23      1.0  0.13326  0.94945  0.13365  1.0000
  H   H194      1.0  0.06641  0.55805  0.28976  1.0000
  Fe  Fe24      1.0  0.13579  0.87667  0.16521  1.0000
  S   S44       1.0  0.14475  0.82186  0.14876  1.0000
  C   C240      1.0  0.25110  0.49741  0.48259  1.0000
  S   S45       1.0  0.13535  0.89603  0.22096  1.0000
  H   H195      1.0  0.22051  0.73393  0.37292  1.0000
  Fe  Fe25      1.0  0.28947  0.92739  0.29133  1.0000
  S   S46       1.0  0.26843  0.92722  0.24527  1.0000
  S   S47       1.0  0.28402  0.91420  0.34807  1.0000
  H   H196      1.0  0.20088  0.93785  0.98879  1.0000
  Fe  Fe26      1.0  0.28714  0.56173  0.32608  1.0000
  S   S48       1.0  0.25623  0.54725  0.31892  1.0000
  S   S49       1.0  0.29333  0.60231  0.36644  1.0000
  H   H197      1.0  0.14594  0.68235  0.07626  1.0000
  Fe  Fe27      1.0  0.30485  0.95470  0.36217  1.0000
  C   C241      1.0  0.20361  0.94046  0.24256  1.0000
  C   C242      1.0  0.21377  0.93149  0.21216  1.0000
  C   C243      1.0  0.23356  0.92759  0.21356  1.0000
  C   C244      1.0  0.24342  0.93175  0.24540  1.0000
  C   C245      1.0  0.23320  0.93983  0.27592  1.0000
  C   C246      1.0  0.21347  0.94448  0.27439  1.0000
  H   H198      1.0  0.20644  0.92849  0.18747  1.0000
  C   C247      1.0  0.10254  0.65134  0.09081  1.0000
  H   H199      1.0  0.24053  0.94323  0.30058  1.0000
  C   C248      1.0  0.18528  0.63325  0.07324  1.0000
  H   H200      1.0  0.07399  0.56617  0.35386  1.0000
  H   H201      1.0  0.02677  0.54023  0.27400  1.0000
  H   H202      1.0  0.00760  0.60145  0.45222  1.0000
  H   H203      1.0  0.27135  0.94079  0.10339  1.0000
  H   H204      1.0  0.02090  0.51569  0.35576  1.0000
  C   C249      1.0  0.21069  0.57547  0.23527  1.0000
  C   C250      1.0  0.20641  0.55610  0.26517  1.0000
  C   C251      1.0  0.22048  0.54800  0.29044  1.0000
  C   C252      1.0  0.23900  0.55925  0.28644  1.0000
  C   C253      1.0  0.24318  0.57923  0.25690  1.0000
  C   C254      1.0  0.22916  0.58711  0.23149  1.0000
  H   H205      1.0  0.19233  0.54699  0.26864  1.0000
  C   C255      1.0  0.25257  0.67080  0.37772  1.0000
  H   H206      1.0  0.25729  0.58819  0.25338  1.0000
  H   H207      1.0  0.23268  0.60223  0.20864  1.0000
  C   C256      1.0  0.17247  0.61183  0.05655  1.0000
  C   C257      1.0  0.03584  0.65778  0.41053  1.0000
  H   H208      1.0  0.03232  0.49337  0.09558  1.0000
  C   C258      1.0  0.20340  0.65740  0.28595  1.0000
  H   H209      1.0  0.06193  0.49888  0.03696  1.0000
  H   H210      1.0  0.27926  0.65169  0.19679  1.0000
  H   H211      1.0  0.04875  0.64961  0.36012  1.0000
  C   C259      1.0  0.25188  0.79600  0.35617  1.0000
  H   H212      1.0  0.29151  0.87648  0.46767  1.0000
  H   H213      1.0  0.29233  0.64694  0.25706  1.0000
  C   C260      1.0  0.12307  0.71593  0.18199  1.0000
  C   C261      1.0  0.14034  0.71868  0.16471  1.0000
  C   C262      1.0  0.14692  0.75133  0.15534  1.0000
  C   C263      1.0  0.13650  0.78162  0.16365  1.0000
  C   C264      1.0  0.11955  0.77888  0.18192  1.0000
  C   C265      1.0  0.11283  0.74622  0.19079  1.0000
  H   H214      1.0  0.14836  0.69564  0.15770  1.0000
  H   H215      1.0  0.16007  0.75313  0.14127  1.0000
  H   H216      1.0  0.11135  0.80189  0.18839  1.0000
  H   H217      1.0  0.09946  0.74444  0.20411  1.0000
  C   C266      1.0  0.03470  0.54732  0.10553  1.0000
  H   H218      1.0  0.26763  0.97883  0.47305  1.0000
  C   C267      1.0  0.23713  0.77908  0.37233  1.0000
  C   C268      1.0  0.04910  0.60343  0.30150  1.0000
  H   H219      1.0  0.22705  0.69132  0.23870  1.0000
  C   C269      1.0  0.04469  0.63726  0.29072  1.0000
  C   C270      1.0  0.13158  0.51463  0.04269  1.0000
  H   H220      1.0  0.31957  0.80039  0.30128  1.0000
  C   C271      1.0  0.11784  0.67280  0.09325  1.0000
  H   H221      1.0  0.23120  0.58042  0.38151  1.0000
  H   H222      1.0  0.09041  0.65590  0.10762  1.0000
  H   H223      1.0  0.01324  0.56920  0.39759  1.0000
  C   C272      1.0  0.13394  0.66620  0.07294  1.0000
  C   C273      1.0  0.24924  0.92922  0.06679  1.0000
  H   H224      1.0  0.24651  0.67381  0.18786  1.0000
  H   H225      1.0  0.15197  0.88865  0.06548  1.0000
  C   C274      1.0  0.24832  0.67755  0.27761  1.0000
  H   H226      1.0  0.99302  0.93220  0.38661  1.0000
  H   H227      1.0  0.29910  0.75851  0.39813  1.0000
  P   P9        1.0  0.19836  0.98010  0.05273  1.0000
  H   H228      1.0  0.19586  0.96318  0.12782  1.0000
  H   H229      1.0  0.04122  0.59996  0.11671  1.0000
  C   C275      1.0  0.06565  0.54403  0.35957  1.0000
  P   P10       1.0  0.23414  0.69006  0.31523  1.0000
  H   H230      1.0  0.30729  0.48808  0.44435  1.0000
  C   C276      1.0  0.19045  0.92700  0.00599  1.0000
  C   C277      1.0  0.01308  0.57277  0.31291  1.0000
  C   C278      1.0  0.17152  0.68073  0.28466  1.0000
  Fe  Fe28      1.0  0.30925  0.87804  0.34318  1.0000
  C   C279      1.0  0.06589  0.56664  0.11876  1.0000
  C   C280      1.0  0.25514  0.74985  0.31360  1.0000
  C   C281      1.0  0.22181  0.96805  0.06766  1.0000
  C   C282      1.0  0.18641  0.71594  0.20478  1.0000
  C   C283      1.0  0.19509  0.69708  0.17771  1.0000
  C   C284      1.0  0.21049  0.71041  0.16008  1.0000
  C   C285      1.0  0.21736  0.74234  0.16989  1.0000
  C   C286      1.0  0.20928  0.76068  0.19826  1.0000
  C   C287      1.0  0.19349  0.74750  0.21523  1.0000
  P   P11       1.0  0.21783  0.80261  0.20955  1.0000
  C   C288      1.0  0.24239  0.80145  0.22218  1.0000
  C   C289      1.0  0.21348  0.82996  0.17172  1.0000
  C   C290      1.0  0.22638  0.85464  0.16138  1.0000
  C   C291      1.0  0.22229  0.87668  0.13308  1.0000
  C   C292      1.0  0.20543  0.87401  0.11463  1.0000
  C   C293      1.0  0.19263  0.84925  0.12446  1.0000
  C   C294      1.0  0.19660  0.82735  0.15289  1.0000
  C   C295      1.0  0.25013  0.83078  0.23734  1.0000
  C   C296      1.0  0.26906  0.83063  0.24711  1.0000
  C   C297      1.0  0.28039  0.80107  0.24240  1.0000
  C   C298      1.0  0.27273  0.77146  0.22830  1.0000
  C   C299      1.0  0.25379  0.77153  0.21840  1.0000
  C   C300      1.0  0.20513  0.81988  0.24709  1.0000
  C   C301      1.0  0.20941  0.80729  0.28094  1.0000
  C   C302      1.0  0.20010  0.82094  0.31048  1.0000
  C   C303      1.0  0.18643  0.84716  0.30640  1.0000
  C   C304      1.0  0.18202  0.85966  0.27281  1.0000
  C   C305      1.0  0.19132  0.84619  0.24322  1.0000
  H   H231      1.0  0.17389  0.70634  0.21713  1.0000
  H   H232      1.0  0.18960  0.67242  0.17008  1.0000
  H   H233      1.0  0.21693  0.69620  0.13849  1.0000
  H   H234      1.0  0.22892  0.75289  0.15525  1.0000
  H   H235      1.0  0.18626  0.76181  0.23586  1.0000
  H   H236      1.0  0.23945  0.85754  0.17536  1.0000
  H   H237      1.0  0.23206  0.89631  0.12603  1.0000
  H   H238      1.0  0.20217  0.89137  0.09305  1.0000
  H   H239      1.0  0.17934  0.84747  0.11070  1.0000
  H   H240      1.0  0.18620  0.80900  0.16071  1.0000
  H   H241      1.0  0.24158  0.85398  0.24146  1.0000
  H   H242      1.0  0.27493  0.85351  0.25852  1.0000
  H   H243      1.0  0.29503  0.80100  0.25031  1.0000
  H   H244      1.0  0.28145  0.74826  0.22560  1.0000
  H   H245      1.0  0.24821  0.74808  0.20832  1.0000
  H   H246      1.0  0.22015  0.78729  0.28449  1.0000
  H   H247      1.0  0.20367  0.81158  0.33656  1.0000
  H   H248      1.0  0.17934  0.85814  0.32921  1.0000
  H   H249      1.0  0.17156  0.88028  0.26966  1.0000
  H   H250      1.0  0.18777  0.85687  0.21765  1.0000
  C   C306      1.0  0.27065  0.65922  0.21919  1.0000
  C   C307      1.0  0.25225  0.67174  0.21420  1.0000
  C   C308      1.0  0.24118  0.68127  0.24323  1.0000
  H   H251      1.0  0.21700  0.53258  0.31312  1.0000
  C   C309      1.0  0.24832  0.97781  0.10650  1.0000
  C   C310      1.0  0.16755  0.88340  0.01691  1.0000
  H   H252      1.0  0.11733  0.69412  0.11157  1.0000
  C   C311      1.0  0.27070  0.53984  0.45559  1.0000
  C   C312      1.0  0.18450  0.65418  0.27699  1.0000
  C   C313      1.0  0.26688  0.66520  0.28237  1.0000
  C   C314      1.0  0.15222  0.59942  0.98865  1.0000
  H   H253      1.0  0.18243  0.53780  0.10197  1.0000
  C   C315      1.0  0.01354  0.55108  0.28345  1.0000
  C   C316      1.0  0.04673  0.57383  0.11391  1.0000
  H   H254      1.0  0.98884  0.93014  0.32177  1.0000
  C   C317      1.0  0.06216  0.97629  0.28860  1.0000
  H   H255      1.0  0.07522  0.58720  0.12513  1.0000
  C   C318      1.0  0.25764  0.94854  0.09315  1.0000
  C   C319      1.0  0.16292  0.89901  0.04900  1.0000
  C   C320      1.0  0.24017  0.73279  0.32935  1.0000
  C   C321      1.0  0.26166  0.48997  0.42228  1.0000
  H   H256      1.0  0.22538  0.55369  0.47261  1.0000
  H   H257      1.0  0.16739  0.94151  0.08331  1.0000
  C   C322      1.0  0.04640  0.54426  0.35142  1.0000
  C   C323      1.0  0.07041  0.63488  0.24874  1.0000
  C   C324      1.0  0.99690  0.54261  0.26641  1.0000
  S   S50       1.0  0.13311  0.97347  0.18796  1.0000
  P   P12       1.0  0.15586  0.62896  0.02464  1.0000
  C   C325      1.0  0.27799  0.65626  0.25321  1.0000
  C   C326      1.0  0.13460  0.63860  0.04910  1.0000
  C   C327      1.0  0.31067  0.49389  0.47143  1.0000
  H   H258      1.0  0.30395  0.69914  0.37464  1.0000
  C   C328      1.0  0.24865  0.61663  0.40788  1.0000
  H   H259      1.0  0.27292  0.66269  0.30850  1.0000
  C   C329      1.0  0.07433  0.51506  0.37509  1.0000
  H   H260      1.0  0.13127  0.93904  0.02882  1.0000
  H   H261      1.0  0.04123  0.50260  0.21185  1.0000
  C   C330      1.0  0.23142  0.74745  0.35922  1.0000
  C   C331      1.0  0.11910  0.61730  0.04662  1.0000
  H   H262      1.0  0.15687  0.67823  0.27742  1.0000
  C   C332      1.0  0.05549  0.65307  0.26480  1.0000
  C   C333      1.0  0.99571  0.58676  0.32452  1.0000
  H   H263      1.0  0.25674  0.82009  0.36670  1.0000
  H   H264      1.0  0.27857  0.53023  0.40168  1.0000
  S   S51       1.0  0.30808  0.58063  0.28669  1.0000
  H   H265      1.0  0.25213  0.59935  0.42935  1.0000
  H   H266      1.0  0.23045  0.79017  0.39550  1.0000
  H   H267      1.0  0.04238  0.68225  0.41456  1.0000
  C   C334      1.0  0.17188  0.92882  0.05939  1.0000
  C   C335      1.0  0.15316  0.69634  0.99891  1.0000
  C   C336      1.0  0.17133  0.57757  0.06761  1.0000
  H   H268      1.0  0.26659  0.65651  0.42606  1.0000
  C   C337      1.0  0.13268  0.96449  0.01797  1.0000
  P   P13       1.0  0.03487  0.58278  0.33444  1.0000
  C   C338      1.0  0.25669  0.64887  0.40608  1.0000
  H   H269      1.0  0.17754  0.56815  0.99774  1.0000
  S   S52       1.0  0.30588  0.82556  0.36980  1.0000
  C   C339      1.0  0.07426  0.60066  0.25804  1.0000
  C   C340      1.0  0.06986  0.50872  0.22915  1.0000
  H   H270      1.0  0.08559  0.58622  0.24511  1.0000
  H   H271      1.0  0.25955  0.69511  0.37635  1.0000
  C   C341      1.0  0.31597  0.77849  0.31721  1.0000
  C   C342      1.0  0.20955  0.68704  0.30309  1.0000
  C   C343      1.0  0.16477  0.66695  0.00407  1.0000
  H   H272      1.0  0.16754  0.73186  0.30544  1.0000
  H   H273      1.0  0.17998  0.63114  0.26374  1.0000
  H   H274      1.0  0.07889  0.64713  0.22881  1.0000
  C   C344      1.0  0.18354  0.56424  0.09337  1.0000
  S   S53       1.0  0.30836  0.97103  0.30508  1.0000
  C   C345      1.0  0.23667  0.60613  0.38115  1.0000
  C   C346      1.0  0.03064  0.60780  0.37385  1.0000
  H   H275      1.0  0.22337  0.61882  0.33245  1.0000
  C   C347      1.0  0.14864  0.49577  0.04207  1.0000
  C   C348      1.0  0.06349  0.58485  0.28389  1.0000
  H   H276      1.0  0.03290  0.65141  0.30230  1.0000
  C   C349      1.0  0.07305  0.53290  0.11565  1.0000
  C   C350      1.0  0.19667  0.58535  0.10901  1.0000
  H   H277      1.0  0.24135  0.92173  0.18975  1.0000
  C   C351      1.0  0.01619  0.61249  0.43181  1.0000
  C   C352      1.0  0.23996  0.66099  0.35126  1.0000
  S   S54       1.0  0.30820  0.52327  0.34944  1.0000
  C   C353      1.0  0.12011  0.51412  0.01243  1.0000
  H   H278      1.0  0.08929  0.51465  0.38032  1.0000
  H   H279      1.0  0.21325  0.63679  0.27899  1.0000
  C   C354      1.0  0.04182  0.51358  0.10224  1.0000
  C   C355      1.0  0.19744  0.61990  0.09917  1.0000
  H   H280      1.0  0.18567  0.66030  0.06677  1.0000
  C   C356      1.0  0.01943  0.59419  0.40067  1.0000
  H   H281      1.0  0.02172  0.65877  0.46074  1.0000
  C   C357      1.0  0.03923  0.63935  0.37939  1.0000
  H   H282      1.0  0.01984  0.55291  0.10179  1.0000
  C   C358      1.0  0.23232  0.62815  0.35300  1.0000
  H   H283      1.0  0.25650  0.90652  0.05643  1.0000
  H   H284      1.0  0.27178  0.61520  0.48518  1.0000
  C   C359      1.0  0.19648  0.71415  0.30950  1.0000
  H   H285      1.0  0.20720  0.63637  0.11231  1.0000
  H   H286      1.0  0.99487  0.60427  0.34654  1.0000
  H   H287      1.0  0.26288  0.73855  0.29179  1.0000
  C   C360      1.0  0.18600  0.94264  0.03843  1.0000
  C   C361      1.0  0.26089  0.78132  0.32697  1.0000
  H   H288      1.0  0.20584  0.57515  0.12957  1.0000
  H   H289      1.0  0.05229  0.67938  0.25696  1.0000
  H   H290      1.0  0.27278  0.79396  0.31543  1.0000
  C   C362      1.0  0.27917  0.92758  0.46643  1.0000
  H   H291      1.0  0.20579  0.95155  0.29803  1.0000
  H   H292      1.0  0.20073  0.73799  0.32104  1.0000
  C   C363      1.0  0.17755  0.71088  0.30048  1.0000
  C   C364      1.0  0.03584  0.51572  0.36055  1.0000
  H   H293      1.0  0.22512  0.92319  0.03410  1.0000
  C   C365      1.0  0.06102  0.50606  0.10776  1.0000
  H   H294      1.0  0.07384  0.52338  0.20622  1.0000
  Fe  Fe29      1.0  0.31531  0.61964  0.32836  1.0000
  H   H295      1.0  0.08796  0.52789  0.11943  1.0000
  C   C366      1.0  0.08315  0.50171  0.25563  1.0000
  C   C367      1.0  0.31731  0.52635  0.47988  1.0000
  S   S55       1.0  0.99826  0.49098  0.43383  1.0000
  C   C368      1.0  0.30904  0.78369  0.35135  1.0000
  C   C369      1.0  0.31455  0.71588  0.32460  1.0000
  C   C370      1.0  0.02421  0.64450  0.43660  1.0000
  Fe  Fe30      1.0  0.31551  0.56490  0.38760  1.0000
  H   H296      1.0  0.07154  0.96977  0.31013  1.0000
  C   C371      1.0  0.30454  0.75479  0.37175  1.0000
  C   C372      1.0  0.18330  0.66662  0.99139  1.0000
  C   C373      1.0  0.06786  0.96867  0.25379  1.0000
  H   H297      1.0  0.05935  0.97095  0.19947  1.0000
  C   C374      1.0  0.23137  0.93882  0.05416  1.0000
  H   H298      1.0  0.08052  0.95464  0.03125  1.0000
  H   H299      1.0  0.27884  0.92893  0.43785  1.0000
  H   H300      1.0  0.16079  0.56133  0.05664  1.0000
  C   C375      1.0  0.10317  0.62359  0.06748  1.0000
  H   H301      1.0  0.10685  0.52844  0.01248  1.0000
  H   H302      1.0  0.13862  0.69687  0.00732  1.0000
  S   S56       1.0  0.31394  0.88940  0.28588  1.0000
  H   H303      1.0  0.27838  0.56329  0.45633  1.0000
  C   C376      1.0  0.27103  0.52085  0.42436  1.0000
  H   H304      1.0  0.09160  0.60620  0.06624  1.0000
  C   C377      1.0  0.06282  0.94537  0.98626  1.0000
  C   C378      1.0  0.30724  0.72107  0.35849  1.0000
  S   S57       1.0  0.31910  0.67411  0.30676  1.0000
  H   H305      1.0  0.19908  0.59418  0.46005  1.0000
  H   H306      1.0  0.11954  0.59485  0.02981  1.0000
  C   C379      1.0  0.05534  0.97677  0.22635  1.0000
  C   C380      1.0  0.05136  0.49667  0.23232  1.0000
  H   H307      1.0  0.99739  0.52476  0.24448  1.0000
  H   H308      1.0  0.15760  0.49551  0.06506  1.0000
  H   H309      1.0  0.16027  0.86076  0.00857  1.0000
  C   C381      1.0  0.18756  0.98653  0.12315  1.0000
  C   C382      1.0  0.26050  0.52861  0.48486  1.0000
  C   C383      1.0  0.20907  0.60010  0.48056  1.0000
  C   C384      1.0  0.28643  0.89817  0.48329  1.0000
  H   H310      1.0  0.07275  0.63695  0.47676  1.0000
  C   C385      1.0  0.31868  0.74481  0.30396  1.0000
  H   H311      1.0  0.05657  0.92294  0.99781  1.0000
  C   C386      1.0  0.07631  0.96316  0.00511  1.0000
  H   H312      1.0  0.12983  0.97282  0.32196  1.0000
  C   C387      1.0  0.18121  0.89755  0.99527  1.0000
  C   C388      1.0  0.31827  0.97408  0.46617  1.0000
  H   H313      1.0  0.19228  0.64380  0.99423  1.0000
  C   C389      1.0  0.98783  0.74798  0.58517  1.0000
  H   H314      1.0  0.08780  0.56284  0.88786  1.0000
  H   H315      1.0  0.31827  0.62045  0.95940  1.0000
  H   H316      1.0  0.07999  0.89965  0.81621  1.0000
  S   S58       1.0  0.01804  0.50577  0.70989  1.0000
  C   C390      1.0  0.99050  0.62461  0.52552  1.0000
  S   S59       1.0  0.00039  0.91071  0.66114  1.0000
  C   C391      1.0  0.27401  0.95491  0.52314  1.0000
  H   H317      1.0  0.00846  0.52572  0.49778  1.0000
  C   C392      1.0  0.16218  0.54985  0.95357  1.0000
  H   H318      1.0  0.04084  0.70086  0.54830  1.0000
  C   C393      1.0  0.04339  0.67586  0.53652  1.0000
  H   H319      1.0  0.99628  0.79147  0.61596  1.0000
  H   H320      1.0  0.28635  0.55632  0.57840  1.0000
  C   C394      1.0  0.05787  0.67192  0.51173  1.0000
  C   C395      1.0  0.16517  0.57229  0.98164  1.0000
  C   C396      1.0  0.13385  0.58214  0.93795  1.0000
  H   H321      1.0  0.31958  0.91105  0.55444  1.0000
  C   C397      1.0  0.08445  0.92200  0.83061  1.0000
  C   C398      1.0  0.28275  0.86420  0.63026  1.0000
  C   C399      1.0  0.25934  0.86689  0.58391  1.0000
  C   C400      1.0  0.26779  0.95663  0.60835  1.0000
  H   H322      1.0  0.01113  0.63595  0.70693  1.0000
  C   C401      1.0  0.23914  0.53977  0.58661  1.0000
  C   C402      1.0  0.99992  0.76551  0.60736  1.0000
  C   C403      1.0  0.07810  0.54195  0.88868  1.0000
  H   H323      1.0  0.06630  0.69368  0.50486  1.0000
  C   C404      1.0  0.19031  0.69570  0.97482  1.0000
  C   C405      1.0  0.26417  0.50044  0.56771  1.0000
  H   H324      1.0  0.24667  0.92246  0.62826  1.0000
  C   C406      1.0  0.03806  0.50351  0.73866  1.0000
  H   H325      1.0  0.05344  0.58717  0.49245  1.0000
  C   C407      1.0  0.04241  0.52993  0.76207  1.0000
  C   C408      1.0  0.25284  0.52998  0.56159  1.0000
  H   H326      1.0  0.13331  0.94694  0.96392  1.0000
  C   C409      1.0  0.21982  0.63827  0.52612  1.0000
  C   C410      1.0  0.03833  0.90720  0.59926  1.0000
  H   H327      1.0  0.29425  0.87513  0.64462  1.0000
  H   H328      1.0  0.00274  0.66487  0.65124  1.0000
  H   H329      1.0  0.00970  0.79865  0.80880  1.0000
  H   H330      1.0  0.05666  0.93539  0.84837  1.0000
  C   C411      1.0  0.04698  0.52039  0.87860  1.0000
  H   H331      1.0  0.04637  0.56316  0.65107  1.0000
  H   H332      1.0  0.24478  0.62175  0.55388  1.0000
  C   C412      1.0  0.04917  0.95582  0.64877  1.0000
  H   H333      1.0  0.03344  0.70274  0.61994  1.0000
  C   C413      1.0  0.05768  0.95608  0.95227  1.0000
  C   C414      1.0  0.99249  0.63311  0.56129  1.0000
  C   C415      1.0  0.22407  0.57716  0.48780  1.0000
  C   C416      1.0  0.99448  0.51629  0.50169  1.0000
  C   C417      1.0  0.01343  0.98548  0.83197  1.0000
  C   C418      1.0  0.23723  0.58486  0.51402  1.0000
  C   C419      1.0  0.17880  0.72514  0.97047  1.0000
  H   H334      1.0  0.18422  0.74764  0.95756  1.0000
  C   C420      1.0  0.05069  0.61193  0.50483  1.0000
  C   C421      1.0  0.27611  0.83238  0.64098  1.0000
  C   C422      1.0  0.14649  0.55461  0.93187  1.0000
  H   H335      1.0  0.00299  0.75323  0.72081  1.0000
  C   C423      1.0  0.28070  0.61001  0.50775  1.0000
  H   H336      1.0  0.06211  0.54816  0.80065  1.0000
  S   S60       1.0  0.09159  0.49651  0.80905  1.0000
  C   C424      1.0  0.03725  0.58598  0.65089  1.0000
  C   C425      1.0  0.02081  0.71527  0.60961  1.0000
  C   C426      1.0  0.03246  0.64776  0.54576  1.0000
  C   C427      1.0  0.25129  0.94862  0.62661  1.0000
  C   C428      1.0  0.13368  0.96914  0.98102  1.0000
  C   C429      1.0  0.02967  0.59828  0.68255  1.0000
  H   H337      1.0  0.99196  0.53658  0.55485  1.0000
  C   C430      1.0  0.24854  0.49126  0.62350  1.0000
  H   H338      1.0  0.02542  0.76258  0.63758  1.0000
  H   H339      1.0  0.03292  0.58494  0.70698  1.0000
  H   H340      1.0  0.27494  0.49264  0.54896  1.0000
  C   C431      1.0  0.01639  0.74916  0.61956  1.0000
  H   H341      1.0  0.03328  0.55257  0.76369  1.0000
  H   H342      1.0  0.08285  0.98636  0.61535  1.0000
  C   C432      1.0  0.07681  0.97219  0.86659  1.0000
  H   H343      1.0  0.99171  0.74952  0.83134  1.0000
  C   C433      1.0  0.03267  0.60245  0.61908  1.0000
  C   C434      1.0  0.99912  0.98244  0.85689  1.0000
  C   C435      1.0  0.10345  0.92996  0.83150  1.0000
  C   C436      1.0  0.02043  0.63152  0.61868  1.0000
  S   S61       1.0  0.98868  0.81847  0.69492  1.0000
  H   H344      1.0  0.99369  0.84397  0.77301  1.0000
  C   C437      1.0  0.12566  0.49549  0.98193  1.0000
  P   P14       1.0  0.28239  0.92329  0.58806  1.0000
  C   C438      1.0  0.10918  0.95865  0.85028  1.0000
  H   H345      1.0  0.31955  0.64113  0.54728  1.0000
  H   H346      1.0  0.26940  0.97743  0.53773  1.0000
  C   C439      1.0  0.01272  0.64337  0.65073  1.0000
  H   H347      1.0  0.06356  0.94966  0.76764  1.0000
  H   H348      1.0  0.21813  0.66190  0.54103  1.0000
  C   C440      1.0  0.16022  0.72541  0.98242  1.0000
  H   H349      1.0  0.17181  0.52817  0.94898  1.0000
  C   C441      1.0  0.04361  0.96674  0.61492  1.0000
  C   C442      1.0  0.23701  0.52039  0.61743  1.0000
  C   C443      1.0  0.03800  0.94211  0.59032  1.0000
  H   H350      1.0  0.23024  0.56244  0.58273  1.0000
  C   C444      1.0  0.04946  0.92095  0.65762  1.0000
  H   H351      1.0  0.14408  0.53663  0.91061  1.0000
  C   C445      1.0  0.31899  0.50838  0.54213  1.0000
  H   H352      1.0  0.25599  0.79314  0.63158  1.0000
  C   C446      1.0  0.24065  0.97454  0.64357  1.0000
  H   H353      1.0  0.12174  0.58585  0.92097  1.0000
  H   H354      1.0  0.00124  0.63059  0.50670  1.0000
  H   H355      1.0  0.25254  0.88018  0.56204  1.0000
  C   C447      1.0  0.99078  0.74788  0.70502  1.0000
  S   S62       1.0  0.02724  0.95957  0.73492  1.0000
  C   C448      1.0  0.27712  0.58247  0.53054  1.0000
  H   H356      1.0  0.15123  0.74811  0.97874  1.0000
  C   C449      1.0  0.25274  0.83505  0.59469  1.0000
  C   C450      1.0  0.13678  0.60465  0.96603  1.0000
  H   H357      1.0  0.02788  0.59373  0.53597  1.0000
  H   H358      1.0  0.31282  0.59384  0.58895  1.0000
  C   C451      1.0  0.27454  0.88152  0.60137  1.0000
  H   H359      1.0  0.22658  0.52813  0.63692  1.0000
  C   C452      1.0  0.06153  0.63998  0.49594  1.0000
  C   C453      1.0  0.05877  0.52725  0.78323  1.0000
  H   H360      1.0  0.03361  0.88845  0.58041  1.0000
  P   P15       1.0  0.01359  0.65243  0.57766  1.0000
  H   H361      1.0  0.04392  0.86967  0.64006  1.0000
  C   C454      1.0  0.00865  0.69732  0.58755  1.0000
  H   H362      1.0  0.11377  0.91381  0.81791  1.0000
  C   C455      1.0  0.08453  0.50898  0.89825  1.0000
  C   C456      1.0  0.30630  0.92812  0.60305  1.0000
  H   H363      1.0  0.03860  0.59198  0.59513  1.0000
  S   S63       1.0  0.98750  0.56925  0.64763  1.0000
  C   C457      1.0  0.28131  0.92547  0.54039  1.0000
  C   C458      1.0  0.28869  0.57714  0.56017  1.0000
  C   C459      1.0  0.30755  0.62518  0.54297  1.0000
  H   H364      1.0  0.05324  0.91303  0.68415  1.0000
  H   H365      1.0  0.05309  0.97424  0.66864  1.0000
  P   P16       1.0  0.25702  0.55601  0.52301  1.0000
  C   C460      1.0  0.03622  0.61577  0.52957  1.0000
  C   C461      1.0  0.07119  0.94271  0.84852  1.0000
  C   C462      1.0  0.04418  0.89659  0.63281  1.0000
  C   C463      1.0  0.05931  0.54771  0.87915  1.0000
  C   C464      1.0  0.01744  0.62700  0.68249  1.0000
  C   C465      1.0  0.30377  0.59854  0.56640  1.0000
  H   H366      1.0  0.00389  0.49177  0.78115  1.0000
  H   H367      1.0  0.18449  0.88594  0.96999  1.0000
  H   H368      1.0  0.03251  0.52541  0.87107  1.0000
  H   H369      1.0  0.12691  0.62596  0.97031  1.0000
  C   C466      1.0  0.06232  0.97653  0.76049  1.0000
  H   H370      1.0  0.03319  0.94952  0.56436  1.0000
  Fe  Fe31      1.0  0.99893  0.94634  0.70795  1.0000
  H   H371      1.0  0.24106  0.82386  0.58101  1.0000
  H   H372      1.0  0.05440  0.57321  0.87136  1.0000
  H   H373      1.0  0.28254  0.81911  0.66323  1.0000
  H   H374      1.0  0.29811  0.94658  0.65490  1.0000
  H   H375      1.0  0.11676  0.49580  0.95892  1.0000
  Fe  Fe32      1.0  0.99047  0.53635  0.69675  1.0000
  C   C467      1.0  0.09591  0.97990  0.86744  1.0000
  C   C468      1.0  0.26114  0.81777  0.62318  1.0000
  H   H376      1.0  0.20464  0.69531  0.96514  1.0000
  C   C469      1.0  0.99215  0.71402  0.57525  1.0000
  C   C470      1.0  0.23490  0.61547  0.53333  1.0000
  H   H377      1.0  0.12395  0.96428  0.85201  1.0000
  H   H378      1.0  0.19530  0.64838  0.49402  1.0000
  C   C471      1.0  0.29601  0.63092  0.51367  1.0000
  H   H379      1.0  0.22806  0.96828  0.65802  1.0000
  C   C472      1.0  0.99482  0.79714  0.80331  1.0000
  H   H380      1.0  0.09921  0.50431  0.90463  1.0000
  C   C473      1.0  0.20695  0.63065  0.49967  1.0000
  H   H381      1.0  0.29307  0.87399  0.53276  1.0000
  H   H382      1.0  0.29908  0.65131  0.49526  1.0000
  C   C474      1.0  0.07092  0.49794  0.78195  1.0000
  C   C475      1.0  0.30968  0.93997  0.63739  1.0000
  H   H383      1.0  0.99353  0.69276  0.71275  1.0000
  C   C476      1.0  0.28739  0.89699  0.52012  1.0000
  H   H384      1.0  0.04772  0.94132  0.93754  1.0000
  H   H385      1.0  0.24284  0.48837  0.50449  1.0000
  H   H386      1.0  0.01023  0.98432  0.80402  1.0000
  C   C477      1.0  0.27285  0.95578  0.48635  1.0000
  C   C478      1.0  0.06575  0.98513  0.93721  1.0000
  H   H387      1.0  0.99210  0.98278  0.91210  1.0000
  H   H388      1.0  0.00540  0.48866  0.62701  1.0000
  H   H389      1.0  0.07271  0.48876  0.97616  1.0000
  C   C479      1.0  0.00328  0.98446  0.89284  1.0000
  Fe  Fe33      1.0  0.47339  0.38955  0.18973  1.0000
  S   S64       1.0  0.45632  0.42655  0.15488  1.0000
  S   S65       1.0  0.46451  0.33375  0.20239  1.0000
  Fe  Fe34      1.0  0.49913  0.44767  0.21631  1.0000
  C   C480      1.0  0.47658  0.00496  0.05312  1.0000
  Fe  Fe35      1.0  0.45654  0.46377  0.20062  1.0000
  C   C481      1.0  0.52139  0.08177  0.04653  1.0000
  Fe  Fe36      1.0  0.48428  0.44840  0.13957  1.0000
  H   H390      1.0  0.55544  0.42588  0.20989  1.0000
  S   S66       1.0  0.47191  0.42611  0.23602  1.0000
  S   S67       1.0  0.50139  0.40921  0.17173  1.0000
  Fe  Fe37      1.0  0.49249  0.04845  0.22235  1.0000
  S   S68       1.0  0.47104  0.09009  0.23767  1.0000
  S   S69       1.0  0.51085  0.01934  0.26369  1.0000
  Fe  Fe38      1.0  0.47791  0.04660  0.14519  1.0000
  S   S70       1.0  0.45580  0.08813  0.15571  1.0000
  S   S71       1.0  0.48704  0.02018  0.09286  1.0000
  Fe  Fe39      1.0  0.47797  0.11617  0.18611  1.0000
  S   S72       1.0  0.48542  0.17303  0.17461  1.0000
  Fe  Fe40      1.0  0.45002  0.05949  0.20682  1.0000
  S   S73       1.0  0.41967  0.05400  0.22829  1.0000
  S   S74       1.0  0.50060  0.07597  0.17263  1.0000
  S   S75       1.0  0.47092  0.01678  0.19446  1.0000
  C   C482      1.0  0.61121  0.47048  0.33168  1.0000
  C   C483      1.0  0.53544  0.01204  0.27229  1.0000
  H   H391      1.0  0.54550  0.04913  0.23532  1.0000
  C   C484      1.0  0.40853  0.47312  0.34997  1.0000
  H   H392      1.0  0.38631  0.05320  0.35216  1.0000
  H   H393      1.0  0.41204  0.06568  0.31114  1.0000
  H   H394      1.0  0.39444  0.14601  0.11431  1.0000
  H   H395      1.0  0.62352  0.46880  0.41826  1.0000
  C   C485      1.0  0.45781  0.01228  0.04428  1.0000
  H   H396      1.0  0.40508  0.12431  0.22345  1.0000
  H   H397      1.0  0.35783  0.99133  0.33834  1.0000
  H   H398      1.0  0.48928  0.12494  0.08790  1.0000
  H   H399      1.0  0.56118  0.41034  0.27213  1.0000
  C   C486      1.0  0.47149  0.28929  0.19594  1.0000
  C   C487      1.0  0.48632  0.27881  0.17371  1.0000
  C   C488      1.0  0.49035  0.24335  0.16775  1.0000
  C   C489      1.0  0.47987  0.21759  0.18420  1.0000
  C   C490      1.0  0.46532  0.22810  0.20704  1.0000
  C   C491      1.0  0.46113  0.26353  0.21264  1.0000
  H   H400      1.0  0.49447  0.29800  0.16053  1.0000
  H   H401      1.0  0.50168  0.23583  0.15012  1.0000
  H   H402      1.0  0.45721  0.20895  0.22031  1.0000
  H   H403      1.0  0.44964  0.27105  0.22991  1.0000
  C   C492      1.0  0.47513  0.12649  0.07737  1.0000
  C   C493      1.0  0.60162  0.44576  0.21541  1.0000
  C   C494      1.0  0.37665  0.21829  0.05509  1.0000
  P   P17       1.0  0.46403  0.44200  0.34448  1.0000
  C   C495      1.0  0.44407  0.15415  0.07648  1.0000
  C   C496      1.0  0.40409  0.02108  0.24221  1.0000
  C   C497      1.0  0.42349  0.44323  0.08253  1.0000
  C   C498      1.0  0.63859  0.13231  0.46418  1.0000
  H   H404      1.0  0.60465  0.01413  0.37645  1.0000
  C   C499      1.0  0.56935  0.42848  0.22104  1.0000
  C   C500      1.0  0.40312  0.14916  0.13739  1.0000
  H   H405      1.0  0.55194  0.00474  0.00674  1.0000
  H   H406      1.0  0.65290  0.42524  0.32942  1.0000
  C   C501      1.0  0.48545  0.47909  0.04360  1.0000
  H   H407      1.0  0.38502  0.11943  0.17056  1.0000
  C   C502      1.0  0.33695  0.45091  0.36140  1.0000
  C   C503      1.0  0.55813  0.02209  0.42940  1.0000
  C   C504      1.0  0.33702  0.03217  0.34140  1.0000
  C   C505      1.0  0.42586  0.15416  0.19714  1.0000
  C   C506      1.0  0.46267  0.15261  0.08873  1.0000
  H   H408      1.0  0.40883  0.08843  0.09483  1.0000
  C   C507      1.0  0.57420  0.99978  0.28945  1.0000
  C   C508      1.0  0.40906  0.13663  0.19902  1.0000
  C   C509      1.0  0.45056  0.10261  0.04181  1.0000
  H   H409      1.0  0.38159  0.05768  0.25375  1.0000
  H   H410      1.0  0.58128  0.44816  0.17329  1.0000
  H   H411      1.0  0.50058  0.42350  0.31211  1.0000
  C   C510      1.0  0.41575  0.04815  0.13176  1.0000
  H   H412      1.0  0.44921  0.37238  0.33686  1.0000
  C   C511      1.0  0.61708  0.17854  0.44680  1.0000
  H   H413      1.0  0.36328  0.22765  0.06554  1.0000
  C   C512      1.0  0.57603  0.03315  0.37652  1.0000
  C   C513      1.0  0.43796  0.12838  0.05364  1.0000
  C   C514      1.0  0.46111  0.26898  0.08550  1.0000
  H   H414      1.0  0.35889  0.01412  0.27297  1.0000
  P   P18       1.0  0.37425  0.45472  0.44333  1.0000
  C   C515      1.0  0.59180  0.01683  0.39160  1.0000
  C   C516      1.0  0.39795  0.47775  0.23023  1.0000
  C   C517      1.0  0.64190  0.40734  0.25915  1.0000
  H   H415      1.0  0.41740  0.06555  0.15371  1.0000
  C   C518      1.0  0.62816  0.14953  0.43807  1.0000
  C   C519      1.0  0.54945  0.03021  0.25507  1.0000
  H   H416      1.0  0.33069  0.08698  0.41026  1.0000
  C   C520      1.0  0.41071  0.06103  0.09864  1.0000
  C   C521      1.0  0.58389  0.44126  0.20055  1.0000
  C   C522      1.0  0.36976  0.00268  0.47249  1.0000
  C   C523      1.0  0.40893  0.38746  0.38848  1.0000
  C   C524      1.0  0.39360  0.40872  0.39821  1.0000
  H   H417      1.0  0.47877  0.08115  0.04529  1.0000
  C   C525      1.0  0.49190  0.40121  0.31157  1.0000
  H   H418      1.0  0.47948  0.38873  0.45993  1.0000
  S   S76       1.0  0.49515  0.46715  0.08554  1.0000
  C   C526      1.0  0.57395  0.00563  0.44477  1.0000
  H   H419      1.0  0.40438  0.04845  0.04476  1.0000
  H   H420      1.0  0.35866  0.05501  0.43155  1.0000
  C   C527      1.0  0.59081  0.00304  0.42555  1.0000
  C   C528      1.0  0.43123  0.16944  0.16550  1.0000
  C   C529      1.0  0.52501  0.11639  0.04065  1.0000
  H   H421      1.0  0.33630  0.45971  0.33427  1.0000
  C   C530      1.0  0.37289  0.00603  0.26487  1.0000
  C   C531      1.0  0.41170  0.43430  0.30053  1.0000
  C   C532      1.0  0.61009  0.47653  0.36792  1.0000
  C   C533      1.0  0.47375  0.40233  0.32610  1.0000
  C   C534      1.0  0.40051  0.45577  0.32185  1.0000
  H   H422      1.0  0.46129  0.32068  0.30543  1.0000
  H   H423      1.0  0.40253  0.45591  0.21448  1.0000
  H   H424      1.0  0.40897  0.37468  0.36310  1.0000
  C   C535      1.0  0.33839  0.42914  0.43164  1.0000
  H   H425      1.0  0.44586  0.08279  0.02411  1.0000
  H   H426      1.0  0.42028  0.24079  0.14567  1.0000
  C   C536      1.0  0.65327  0.40725  0.22889  1.0000
  C   C537      1.0  0.62617  0.45076  0.31750  1.0000
  C   C538      1.0  0.56861  0.02429  0.26380  1.0000
  H   H427      1.0  0.65082  0.43628  0.39353  1.0000
  C   C539      1.0  0.43858  0.22615  0.10217  1.0000
  H   H428      1.0  0.33842  0.42107  0.45892  1.0000
  H   H429      1.0  0.38202  0.41181  0.38000  1.0000
  C   C540      1.0  0.40037  0.00816  0.37502  1.0000
  C   C541      1.0  0.39537  0.46174  0.05124  1.0000
  H   H430      1.0  0.38571  0.45979  0.31589  1.0000
  C   C542      1.0  0.61649  0.19045  0.48158  1.0000
  C   C543      1.0  0.48762  0.34280  0.29185  1.0000
  H   H431      1.0  0.38278  0.45560  0.03683  1.0000
  H   H432      1.0  0.60875  0.19161  0.42665  1.0000
  C   C544      1.0  0.59028  0.42436  0.27127  1.0000
  C   C545      1.0  0.43163  0.24834  0.12862  1.0000
  H   H433      1.0  0.43606  0.36642  0.40364  1.0000
  C   C546      1.0  0.41877  0.01283  0.13672  1.0000
  H   H434      1.0  0.51235  0.37182  0.28150  1.0000
  H   H435      1.0  0.47273  0.27686  0.06926  1.0000
  H   H436      1.0  0.47279  0.38726  0.39631  1.0000
  C   C547      1.0  0.52942  0.06857  0.98555  1.0000
  C   C548      1.0  0.64060  0.43862  0.33992  1.0000
  H   H437      1.0  0.57674  0.04314  0.34987  1.0000
  C   C549      1.0  0.57261  0.41974  0.25626  1.0000
  H   H438      1.0  0.44454  0.18210  0.16418  1.0000
  C   C550      1.0  0.46914  0.10167  0.05368  1.0000
  C   C551      1.0  0.45047  0.00104  0.01173  1.0000
  C   C552      1.0  0.33685  0.06641  0.39445  1.0000
  H   H439      1.0  0.59245  0.41754  0.29864  1.0000
  H   H440      1.0  0.46060  0.31533  0.11676  1.0000
  C   C553      1.0  0.35211  0.01213  0.35438  1.0000
  H   H441      1.0  0.52344  0.13473  0.06203  1.0000
  C   C554      1.0  0.63951  0.44482  0.37622  1.0000
  C   C555      1.0  0.39123  0.20871  0.07810  1.0000
  H   H442      1.0  0.40431  0.40874  0.05822  1.0000
  C   C556      1.0  0.43093  0.43024  0.30723  1.0000
  C   C557      1.0  0.49872  0.37169  0.29425  1.0000
  C   C558      1.0  0.40889  0.42090  0.45363  1.0000
  H   H443      1.0  0.62850  0.14020  0.41115  1.0000
  C   C559      1.0  0.38582  0.03076  0.25364  1.0000
  H   H444      1.0  0.36412  0.47137  0.37026  1.0000
  H   H445      1.0  0.42344  0.12782  0.04536  1.0000
  H   H446      1.0  0.62656  0.07189  0.39147  1.0000
  H   H447      1.0  0.36813  0.22396  0.00087  1.0000
  P   P19       1.0  0.62763  0.44475  0.27042  1.0000
  C   C560      1.0  0.41978  0.16750  0.13555  1.0000
  C   C561      1.0  0.35370  0.44622  0.41711  1.0000
  C   C562      1.0  0.45421  0.29078  0.11206  1.0000
  H   H448      1.0  0.43597  0.00708  0.00515  1.0000
  H   H449      1.0  0.43597  0.39595  0.46160  1.0000
  C   C563      1.0  0.39887  0.03688  0.35257  1.0000
  H   H450      1.0  0.49257  0.32047  0.27703  1.0000
  C   C564      1.0  0.43144  0.99487  0.35095  1.0000
  H   H451      1.0  0.64692  0.10944  0.45769  1.0000
  H   H452      1.0  0.42501  0.18798  0.01735  1.0000
  C   C565      1.0  0.41347  0.04421  0.32930  1.0000
  C   C566      1.0  0.41143  0.19555  0.02819  1.0000
  S   S77       1.0  0.52208  0.45623  0.25853  1.0000
  C   C567      1.0  0.46856  0.47385  0.40962  1.0000
  C   C568      1.0  0.60481  0.43820  0.25116  1.0000
  C   C569      1.0  0.40819  0.03852  0.07053  1.0000
  H   H453      1.0  0.45882  0.45609  0.05126  1.0000
  H   H454      1.0  0.41450  0.01303  0.44298  1.0000
  H   H455      1.0  0.64958  0.32398  0.28451  1.0000
  C   C570      1.0  0.43944  0.28052  0.13348  1.0000
  C   C571      1.0  0.47245  0.41176  0.40977  1.0000
  C   C572      1.0  0.41067  0.00308  0.07558  1.0000
  C   C573      1.0  0.46991  0.34304  0.30774  1.0000
  H   H456      1.0  0.40562  0.42192  0.27786  1.0000
  H   H457      1.0  0.54686  0.04759  0.38309  1.0000
  H   H458      1.0  0.43949  0.41539  0.28882  1.0000
  C   C574      1.0  0.47624  0.41247  0.44594  1.0000
  C   C575      1.0  0.32251  0.42310  0.41113  1.0000
  C   C576      1.0  0.62415  0.46343  0.39024  1.0000
  P   P20       1.0  0.42762  0.18564  0.09454  1.0000
  C   C577      1.0  0.32180  0.43392  0.37602  1.0000
  C   C578      1.0  0.39774  0.13396  0.16914  1.0000
  C   C579      1.0  0.41603  0.98994  0.10876  1.0000
  C   C580      1.0  0.38476  0.00377  0.44842  1.0000
  C   C581      1.0  0.35990  0.01945  0.38738  1.0000
  C   C582      1.0  0.46307  0.37252  0.32521  1.0000
  H   H459      1.0  0.63100  0.37607  0.30123  1.0000
  H   H460      1.0  0.43497  0.15518  0.21997  1.0000
  H   H461      1.0  0.60072  0.48196  0.31447  1.0000
  C   C583      1.0  0.39354  0.42593  0.43075  1.0000
  C   C584      1.0  0.40744  0.43534  0.06337  1.0000
  C   C585      1.0  0.40856  0.19636  0.06481  1.0000
  C   C586      1.0  0.42763  0.46803  0.35765  1.0000
  H   H462      1.0  0.43446  0.29724  0.15457  1.0000
  H   H463      1.0  0.46745  0.17108  0.10781  1.0000
  H   H464      1.0  0.61273  0.45572  0.19919  1.0000
  H   H465      1.0  0.44903  0.02693  0.06243  1.0000
  C   C587      1.0  0.35250  0.04751  0.40683  1.0000
  C   C588      1.0  0.55918  0.03567  0.39533  1.0000
  C   C589      1.0  0.46012  0.48106  0.00026  1.0000
  C   C590      1.0  0.52336  0.05803  0.01906  1.0000
  H   H466      1.0  0.57921  0.03887  0.25052  1.0000
  H   H467      1.0  0.51678  0.07326  0.07233  1.0000
  C   C591      1.0  0.43897  0.44603  0.33667  1.0000
  H   H468      1.0  0.45858  0.22050  0.05935  1.0000
  H   H469      1.0  0.38904  0.21137  0.10624  1.0000
  C   C592      1.0  0.46857  0.44248  0.39132  1.0000
  C   C593      1.0  0.42417  0.39957  0.44385  1.0000
  C   C594      1.0  0.45320  0.23689  0.08028  1.0000
  H   H470      1.0  0.53272  0.15434  0.00237  1.0000
  H   H471      1.0  0.44073  0.02844  0.30951  1.0000
  H   H472      1.0  0.43280  0.42271  0.09198  1.0000
  C   C595      1.0  0.46724  0.47087  0.03355  1.0000
  C   C596      1.0  0.37940  0.47980  0.24373  1.0000
  H   H473      1.0  0.42291  0.00340  0.16258  1.0000
  C   C597      1.0  0.35274  0.45740  0.38190  1.0000
  C   C598      1.0  0.42422  0.38293  0.41124  1.0000
  H   H474      1.0  0.54487  0.02408  0.44326  1.0000
  H   H475      1.0  0.62452  0.06706  0.32637  1.0000
  H   H476      1.0  0.49987  0.47559  0.35710  1.0000
  C   C599      1.0  0.64034  0.37692  0.27870  1.0000
  C   C600      1.0  0.42968  0.02312  0.32830  1.0000
  C   C601      1.0  0.63911  0.06590  0.37624  1.0000
  C   C602      1.0  0.65075  0.34731  0.26916  1.0000
  H   H477      1.0  0.54395  0.46790  0.32084  1.0000
  H   H478      1.0  0.36995  0.45918  0.23842  1.0000
  P   P21       1.0  0.38070  0.99577  0.40204  1.0000
  H   H479      1.0  0.35575  0.99711  0.46346  1.0000
  S   S78       1.0  0.59864  0.99500  0.30055  1.0000
  C   C603      1.0  0.53032  0.12736  0.00709  1.0000
  C   C604      1.0  0.47508  0.47816  0.32395  1.0000
  H   H480      1.0  0.44002  0.48305  0.10469  1.0000
  C   C605      1.0  0.47613  0.44378  0.46395  1.0000
  C   C606      1.0  0.42759  0.47752  0.08950  1.0000
  C   C607      1.0  0.37940  0.21631  0.01866  1.0000
  H   H481      1.0  0.44600  0.47441  0.99303  1.0000
  C   C608      1.0  0.32909  0.05871  0.36174  1.0000
  H   H482      1.0  0.40909  0.43372  0.47897  1.0000
  H   H483      1.0  0.64879  0.01912  0.46621  1.0000
  C   C609      1.0  0.63795  0.06331  0.33958  1.0000
  H   H484      1.0  0.33137  0.02697  0.31559  1.0000
  C   C610      1.0  0.39682  0.20514  0.00523  1.0000
  H   H485      1.0  0.51977  0.03168  0.02411  1.0000
  C   C611      1.0  0.40270  0.01166  0.46084  1.0000
  H   H486      1.0  0.65283  0.05052  0.29175  1.0000
  C   C612      1.0  0.54103  0.98769  0.29813  1.0000
  H   H487      1.0  0.59946  0.04358  0.48110  1.0000
  H   H488      1.0  0.43354  0.48197  0.37936  1.0000
  C   C613      1.0  0.54921  0.48480  0.30073  1.0000
  C   C614      1.0  0.63793  0.48361  0.25449  1.0000
  C   C615      1.0  0.54070  0.48523  0.26716  1.0000
  H   H489      1.0  0.60312  0.98999  0.43666  1.0000
  S   S79       1.0  0.48372  0.48744  0.18358  1.0000
  C   C616      1.0  0.47228  0.47445  0.44580  1.0000
  H   H490      1.0  0.45304  0.48727  0.28530  1.0000
  Fe  Fe41      1.0  0.61840  0.43791  0.71428  1.0000
  S   S80       1.0  0.60965  0.41388  0.66288  1.0000
  S   S81       1.0  0.51713  0.99379  0.81814  1.0000
  Fe  Fe42      1.0  0.63087  0.44850  0.63775  1.0000
  H   H491      1.0  0.64219  0.12462  0.58319  1.0000
  Fe  Fe43      1.0  0.63386  0.37567  0.67104  1.0000
  S   S82       1.0  0.63859  0.32001  0.65241  1.0000
  C   C617      1.0  0.64667  0.28383  0.86940  1.0000
  S   S83       1.0  0.64127  0.39672  0.72424  1.0000
  Fe  Fe44      1.0  0.64154  0.05983  0.65110  1.0000
  C   C618      1.0  0.32726  0.18907  0.49853  1.0000
  H   H492      1.0  0.56579  0.12572  0.55459  1.0000
  Fe  Fe45      1.0  0.62654  0.11830  0.69938  1.0000
  S   S84       1.0  0.63032  0.08602  0.74820  1.0000
  S   S85       1.0  0.61460  0.17285  0.70847  1.0000
  Fe  Fe46      1.0  0.61809  0.04271  0.71743  1.0000
  H   H493      1.0  0.58644  0.02859  0.60856  1.0000
  S   S86       1.0  0.61237  0.07595  0.66951  1.0000
  H   H494      1.0  0.36743  0.01265  0.80390  1.0000
  Fe  Fe47      1.0  0.33313  0.43292  0.69590  1.0000
  H   H495      1.0  0.64542  0.26433  0.92248  1.0000
  P   P22       1.0  0.62556  0.18774  0.55327  1.0000
  C   C619      1.0  0.58890  0.03207  0.58059  1.0000
  H   H496      1.0  0.49242  0.06671  0.84375  1.0000
  H   H497      1.0  0.57654  0.47182  0.82175  1.0000
  H   H498      1.0  0.46208  0.04570  0.93890  1.0000
  C   C620      1.0  0.63783  0.99083  0.56216  1.0000
  H   H499      1.0  0.43009  0.48497  0.87220  1.0000
  H   H500      1.0  0.50623  0.47986  0.74436  1.0000
  S   S87       1.0  0.34318  0.06913  0.63867  1.0000
  S   S88       1.0  0.34802  0.03094  0.73955  1.0000
  C   C621      1.0  0.57707  0.13575  0.57029  1.0000
  S   S89       1.0  0.64878  0.05343  0.59159  1.0000
  C   C622      1.0  0.45232  0.46943  0.74096  1.0000
  H   H501      1.0  0.43721  0.46709  0.74043  1.0000
  H   H502      1.0  0.35126  0.28043  0.82655  1.0000
  C   C623      1.0  0.49672  0.45452  0.89399  1.0000
  C   C624      1.0  0.60637  0.16096  0.61088  1.0000
  C   C625      1.0  0.36502  0.47659  0.51160  1.0000
  C   C626      1.0  0.57674  0.13222  0.60692  1.0000
  C   C627      1.0  0.54685  0.02779  0.78771  1.0000
  C   C628      1.0  0.38341  0.00269  0.72020  1.0000
  H   H503      1.0  0.59591  0.04746  0.86194  1.0000
  C   C629      1.0  0.36931  0.41505  0.50362  1.0000
  H   H504      1.0  0.32843  0.08948  0.77554  1.0000
  H   H505      1.0  0.65315  0.25200  0.63880  1.0000
  H   H506      1.0  0.63639  0.24647  0.50972  1.0000
  H   H507      1.0  0.60224  0.24128  0.72648  1.0000
  C   C630      1.0  0.50937  0.05530  0.88948  1.0000
  H   H508      1.0  0.64450  0.19406  0.66014  1.0000
  H   H509      1.0  0.52227  0.05783  0.87482  1.0000
  H   H510      1.0  0.57002  0.05566  0.76535  1.0000
  S   S90       1.0  0.63871  0.47416  0.68901  1.0000
  C   C631      1.0  0.39050  0.01709  0.52037  1.0000
  H   H511      1.0  0.36087  0.00873  0.52652  1.0000
  C   C632      1.0  0.34531  0.22811  0.81267  1.0000
  S   S91       1.0  0.33542  0.16901  0.62774  1.0000
  C   C633      1.0  0.55156  0.04228  0.92164  1.0000
  C   C634      1.0  0.53228  0.99458  0.96477  1.0000
  C   C635      1.0  0.34289  0.26388  0.81032  1.0000
  H   H512      1.0  0.49605  0.46471  0.92056  1.0000
  C   C636      1.0  0.61102  0.24717  0.58601  1.0000
  H   H513      1.0  0.38989  0.43607  0.78056  1.0000
  H   H514      1.0  0.60738  0.21236  0.48803  1.0000
  H   H515      1.0  0.65127  0.30706  0.81897  1.0000
  C   C637      1.0  0.56446  0.03061  0.77056  1.0000
  H   H516      1.0  0.54563  0.03563  0.52054  1.0000
  C   C638      1.0  0.60424  0.06202  0.53325  1.0000
  H   H517      1.0  0.57143  0.99068  0.56539  1.0000
  C   C639      1.0  0.59193  0.15230  0.55394  1.0000
  C   C640      1.0  0.60673  0.16506  0.57415  1.0000
  C   C641      1.0  0.65219  0.14480  0.58633  1.0000
  C   C642      1.0  0.37753  0.47024  0.74166  1.0000
  C   C643      1.0  0.47528  0.04907  0.92527  1.0000
  C   C644      1.0  0.34239  0.13578  0.86113  1.0000
  C   C645      1.0  0.58059  0.01048  0.55605  1.0000
  C   C646      1.0  0.57486  0.00105  0.76046  1.0000
  C   C647      1.0  0.49123  0.47634  0.74302  1.0000
  H   H518      1.0  0.60743  0.07417  0.58822  1.0000
  C   C648      1.0  0.49236  0.06099  0.87172  1.0000
  C   C649      1.0  0.63289  0.27965  0.67096  1.0000
  C   C650      1.0  0.50991  0.46670  0.87012  1.0000
  C   C651      1.0  0.63732  0.21682  0.67035  1.0000
  C   C652      1.0  0.62269  0.21354  0.69467  1.0000
  C   C653      1.0  0.61357  0.24353  0.70768  1.0000
  C   C654      1.0  0.61873  0.27642  0.69615  1.0000
  Fe  Fe48      1.0  0.33177  0.05316  0.69131  1.0000
  H   H519      1.0  0.35736  0.43405  0.58846  1.0000
  H   H520      1.0  0.60573  0.23068  0.60647  1.0000
  H   H521      1.0  0.61136  0.29918  0.70596  1.0000
  C   C655      1.0  0.37261  0.00933  0.50824  1.0000
  C   C656      1.0  0.62590  0.29178  0.53612  1.0000
  H   H522      1.0  0.52010  0.46489  0.81691  1.0000
  C   C657      1.0  0.58222  0.06559  0.90954  1.0000
  H   H523      1.0  0.64212  0.43437  0.80235  1.0000
  C   C658      1.0  0.56910  0.48273  0.79935  1.0000
  H   H524      1.0  0.36472  0.38408  0.54989  1.0000
  C   C659      1.0  0.32897  0.27146  0.64810  1.0000
  C   C660      1.0  0.35264  0.14698  0.75412  1.0000
  C   C661      1.0  0.36247  0.11509  0.75443  1.0000
  C   C662      1.0  0.37371  0.10500  0.72582  1.0000
  C   C663      1.0  0.37533  0.12660  0.69669  1.0000
  C   C664      1.0  0.36585  0.15851  0.69630  1.0000
  C   C665      1.0  0.35444  0.16862  0.72467  1.0000
  H   H525      1.0  0.49196  0.03637  0.97069  1.0000
  C   C666      1.0  0.32396  0.18422  0.53446  1.0000
  C   C667      1.0  0.51989  0.00891  0.52658  1.0000
  H   H526      1.0  0.35090  0.46833  0.80451  1.0000
  S   S92       1.0  0.32317  0.00782  0.56788  1.0000
  H   H527      1.0  0.56578  0.07829  0.95523  1.0000
  C   C668      1.0  0.53918  0.99549  0.79499  1.0000
  Fe  Fe49      1.0  0.32449  0.11680  0.64388  1.0000
  C   C669      1.0  0.37224  0.12608  0.89074  1.0000
  C   C670      1.0  0.38161  0.13850  0.86121  1.0000
  C   C671      1.0  0.37142  0.14950  0.83157  1.0000
  C   C672      1.0  0.59616  0.04020  0.50864  1.0000
  H   H528      1.0  0.61376  0.08152  0.52466  1.0000
  C   C673      1.0  0.64847  0.47753  0.53559  1.0000
  H   H529      1.0  0.54411  0.41797  0.68207  1.0000
  C   C674      1.0  0.37684  0.00574  0.78248  1.0000
  H   H530      1.0  0.36142  0.09771  0.77662  1.0000
  H   H531      1.0  0.38096  0.08011  0.72605  1.0000
  H   H532      1.0  0.38376  0.11847  0.67425  1.0000
  H   H533      1.0  0.36705  0.17521  0.67358  1.0000
  H   H534      1.0  0.34711  0.19327  0.72309  1.0000
  C   C675      1.0  0.62822  0.25619  0.53180  1.0000
  C   C676      1.0  0.62724  0.17370  0.50787  1.0000
  C   C677      1.0  0.36098  0.43802  0.56103  1.0000
  C   C678      1.0  0.64760  0.17845  0.57551  1.0000
  H   H535      1.0  0.53913  0.05091  0.79552  1.0000
  C   C679      1.0  0.57690  0.47852  0.76536  1.0000
  H   H536      1.0  0.37925  0.00716  0.69313  1.0000
  H   H537      1.0  0.38018  0.11704  0.91346  1.0000
  H   H538      1.0  0.39682  0.13910  0.86102  1.0000
  H   H539      1.0  0.37893  0.15878  0.80877  1.0000
  H   H540      1.0  0.33629  0.29459  0.64158  1.0000
  S   S93       1.0  0.35960  0.44063  0.73035  1.0000
  H   H541      1.0  0.47925  0.44434  0.49191  1.0000
  P   P23       1.0  0.33875  0.16036  0.79203  1.0000
  H   H542      1.0  0.46217  0.06154  0.87557  1.0000
  H   H543      1.0  0.59172  0.15511  0.52560  1.0000
  C   C680      1.0  0.35173  0.14785  0.83115  1.0000
  H   H544      1.0  0.57062  0.00794  0.84645  1.0000
  C   C681      1.0  0.60877  0.28273  0.59022  1.0000
  C   C682      1.0  0.61626  0.30503  0.56541  1.0000
  H   H545      1.0  0.60190  0.29312  0.61358  1.0000
  H   H546      1.0  0.61501  0.33260  0.56951  1.0000
  C   C683      1.0  0.48393  0.43010  0.88323  1.0000
  H   H547      1.0  0.32838  0.30610  0.78392  1.0000
  H   H548      1.0  0.47331  0.42170  0.90152  1.0000
  C   C684      1.0  0.51044  0.45415  0.83561  1.0000
  C   C685      1.0  0.49813  0.42872  0.82492  1.0000
  C   C686      1.0  0.48449  0.41743  0.84870  1.0000
  P   P24       1.0  0.49796  0.41512  0.77948  1.0000
  C   C687      1.0  0.48329  0.44675  0.75709  1.0000
  C   C688      1.0  0.52136  0.41271  0.76105  1.0000
  C   C689      1.0  0.52398  0.41654  0.72457  1.0000
  C   C690      1.0  0.54205  0.41417  0.71008  1.0000
  C   C691      1.0  0.55755  0.40735  0.73178  1.0000
  C   C692      1.0  0.55501  0.40273  0.76796  1.0000
  C   C693      1.0  0.53698  0.40515  0.78258  1.0000
  C   C694      1.0  0.35264  0.12489  0.89077  1.0000
  C   C695      1.0  0.62070  0.23354  0.55665  1.0000
  C   C696      1.0  0.49225  0.04326  0.94307  1.0000
  C   C697      1.0  0.56940  0.02362  0.87001  1.0000
  C   C698      1.0  0.46369  0.44373  0.75652  1.0000
  C   C699      1.0  0.48938  0.37223  0.77501  1.0000
  C   C700      1.0  0.47927  0.36293  0.74491  1.0000
  C   C701      1.0  0.47317  0.32931  0.74104  1.0000
  C   C702      1.0  0.47743  0.30462  0.76683  1.0000
  C   C703      1.0  0.48792  0.31348  0.79642  1.0000
  C   C704      1.0  0.49400  0.34711  0.80040  1.0000
  C   C705      1.0  0.32999  0.27838  0.78643  1.0000
  C   C706      1.0  0.64475  0.02365  0.55643  1.0000
  H   H549      1.0  0.51248  0.03073  0.53843  1.0000
  C   C707      1.0  0.32180  0.22140  0.76725  1.0000
  H   H550      1.0  0.47408  0.39942  0.84046  1.0000
  H   H551      1.0  0.51211  0.42162  0.70733  1.0000
  C   C708      1.0  0.37097  0.01190  0.74746  1.0000
  H   H552      1.0  0.57162  0.40629  0.72072  1.0000
  H   H553      1.0  0.56716  0.39809  0.78470  1.0000
  H   H554      1.0  0.53534  0.40135  0.81065  1.0000
  H   H555      1.0  0.61752  0.17058  0.62713  1.0000
  H   H556      1.0  0.63298  0.27464  0.86218  1.0000
  H   H557      1.0  0.63198  0.30922  0.51729  1.0000
  H   H558      1.0  0.32724  0.13425  0.86158  1.0000
  H   H559      1.0  0.45715  0.42190  0.76859  1.0000
  H   H560      1.0  0.47625  0.38151  0.72425  1.0000
  H   H561      1.0  0.46528  0.32232  0.71785  1.0000
  H   H562      1.0  0.47281  0.27851  0.76368  1.0000
  H   H563      1.0  0.49151  0.29419  0.81611  1.0000
  H   H564      1.0  0.50245  0.35342  0.82309  1.0000
  C   C709      1.0  0.33580  0.23920  0.63589  1.0000
  H   H565      1.0  0.37226  0.39296  0.48695  1.0000
  H   H566      1.0  0.35562  0.21753  0.83090  1.0000
  H   H567      1.0  0.53590  0.11265  0.95343  1.0000
  H   H568      1.0  0.54250  0.00432  0.88388  1.0000
  C   C710      1.0  0.36112  0.47132  0.54729  1.0000
  C   C711      1.0  0.56633  0.06357  0.93112  1.0000
  H   H569      1.0  0.59091  0.14274  0.65564  1.0000
  C   C712      1.0  0.59130  0.14506  0.62716  1.0000
  C   C713      1.0  0.58418  0.01427  0.51983  1.0000
  C   C714      1.0  0.47533  0.05800  0.88962  1.0000
  C   C715      1.0  0.58369  0.04582  0.87886  1.0000
  C   C716      1.0  0.33476  0.20655  0.79116  1.0000
  S   S94       1.0  0.33330  0.39770  0.64819  1.0000
  C   C717      1.0  0.55345  0.02170  0.89134  1.0000
  C   C718      1.0  0.60069  0.05786  0.56917  1.0000
  H   H570      1.0  0.56521  0.11957  0.61972  1.0000
  C   C719      1.0  0.64222  0.24969  0.65834  1.0000
  H   H571      1.0  0.34838  0.23775  0.61987  1.0000
  C   C720      1.0  0.39072  0.46095  0.76803  1.0000
  C   C721      1.0  0.50943  0.04598  0.92527  1.0000
  S   S95       1.0  0.59870  0.45432  0.76042  1.0000
  C   C722      1.0  0.39475  0.99069  0.79021  1.0000
  C   C723      1.0  0.32652  0.20885  0.64429  1.0000
  H   H572      1.0  0.59347  0.08239  0.91663  1.0000
  H   H573      1.0  0.41489  0.47574  0.79870  1.0000
  C   C724      1.0  0.36508  0.40989  0.53921  1.0000
  S   S96       1.0  0.59751  0.00258  0.73932  1.0000
  C   C725      1.0  0.40554  0.01824  0.49669  1.0000
  H   H574      1.0  0.64607  0.13001  0.51863  1.0000
  C   C726      1.0  0.64584  0.01095  0.49274  1.0000
  H   H575      1.0  0.39264  0.02239  0.54810  1.0000
  C   C727      1.0  0.40491  0.48352  0.77854  1.0000
  S   S97       1.0  0.64699  0.02442  0.69778  1.0000
  H   H576      1.0  0.34537  0.11500  0.91357  1.0000
  H   H577      1.0  0.33399  0.16948  0.55034  1.0000
  C   C728      1.0  0.64879  0.03343  0.52144  1.0000
  H   H578      1.0  0.41938  0.02444  0.50612  1.0000
  C   C729      1.0  0.53231  0.10363  0.97953  1.0000
  P   P25       1.0  0.53104  0.03841  0.94930  1.0000
  C   C730      1.0  0.41620  0.48761  0.92261  1.0000
  C   C731      1.0  0.63814  0.14427  0.49891  1.0000
  H   H579      1.0  0.39909  0.20432  0.97699  1.0000
  H   H580      1.0  0.42598  0.46941  0.93494  1.0000
  S   S98       1.0  0.62120  0.47940  0.58896  1.0000
  C   C732      1.0  0.53870  0.01154  0.51656  1.0000
  H   H581      1.0  0.51936  0.48656  0.87804  1.0000
  C   C733      1.0  0.36928  0.44847  0.48954  1.0000
  H   H582      1.0  0.33982  0.17788  0.48649  1.0000
  C   C734      1.0  0.53590  0.92579  0.98670  1.0000
  H   H583      1.0  0.54154  0.50806  0.21559  1.0000
  H   H584      1.0  0.48737  0.91918  0.19129  1.0000
  H   H585      1.0  0.54603  0.93058  0.48381  1.0000
  S   S99       1.0  0.32973  0.91785  0.36107  1.0000
  Fe  Fe50      1.0  0.33260  0.93244  0.30348  1.0000
  S   S100      1.0  0.36196  0.93813  0.27739  1.0000
  C   C735      1.0  0.36810  0.89413  0.41629  1.0000
  C   C736      1.0  0.49653  0.49719  0.01945  1.0000
  S   S101      1.0  0.64378  0.53632  0.33397  1.0000
  H   H586      1.0  0.41821  0.96483  0.39091  1.0000
  H   H587      1.0  0.36459  0.62154  0.11879  1.0000
  C   C737      1.0  0.38885  0.59017  0.10403  1.0000
  C   C738      1.0  0.39625  0.96128  0.25352  1.0000
  S   S102      1.0  0.34965  0.50797  0.28210  1.0000
  S   S103      1.0  0.33832  0.58570  0.35234  1.0000
  H   H588      1.0  0.39064  0.60376  0.07950  1.0000
  Fe  Fe51      1.0  0.64284  0.55250  0.39150  1.0000
  H   H589      1.0  0.51537  0.52345  0.32723  1.0000
  C   C739      1.0  0.38994  0.56769  0.42586  1.0000
  Fe  Fe52      1.0  0.63192  0.62705  0.37228  1.0000
  S   S104      1.0  0.63164  0.61549  0.31447  1.0000
  H   H590      1.0  0.36243  0.87821  0.43692  1.0000
  Fe  Fe53      1.0  0.61634  0.56704  0.32849  1.0000
  S   S105      1.0  0.59204  0.55342  0.29033  1.0000
  S   S106      1.0  0.61481  0.58079  0.38653  1.0000
  C   C740      1.0  0.62875  0.75022  0.39991  1.0000
  H   H591      1.0  0.45079  0.90975  0.00453  1.0000
  Fe  Fe54      1.0  0.63373  0.88306  0.34776  1.0000
  S   S107      1.0  0.63700  0.92046  0.30305  1.0000
  C   C741      1.0  0.37924  0.90038  0.35651  1.0000
  Fe  Fe55      1.0  0.61752  0.95679  0.33234  1.0000
  C   C742      1.0  0.37733  0.95028  0.39515  1.0000
  S   S108      1.0  0.61232  0.91794  0.37530  1.0000
  C   C743      1.0  0.62950  0.72050  0.37874  1.0000
  H   H592      1.0  0.48651  0.95863  0.13996  1.0000
  C   C744      1.0  0.40410  0.54274  0.43195  1.0000
  C   C745      1.0  0.63146  0.78699  0.34828  1.0000
  S   S109      1.0  0.63254  0.82783  0.32746  1.0000
  S   S110      1.0  0.32002  0.55975  0.44779  1.0000
  C   C746      1.0  0.49297  0.53239  0.29003  1.0000
  C   C747      1.0  0.38743  0.95047  0.15998  1.0000
  H   H593      1.0  0.40040  0.93432  0.25311  1.0000
  H   H594      1.0  0.46596  0.57164  0.00017  1.0000
  C   C748      1.0  0.42385  0.60837  0.04602  1.0000
  C   C749      1.0  0.47777  0.56165  0.13974  1.0000
  C   C750      1.0  0.57194  0.52740  0.28274  1.0000
  H   H595      1.0  0.38020  0.54091  0.19132  1.0000
  C   C751      1.0  0.56329  0.52809  0.24928  1.0000
  H   H596      1.0  0.62890  0.80590  0.40134  1.0000
  C   C752      1.0  0.37299  0.50804  0.26424  1.0000
  C   C753      1.0  0.38546  0.53449  0.27064  1.0000
  H   H597      1.0  0.43131  0.56969  0.15837  1.0000
  C   C754      1.0  0.38066  0.49870  0.43573  1.0000
  H   H598      1.0  0.45824  0.89128  0.21079  1.0000
  H   H599      1.0  0.38988  0.51629  0.04891  1.0000
  H   H600      1.0  0.40860  0.98623  0.05337  1.0000
  C   C755      1.0  0.63236  0.75726  0.32717  1.0000
  H   H601      1.0  0.42375  0.62183  0.07102  1.0000
  H   H602      1.0  0.36397  0.95464  0.19588  1.0000
  C   C756      1.0  0.47680  0.55052  0.10484  1.0000
  H   H603      1.0  0.57592  0.93443  0.43302  1.0000
  C   C757      1.0  0.63140  0.72421  0.34225  1.0000
  C   C758      1.0  0.46126  0.56840  0.15875  1.0000
  H   H604      1.0  0.59864  0.49231  0.37855  1.0000
  H   H605      1.0  0.42741  0.65464  0.01571  1.0000
  H   H606      1.0  0.64545  0.58526  0.46862  1.0000
  C   C759      1.0  0.37249  0.87969  0.38350  1.0000
  H   H607      1.0  0.35930  0.59027  0.17484  1.0000
  C   C760      1.0  0.40107  0.56275  0.11372  1.0000
  H   H608      1.0  0.39162  0.89230  0.00937  1.0000
  C   C761      1.0  0.59056  0.89102  0.45593  1.0000
  C   C762      1.0  0.41048  0.50401  0.23698  1.0000
  C   C763      1.0  0.53851  0.67983  0.00782  1.0000
  H   H609      1.0  0.49404  0.58344  0.03610  1.0000
  H   H610      1.0  0.40666  0.52307  0.15296  1.0000
  C   C764      1.0  0.64403  0.50556  0.47788  1.0000
  H   H611      1.0  0.51070  0.50352  0.02670  1.0000
  C   C765      1.0  0.48770  0.98541  0.02931  1.0000
  C   C766      1.0  0.47541  0.52209  0.27837  1.0000
  C   C767      1.0  0.44268  0.55330  0.10763  1.0000
  H   H612      1.0  0.63367  0.75984  0.29889  1.0000
  H   H613      1.0  0.36665  0.93965  0.44756  1.0000
  C   C768      1.0  0.50153  0.51596  0.31884  1.0000
  H   H614      1.0  0.37017  0.85270  0.37867  1.0000
  C   C769      1.0  0.48949  0.50714  0.98597  1.0000
  H   H615      1.0  0.42312  0.97791  0.23360  1.0000
  H   H616      1.0  0.46883  0.53438  0.25568  1.0000
  H   H617      1.0  0.50016  0.55259  0.27629  1.0000
  H   H618      1.0  0.56414  0.96273  0.32649  1.0000
  Fe  Fe56      1.0  0.32991  0.54576  0.31289  1.0000
  H   H619      1.0  0.64054  0.64839  0.46408  1.0000
  C   C770      1.0  0.37029  0.90203  0.18191  1.0000
  C   C771      1.0  0.38199  0.87962  0.16251  1.0000
  C   C772      1.0  0.39644  0.89260  0.14180  1.0000
  C   C773      1.0  0.39930  0.92816  0.14039  1.0000
  C   C774      1.0  0.56451  0.50591  0.30860  1.0000
  P   P26       1.0  0.41903  0.94417  0.11584  1.0000
  C   C775      1.0  0.44053  0.93639  0.14040  1.0000
  C   C776      1.0  0.42033  0.92383  0.07294  1.0000
  C   C777      1.0  0.43730  0.92224  0.05395  1.0000
  C   C778      1.0  0.43776  0.90988  0.01938  1.0000
  C   C779      1.0  0.42133  0.89902  0.00336  1.0000
  C   C780      1.0  0.40440  0.90029  0.02202  1.0000
  C   C781      1.0  0.40385  0.91282  0.05658  1.0000
  H   H620      1.0  0.52467  0.68998  0.01488  1.0000
  C   C782      1.0  0.42605  0.62700  0.01477  1.0000
  C   C783      1.0  0.49269  0.48884  0.33568  1.0000
  C   C784      1.0  0.38162  0.93546  0.36224  1.0000
  C   C785      1.0  0.44108  0.91421  0.16971  1.0000
  H   H621      1.0  0.63192  0.70164  0.32562  1.0000
  C   C786      1.0  0.45935  0.54645  0.08878  1.0000
  S   S111      1.0  0.64171  0.98013  0.36137  1.0000
  C   C787      1.0  0.41573  0.50414  0.07681  1.0000
  C   C788      1.0  0.57137  0.67069  0.02263  1.0000
  H   H622      1.0  0.62519  0.56355  0.22452  1.0000
  C   C789      1.0  0.46176  0.98221  0.98754  1.0000
  H   H623      1.0  0.35936  0.89211  0.19871  1.0000
  H   H624      1.0  0.38005  0.85216  0.16405  1.0000
  H   H625      1.0  0.40565  0.87488  0.12748  1.0000
  H   H626      1.0  0.58999  0.87586  0.43201  1.0000
  H   H627      1.0  0.45016  0.93145  0.06504  1.0000
  C   C790      1.0  0.62643  0.51105  0.24238  1.0000
  C   C791      1.0  0.50596  0.61734  0.99761  1.0000
  H   H628      1.0  0.55430  0.94445  0.02695  1.0000
  H   H629      1.0  0.39046  0.91484  0.07006  1.0000
  C   C792      1.0  0.45793  0.90800  0.18794  1.0000
  C   C793      1.0  0.57446  0.65456  0.99016  1.0000
  H   H630      1.0  0.50214  0.97888  0.03599  1.0000
  H   H631      1.0  0.57060  0.50541  0.33468  1.0000
  H   H632      1.0  0.42860  0.90196  0.17899  1.0000
  H   H633      1.0  0.62724  0.74763  0.42814  1.0000
  C   C794      1.0  0.54776  0.50739  0.24157  1.0000
  S   S112      1.0  0.63553  0.94768  0.46357  1.0000
  C   C795      1.0  0.56021  0.98142  0.30650  1.0000
  S   S113      1.0  0.62792  0.67946  0.39908  1.0000
  C   C796      1.0  0.37116  0.55835  0.42522  1.0000
  H   H634      1.0  0.38211  0.88954  0.33067  1.0000
  H   H635      1.0  0.49131  0.56394  0.15240  1.0000
  H   H636      1.0  0.36008  0.57769  0.42114  1.0000
  C   C797      1.0  0.38263  0.55472  0.16697  1.0000
  C   C798      1.0  0.49220  0.59577  0.01067  1.0000
  H   H637      1.0  0.58290  0.67344  0.04096  1.0000
  H   H638      1.0  0.41865  0.55011  0.43270  1.0000
  C   C799      1.0  0.47388  0.94582  0.14802  1.0000
  C   C800      1.0  0.37796  0.97098  0.26493  1.0000
  C   C801      1.0  0.39761  0.54471  0.14509  1.0000
  H   H639      1.0  0.53040  0.97351  0.31177  1.0000
  C   C802      1.0  0.42370  0.55546  0.01247  1.0000
  C   C803      1.0  0.42210  0.57254  0.04505  1.0000
  H   H640      1.0  0.41338  0.55327  0.26202  1.0000
  C   C804      1.0  0.37291  0.93740  0.18034  1.0000
  C   C805      1.0  0.48033  0.97400  0.99692  1.0000
  H   H641      1.0  0.38940  0.97789  0.16028  1.0000
  S   S114      1.0  0.43390  0.50366  0.21955  1.0000
  C   C806      1.0  0.55341  0.68345  0.03139  1.0000
  H   H642      1.0  0.51838  0.62109  0.01332  1.0000
  C   C807      1.0  0.45697  0.95280  0.13037  1.0000
  H   H643      1.0  0.39345  0.59432  0.42181  1.0000
  C   C808      1.0  0.58271  0.92440  0.45657  1.0000
  Fe  Fe57      1.0  0.63757  0.93990  0.40299  1.0000
  C   C809      1.0  0.37388  0.60015  0.12609  1.0000
  H   H644      1.0  0.45887  0.53758  0.06178  1.0000
  H   H645      1.0  0.56875  0.54461  0.22901  1.0000
  H   H646      1.0  0.38086  0.55643  0.28624  1.0000
  C   C810      1.0  0.36654  0.52403  0.43008  1.0000
  H   H647      1.0  0.48961  0.54399  0.09057  1.0000
  H   H648      1.0  0.61131  0.50909  0.24173  1.0000
  C   C811      1.0  0.63428  0.54212  0.23257  1.0000
  C   C812      1.0  0.40397  0.53254  0.25693  1.0000
  C   C813      1.0  0.37083  0.58253  0.15762  1.0000
  H   H649      1.0  0.42384  0.52770  0.01101  1.0000
  C   C814      1.0  0.47435  0.92363  0.17696  1.0000
  C   C815      1.0  0.44377  0.56436  0.14281  1.0000
  H   H650      1.0  0.32435  0.74111  0.27774  1.0000
  H   H651      1.0  0.55104  0.69617  0.05648  1.0000
  C   C816      1.0  0.37046  0.92925  0.42213  1.0000
  H   H652      1.0  0.61713  0.53121  0.47050  1.0000
  H   H653      1.0  0.39994  0.49095  0.36532  1.0000
  H   H654      1.0  0.32323  0.95198  0.45117  1.0000
  H   H655      1.0  0.38651  0.95104  0.34060  1.0000
  P   P27       1.0  0.42038  0.54855  0.08576  1.0000
  H   H656      1.0  0.45676  0.97121  0.10899  1.0000
  H   H657      1.0  0.46199  0.57597  0.18619  1.0000
  C   C817      1.0  0.62972  0.78330  0.38481  1.0000
  H   H658      1.0  0.35188  0.51736  0.42966  1.0000
  H   H659      1.0  0.41067  0.48966  0.44221  1.0000
  C   C818      1.0  0.40920  0.98602  0.24225  1.0000
  C   C819      1.0  0.39944  0.49603  0.05807  1.0000
  C   C820      1.0  0.39949  0.50840  0.43727  1.0000
  H   H660      1.0  0.44396  0.97837  0.34983  1.0000
  H   H661      1.0  0.46587  0.49791  0.39583  1.0000
  H   H662      1.0  0.47243  0.49878  0.45967  1.0000
  H   H663      1.0  0.60573  0.85172  0.48512  1.0000
  C   C821      1.0  0.41686  0.98737  0.37423  1.0000
  C   C822      1.0  0.54405  0.98542  0.99316  1.0000
  C   C823      1.0  0.54558  0.95123  0.00446  1.0000
  H   H664      1.0  0.53704  0.89930  0.99546  1.0000
  C   C824      1.0  0.47634  0.58912  0.99044  1.0000
  C   C825      1.0  0.46647  0.49517  0.29529  1.0000
  Fe  Fe58      1.0  0.44995  0.55094  0.81068  1.0000
  S   S115      1.0  0.47123  0.51145  0.83048  1.0000
  S   S116      1.0  0.42441  0.54518  0.77344  1.0000
  Fe  Fe59      1.0  0.47031  0.61153  0.84803  1.0000
  S   S117      1.0  0.49282  0.57536  0.87082  1.0000
  S   S118      1.0  0.46320  0.66901  0.86093  1.0000
  Fe  Fe60      1.0  0.49363  0.54964  0.81707  1.0000
  S   S119      1.0  0.51945  0.53761  0.78102  1.0000
  Fe  Fe61      1.0  0.46944  0.53909  0.88312  1.0000
  H   H665      1.0  0.33201  0.95766  0.51431  1.0000
  S   S120      1.0  0.47225  0.58784  0.79395  1.0000
  S   S121      1.0  0.44697  0.57646  0.86362  1.0000
  Fe  Fe62      1.0  0.49309  0.95720  0.83319  1.0000
  S   S122      1.0  0.47814  0.91954  0.79872  1.0000
  C   C826      1.0  0.54955  0.96597  0.78483  1.0000
  Fe  Fe63      1.0  0.46391  0.94850  0.89351  1.0000
  S   S123      1.0  0.44727  0.91003  0.86212  1.0000
  C   C827      1.0  0.55959  0.65088  0.96652  1.0000
  Fe  Fe64      1.0  0.47554  0.88594  0.84732  1.0000
  S   S124      1.0  0.48536  0.82824  0.84407  1.0000
  Fe  Fe65      1.0  0.45073  0.94589  0.81558  1.0000
  C   C828      1.0  0.33130  0.57514  0.93629  1.0000
  S   S125      1.0  0.49198  0.92266  0.88125  1.0000
  H   H666      1.0  0.36508  0.63817  0.89145  1.0000
  C   C829      1.0  0.32313  0.97729  0.50214  1.0000
  H   H667      1.0  0.42174  0.89028  0.97624  1.0000
  H   H668      1.0  0.57264  0.49004  0.71045  1.0000
  H   H669      1.0  0.39892  0.98619  0.81727  1.0000
  H   H670      1.0  0.32722  0.55778  0.52214  1.0000
  C   C830      1.0  0.53609  0.60367  0.90608  1.0000
  H   H671      1.0  0.52864  0.64897  0.81585  1.0000
  C   C831      1.0  0.54108  0.58658  0.87486  1.0000
  H   H672      1.0  0.32216  0.51440  0.56925  1.0000
  H   H673      1.0  0.54413  0.94094  0.79057  1.0000
  C   C832      1.0  0.40634  0.51579  0.76251  1.0000
  H   H674      1.0  0.38917  0.58591  0.79801  1.0000
  C   C833      1.0  0.34179  0.63294  0.92648  1.0000
  C   C834      1.0  0.39157  0.53598  0.89079  1.0000
  C   C835      1.0  0.49454  0.71249  0.94236  1.0000
  C   C836      1.0  0.46954  0.71311  0.85496  1.0000
  C   C837      1.0  0.48677  0.72252  0.84053  1.0000
  C   C838      1.0  0.49120  0.75764  0.83715  1.0000
  C   C839      1.0  0.47851  0.78418  0.84787  1.0000
  C   C840      1.0  0.46117  0.77480  0.86186  1.0000
  C   C841      1.0  0.45680  0.73965  0.86548  1.0000
  H   H675      1.0  0.49666  0.70275  0.83179  1.0000
  H   H676      1.0  0.50465  0.76429  0.82626  1.0000
  H   H677      1.0  0.45121  0.79464  0.87034  1.0000
  H   H678      1.0  0.44341  0.73298  0.87665  1.0000
  C   C842      1.0  0.62592  0.51620  0.48837  1.0000
  C   C843      1.0  0.52005  0.76062  0.91844  1.0000
  P   P28       1.0  0.65200  0.58501  0.59829  1.0000
  C   C844      1.0  0.61921  0.50767  0.52226  1.0000
  C   C845      1.0  0.35245  0.56767  0.81116  1.0000
  C   C846      1.0  0.39310  0.52518  0.73631  1.0000
  H   H679      1.0  0.37883  0.54014  0.94267  1.0000
  H   H680      1.0  0.37038  0.49468  0.85009  1.0000
  C   C847      1.0  0.51062  0.97820  0.52129  1.0000
  H   H681      1.0  0.52008  0.67959  0.87058  1.0000
  H   H682      1.0  0.58199  0.53982  0.65134  1.0000
  C   C848      1.0  0.54170  0.51479  0.77613  1.0000
  H   H683      1.0  0.51452  0.97500  0.92349  1.0000
  C   C849      1.0  0.34151  0.55239  0.78522  1.0000
  H   H684      1.0  0.64753  0.67999  0.68465  1.0000
  H   H685      1.0  0.61538  0.57325  0.56455  1.0000
  C   C850      1.0  0.53853  0.60302  0.84239  1.0000
  C   C851      1.0  0.48852  0.74645  0.93578  1.0000
  H   H686      1.0  0.57502  0.94565  0.76041  1.0000
  H   H687      1.0  0.49644  0.79659  0.91791  1.0000
  C   C852      1.0  0.61033  0.55297  0.66416  1.0000
  C   C853      1.0  0.34092  0.51660  0.78300  1.0000
  H   H688      1.0  0.54078  0.71946  0.92076  1.0000
  C   C854      1.0  0.32807  0.94398  0.64930  1.0000
  P   P29       1.0  0.37623  0.56724  0.86932  1.0000
  C   C855      1.0  0.36320  0.54718  0.83456  1.0000
  C   C856      1.0  0.35838  0.58456  0.89875  1.0000
  C   C857      1.0  0.50125  0.77048  0.92382  1.0000
  H   H689      1.0  0.48609  0.63687  0.91807  1.0000
  H   H690      1.0  0.35259  0.59543  0.81288  1.0000
  H   H691      1.0  0.52980  0.77923  0.90864  1.0000
  C   C858      1.0  0.39152  0.59992  0.85316  1.0000
  C   C859      1.0  0.40116  0.62041  0.87720  1.0000
  C   C860      1.0  0.41383  0.64457  0.86510  1.0000
  C   C861      1.0  0.41733  0.64777  0.82904  1.0000
  C   C862      1.0  0.40818  0.62684  0.80505  1.0000
  C   C863      1.0  0.39535  0.60295  0.81701  1.0000
  C   C864      1.0  0.52485  0.93448  0.95743  1.0000
  C   C865      1.0  0.52310  0.96874  0.94634  1.0000
  H   H692      1.0  0.33352  0.56821  0.76675  1.0000
  H   H693      1.0  0.33057  0.95398  0.67550  1.0000
  C   C866      1.0  0.59234  0.93035  0.51741  1.0000
  S   S126      1.0  0.45184  0.96897  0.94654  1.0000
  H   H694      1.0  0.63454  0.63892  0.64231  1.0000
  H   H695      1.0  0.41157  0.62807  0.77723  1.0000
  H   H696      1.0  0.39394  0.55002  0.72371  1.0000
  H   H697      1.0  0.39915  0.61725  0.90529  1.0000
  H   H698      1.0  0.42154  0.66000  0.88359  1.0000
  H   H699      1.0  0.42765  0.66562  0.81984  1.0000
  H   H700      1.0  0.51751  0.91470  0.94344  1.0000
  P   P30       1.0  0.52186  0.65884  0.94558  1.0000
  H   H701      1.0  0.63045  0.94256  0.53869  1.0000
  H   H702      1.0  0.48896  0.95875  0.97916  1.0000
  C   C867      1.0  0.53102  0.63659  0.84111  1.0000
  C   C868      1.0  0.37881  0.50271  0.72600  1.0000
  C   C869      1.0  0.35612  0.62013  0.90443  1.0000
  H   H703      1.0  0.64564  0.65753  0.57628  1.0000
  C   C870      1.0  0.50377  0.63285  0.96432  1.0000
  C   C871      1.0  0.56719  0.96877  0.76783  1.0000
  H   H704      1.0  0.36880  0.51051  0.70591  1.0000
  H   H705      1.0  0.60521  0.51614  0.53001  1.0000
  C   C872      1.0  0.40714  0.98123  0.76294  1.0000
  H   H706      1.0  0.54652  0.56027  0.87564  1.0000
  H   H707      1.0  0.34012  0.66040  0.93077  1.0000
  C   C873      1.0  0.38956  0.52768  0.92663  1.0000
  H   H708      1.0  0.56244  0.63882  0.94135  1.0000
  C   C874      1.0  0.61413  0.56840  0.59251  1.0000
  C   C875      1.0  0.52616  0.72674  0.92514  1.0000
  C   C876      1.0  0.52014  0.95010  0.50586  1.0000
  C   C877      1.0  0.32174  0.53307  0.51533  1.0000
  C   C878      1.0  0.64957  0.63876  0.64685  1.0000
  P   P31       1.0  0.57269  0.98698  0.48833  1.0000
  C   C879      1.0  0.46034  0.49883  0.72702  1.0000
  C   C880      1.0  0.40623  0.52033  0.87130  1.0000
  C   C881      1.0  0.51343  0.70233  0.93694  1.0000
  H   H709      1.0  0.34667  0.53486  0.90914  1.0000
  C   C882      1.0  0.62953  0.57194  0.61515  1.0000
  C   C883      1.0  0.63917  0.97790  0.49855  1.0000
  C   C884      1.0  0.60019  0.89696  0.51666  1.0000
  C   C885      1.0  0.54141  0.66301  0.97545  1.0000
  C   C886      1.0  0.62747  0.56426  0.65114  1.0000
  H   H710      1.0  0.41063  0.98027  0.70651  1.0000
  S   S127      1.0  0.42987  0.96122  0.77069  1.0000
  H   H711      1.0  0.54201  0.58945  0.81816  1.0000
  H   H712      1.0  0.35767  0.49304  0.56417  1.0000
  C   C887      1.0  0.44017  0.79575  0.63001  1.0000
  C   C888      1.0  0.45473  0.79828  0.60550  1.0000
  C   C889      1.0  0.47287  0.80536  0.61690  1.0000
  C   C890      1.0  0.47644  0.81023  0.65278  1.0000
  C   C891      1.0  0.46177  0.80867  0.67743  1.0000
  C   C892      1.0  0.44370  0.80056  0.66590  1.0000
  P   P32       1.0  0.46647  0.81271  0.72389  1.0000
  C   C893      1.0  0.47020  0.76924  0.73974  1.0000
  C   C894      1.0  0.48645  0.83927  0.73105  1.0000
  C   C895      1.0  0.49959  0.83111  0.75753  1.0000
  C   C896      1.0  0.51432  0.85309  0.76448  1.0000
  C   C897      1.0  0.51600  0.88343  0.74514  1.0000
  C   C898      1.0  0.50284  0.89196  0.71902  1.0000
  C   C899      1.0  0.48803  0.87012  0.71216  1.0000
  C   C900      1.0  0.45549  0.75151  0.75557  1.0000
  C   C901      1.0  0.45828  0.71735  0.76633  1.0000
  C   C902      1.0  0.47558  0.70039  0.76073  1.0000
  C   C903      1.0  0.49016  0.71758  0.74431  1.0000
  C   C904      1.0  0.48745  0.75181  0.73362  1.0000
  C   C905      1.0  0.44742  0.83541  0.74602  1.0000
  C   C906      1.0  0.43635  0.86019  0.72800  1.0000
  C   C907      1.0  0.42233  0.87915  0.74587  1.0000
  C   C908      1.0  0.41950  0.87397  0.78189  1.0000
  C   C909      1.0  0.43064  0.84972  0.80009  1.0000
  C   C910      1.0  0.44469  0.83082  0.78231  1.0000
  H   H713      1.0  0.42616  0.78977  0.62124  1.0000
  H   H714      1.0  0.45200  0.79439  0.57771  1.0000
  H   H715      1.0  0.48423  0.80679  0.59796  1.0000
  H   H716      1.0  0.49066  0.81497  0.66123  1.0000
  H   H717      1.0  0.43237  0.79786  0.68469  1.0000
  H   H718      1.0  0.49811  0.80850  0.77379  1.0000
  H   H719      1.0  0.52404  0.84714  0.78574  1.0000
  H   H720      1.0  0.52716  0.90086  0.75110  1.0000
  H   H721      1.0  0.50381  0.91607  0.70491  1.0000
  H   H722      1.0  0.47756  0.87774  0.69277  1.0000
  H   H723      1.0  0.44186  0.76389  0.75958  1.0000
  H   H724      1.0  0.44710  0.70406  0.77948  1.0000
  H   H725      1.0  0.47773  0.67404  0.76960  1.0000
  H   H726      1.0  0.50357  0.70438  0.73998  1.0000
  H   H727      1.0  0.49880  0.76466  0.72056  1.0000
  H   H728      1.0  0.43887  0.86576  0.70049  1.0000
  H   H729      1.0  0.41422  0.89911  0.73225  1.0000
  H   H730      1.0  0.40915  0.88979  0.79588  1.0000
  H   H731      1.0  0.42886  0.84638  0.82822  1.0000
  H   H732      1.0  0.45372  0.81322  0.79704  1.0000
  H   H733      1.0  0.60896  0.54613  0.69173  1.0000
  H   H734      1.0  0.40833  0.52706  0.84387  1.0000
  C   C911      1.0  0.48784  0.62581  0.94414  1.0000
  C   C912      1.0  0.58378  0.94456  0.48720  1.0000
  C   C913      1.0  0.52619  0.65389  0.87229  1.0000
  H   H735      1.0  0.53765  0.59026  0.93100  1.0000
  H   H736      1.0  0.35745  0.94012  0.63607  1.0000
  H   H737      1.0  0.36439  0.50259  0.50139  1.0000
  C   C914      1.0  0.47979  0.50233  0.72818  1.0000
  H   H738      1.0  0.40022  0.49686  0.96994  1.0000
  C   C915      1.0  0.52888  0.63768  0.90507  1.0000
  C   C916      1.0  0.36242  0.51122  0.83230  1.0000
  S   S128      1.0  0.46121  0.51136  0.93452  1.0000
  H   H739      1.0  0.47387  0.75403  0.93917  1.0000
  C   C917      1.0  0.63043  0.48842  0.54621  1.0000
  H   H740      1.0  0.58535  0.55356  0.58782  1.0000
  C   C918      1.0  0.32944  0.61046  0.94252  1.0000
  H   H741      1.0  0.54213  0.52170  0.71974  1.0000
  H   H742      1.0  0.48603  0.52557  0.71843  1.0000
  C   C919      1.0  0.34561  0.56225  0.91428  1.0000
  C   C920      1.0  0.59698  0.55729  0.60566  1.0000
  C   C921      1.0  0.59510  0.54942  0.64141  1.0000
  C   C922      1.0  0.42694  0.60991  0.98240  1.0000
  H   H743      1.0  0.45140  0.51926  0.71617  1.0000
  C   C923      1.0  0.54960  0.51093  0.74218  1.0000
  H   H744      1.0  0.59334  0.94507  0.54142  1.0000
  H   H745      1.0  0.35178  0.91847  0.57561  1.0000
  C   C924      1.0  0.34004  0.92386  0.59308  1.0000
  H   H746      1.0  0.42899  0.62426  0.95825  1.0000
  C   C925      1.0  0.64868  0.60560  0.55587  1.0000
  C   C926      1.0  0.34324  0.93612  0.62709  1.0000
  C   C927      1.0  0.64292  0.65675  0.52008  1.0000
  H   H747      1.0  0.64062  0.68432  0.51790  1.0000
  C   C928      1.0  0.47117  0.49924  0.97616  1.0000
  H   H748      1.0  0.49821  0.52108  0.96788  1.0000
  C   C929      1.0  0.41851  0.49631  0.88719  1.0000
  H   H749      1.0  0.48434  0.69450  0.95140  1.0000
  C   C930      1.0  0.35122  0.49609  0.80672  1.0000
  H   H750      1.0  0.42762  0.56069  0.95635  1.0000
  C   C931      1.0  0.64580  0.64140  0.55312  1.0000
  H   H751      1.0  0.63923  0.56623  0.66903  1.0000
  C   C932      1.0  0.64561  0.60096  0.49222  1.0000
  H   H752      1.0  0.46233  0.59769  0.94080  1.0000
  H   H753      1.0  0.33270  0.50460  0.76259  1.0000
  H   H754      1.0  0.60720  0.88649  0.53979  1.0000
  C   C933      1.0  0.55174  0.50074  0.80474  1.0000
  C   C934      1.0  0.64843  0.58556  0.52517  1.0000
  C   C935      1.0  0.47424  0.60390  0.95708  1.0000
  C   C936      1.0  0.40174  0.50327  0.94233  1.0000
  C   C937      1.0  0.32165  0.91976  0.58110  1.0000
  H   H755      1.0  0.51293  0.92634  0.50156  1.0000
  H   H756      1.0  0.65034  0.55794  0.52674  1.0000
  C   C938      1.0  0.56699  0.49296  0.73678  1.0000
  H   H757      1.0  0.54617  0.50376  0.83109  1.0000
  H   H758      1.0  0.63468  0.98271  0.58874  1.0000
  C   C939      1.0  0.63530  0.96811  0.53354  1.0000
  C   C940      1.0  0.42597  0.57412  0.98129  1.0000
  C   C941      1.0  0.53897  0.95260  0.49587  1.0000
  S   S129      1.0  0.46578  0.98508  0.84754  1.0000
  C   C942      1.0  0.64286  0.63654  0.48966  1.0000
  C   C943      1.0  0.54842  0.98330  0.50137  1.0000
  H   H759      1.0  0.49603  0.97619  0.52904  1.0000
  H   H760      1.0  0.58843  0.64495  0.98326  1.0000
  C   C944      1.0  0.59939  0.87737  0.48588  1.0000
  H   H761      1.0  0.32151  0.55775  0.94820  1.0000
  C   C945      1.0  0.40126  0.98737  0.72791  1.0000
  C   C946      1.0  0.65626  0.05913  0.39330  1.0000
  Fe  Fe66      1.0  0.94904  0.05681  0.33519  1.0000
  S   S130      1.0  0.96899  0.08076  0.29696  1.0000
  S   S131      1.0  0.91798  0.04511  0.32275  1.0000
  H   H762      1.0  0.65401  0.42997  0.21247  1.0000
  H   H763      1.0  0.94108  0.14994  0.29273  1.0000
  C   C947      1.0  0.92019  0.98938  0.41868  1.0000
  S   S132      1.0  0.95469  0.09775  0.37604  1.0000
  C   C948      1.0  0.73439  0.03283  0.31876  1.0000
  S   S133      1.0  0.96229  0.43249  0.37769  1.0000
  H   H764      1.0  0.75257  0.02772  0.09282  1.0000
  S   S134      1.0  0.97103  0.01955  0.35675  1.0000
  H   H765      1.0  0.90756  0.47193  0.36245  1.0000
  Fe  Fe67      1.0  0.95951  0.45975  0.32529  1.0000
  H   H766      1.0  0.81444  0.46993  0.11109  1.0000
  S   S135      1.0  0.97537  0.41754  0.29564  1.0000
  H   H767      1.0  0.92048  0.16847  0.07771  1.0000
  C   C949      1.0  0.71868  0.02812  0.34011  1.0000
  C   C950      1.0  0.90475  0.01477  0.29817  1.0000
  H   H768      1.0  0.67632  0.02113  0.08984  1.0000
  C   C951      1.0  0.76074  0.02630  0.03855  1.0000
  C   C952      1.0  0.78753  0.41673  0.08117  1.0000
  H   H769      1.0  0.75706  0.42336  0.01193  1.0000
  C   C953      1.0  0.72566  0.07960  0.37281  1.0000
  C   C954      1.0  0.75966  0.48220  0.19705  1.0000
  C   C955      1.0  0.88516  0.02019  0.29471  1.0000
  C   C956      1.0  0.75353  0.01198  0.06936  1.0000
  H   H770      1.0  0.87859  0.04299  0.30613  1.0000
  C   C957      1.0  0.82766  0.48204  0.01663  1.0000
  C   C958      1.0  0.77974  0.37636  0.14249  1.0000
  H   H771      1.0  0.94310  0.06197  0.44061  1.0000
  C   C959      1.0  0.74133  0.08440  0.35120  1.0000
  C   C960      1.0  0.92022  0.15124  0.10016  1.0000
  C   C961      1.0  0.94523  0.03644  0.23058  1.0000
  H   H772      1.0  0.91091  0.15016  0.32528  1.0000
  C   C962      1.0  0.76183  0.37286  0.15736  1.0000
  C   C963      1.0  0.81061  0.02483  0.05129  1.0000
  C   C964      1.0  0.76652  0.00855  0.18474  1.0000
  H   H773      1.0  0.81243  0.04831  0.06595  1.0000
  C   C965      1.0  0.80397  0.40810  0.06228  1.0000
  C   C966      1.0  0.91593  0.42149  0.38019  1.0000
  C   C967      1.0  0.92221  0.40125  0.40851  1.0000
  C   C968      1.0  0.77009  0.41881  0.02610  1.0000
  H   H774      1.0  0.78116  0.01374  0.18972  1.0000
  H   H775      1.0  0.96617  0.27211  0.40388  1.0000
  C   C969      1.0  0.91180  0.45652  0.38505  1.0000
  H   H776      1.0  0.68302  0.03929  0.32108  1.0000
  S   S136      1.0  0.80942  0.99404  0.11713  1.0000
  C   C970      1.0  0.90189  0.01341  0.18971  1.0000
  H   H777      1.0  0.75667  0.48310  0.22507  1.0000
  C   C971      1.0  0.73386  0.01159  0.20249  1.0000
  H   H778      1.0  0.96301  0.35120  0.45347  1.0000
  C   C972      1.0  0.90169  0.00309  0.41925  1.0000
  H   H779      1.0  0.76575  0.05232  0.03870  1.0000
  H   H780      1.0  0.91490  0.41034  0.35410  1.0000
  H   H781      1.0  0.92604  0.37436  0.40432  1.0000
  C   C973      1.0  0.72892  0.99383  0.17196  1.0000
  C   C974      1.0  0.71412  0.05145  0.36728  1.0000
  H   H782      1.0  0.71051  0.01735  0.10116  1.0000
  C   C975      1.0  0.89866  0.10158  0.25475  1.0000
  C   C976      1.0  0.80347  0.40532  0.02558  1.0000
  H   H783      1.0  0.72798  0.99678  0.40499  1.0000
  C   C977      1.0  0.97094  0.26513  0.37773  1.0000
  H   H784      1.0  0.72293  0.09749  0.39406  1.0000
  H   H785      1.0  0.88392  0.11871  0.30143  1.0000
  H   H786      1.0  0.88690  0.08717  0.24552  1.0000
  H   H787      1.0  0.81119  0.05039  0.00043  1.0000
  C   C978      1.0  0.97034  0.36836  0.47090  1.0000
  H   H788      1.0  0.85320  0.05250  0.16256  1.0000
  H   H789      1.0  0.92681  0.15162  0.18866  1.0000
  C   C979      1.0  0.93155  0.04564  0.43410  1.0000
  C   C980      1.0  0.88167  0.06328  0.17778  1.0000
  H   H790      1.0  0.75029  0.10600  0.35569  1.0000
  C   C981      1.0  0.81124  0.42527  0.14419  1.0000
  C   C982      1.0  0.97439  0.01462  0.20511  1.0000
  C   C983      1.0  0.86683  0.04171  0.17010  1.0000
  H   H791      1.0  0.77416  0.43315  0.19973  1.0000
  H   H792      1.0  0.84147  0.46975  0.01555  1.0000
  C   C984      1.0  0.97590  0.29138  0.35401  1.0000
  C   C985      1.0  0.92378  0.14135  0.16291  1.0000
  P   P33       1.0  0.78779  0.41778  0.12872  1.0000
  H   H793      1.0  0.72319  0.01873  0.22175  1.0000
  C   C986      1.0  0.91548  0.09455  0.12440  1.0000
  C   C987      1.0  0.83768  0.41168  0.18271  1.0000
  S   S137      1.0  0.98274  0.05809  0.45589  1.0000
  H   H794      1.0  0.96821  0.21033  0.38679  1.0000
  C   C988      1.0  0.88977  0.47231  0.25055  1.0000
  H   H795      1.0  0.93603  0.03882  0.25322  1.0000
  Fe  Fe68      1.0  0.97614  0.11929  0.33908  1.0000
  C   C989      1.0  0.91942  0.10665  0.15842  1.0000
  C   C990      1.0  0.78660  0.41099  0.00746  1.0000
  H   H796      1.0  0.69855  0.99647  0.01262  1.0000
  C   C991      1.0  0.70283  0.99396  0.09766  1.0000
  Fe  Fe69      1.0  0.97794  0.06146  0.39551  1.0000
  H   H797      1.0  0.76244  0.28602  0.16904  1.0000
  H   H798      1.0  0.81725  0.40369  0.07563  1.0000
  C   C992      1.0  0.67111  0.04731  0.33699  1.0000
  H   H799      1.0  0.96104  0.47158  0.45933  1.0000
  H   H800      1.0  0.94940  0.06159  0.14489  1.0000
  H   H801      1.0  0.75755  0.42682  0.07703  1.0000
  C   C993      1.0  0.67251  0.05024  0.37382  1.0000
  C   C994      1.0  0.98204  0.28149  0.32028  1.0000
  C   C995      1.0  0.91571  0.10130  0.23613  1.0000
  H   H802      1.0  0.91273  0.10726  0.06933  1.0000
  H   H803      1.0  0.80466  0.34893  0.12363  1.0000
  C   C996      1.0  0.77382  0.45318  0.14645  1.0000
  H   H804      1.0  0.66812  0.99133  0.42178  1.0000
  H   H805      1.0  0.92755  0.19023  0.13756  1.0000
  C   C997      1.0  0.81953  0.40502  0.17097  1.0000
  H   H806      1.0  0.77305  0.48286  0.09803  1.0000
  H   H807      1.0  0.69808  0.02923  0.47320  1.0000
  C   C998      1.0  0.68800  0.12695  0.46025  1.0000
  C   C999      1.0  0.76207  0.00678  0.00773  1.0000
  C   C1000     1.0  0.97209  0.22987  0.36809  1.0000
  C   C1001     1.0  0.75267  0.01882  0.20894  1.0000
  H   H808      1.0  0.91066  0.08647  0.43838  1.0000
  H   H809      1.0  0.66642  0.46790  0.26847  1.0000
  H   H810      1.0  0.74191  0.33785  0.17882  1.0000
  C   C1002     1.0  0.92419  0.16349  0.13386  1.0000
  C   C1003     1.0  0.79105  0.34683  0.13617  1.0000
  C   C1004     1.0  0.69759  0.99836  0.41069  1.0000
  C   C1005     1.0  0.93098  0.11883  0.25013  1.0000
  C   C1006     1.0  0.80744  0.99608  0.99442  1.0000
  H   H811      1.0  0.75250  0.39502  0.16108  1.0000
  H   H812      1.0  0.92203  0.46210  0.47257  1.0000
  H   H813      1.0  0.92983  0.40062  0.46336  1.0000
  C   C1007     1.0  0.92003  0.45106  0.44678  1.0000
  C   C1008     1.0  0.83913  0.45967  0.14229  1.0000
  H   H814      1.0  0.75803  0.06437  0.30795  1.0000
  C   C1009     1.0  0.76159  0.99098  0.15419  1.0000
  C   C1010     1.0  0.91338  0.47144  0.41858  1.0000
  C   C1011     1.0  0.91322  0.05936  0.43326  1.0000
  P   P34       1.0  0.91861  0.07744  0.19550  1.0000
  C   C1012     1.0  0.81521  0.47785  0.98812  1.0000
  H   H815      1.0  0.88486  0.44984  0.23703  1.0000
  C   C1013     1.0  0.96212  0.01742  0.23374  1.0000
  C   C1014     1.0  0.76884  0.48169  0.12540  1.0000
  H   H816      1.0  0.68492  0.15421  0.45692  1.0000
  C   C1015     1.0  0.77048  0.42117  0.06289  1.0000
  H   H817      1.0  0.97923  0.02825  0.15097  1.0000
  H   H818      1.0  0.94942  0.00102  0.42694  1.0000
  C   C1016     1.0  0.80898  0.99358  0.06979  1.0000
  C   C1017     1.0  0.89930  0.04927  0.18778  1.0000
  H   H819      1.0  0.96594  0.00555  0.25871  1.0000
  C   C1018     1.0  0.86954  0.00606  0.17201  1.0000
  C   C1019     1.0  0.89828  0.03807  0.42588  1.0000
  C   C1020     1.0  0.92914  0.13683  0.28187  1.0000
  C   C1021     1.0  0.91212  0.13707  0.30016  1.0000
  C   C1022     1.0  0.92441  0.41610  0.44173  1.0000
  H   H820      1.0  0.84404  0.39634  0.20360  1.0000
  H   H821      1.0  0.84648  0.48156  0.13210  1.0000
  H   H822      1.0  0.94444  0.11826  0.23676  1.0000
  H   H823      1.0  0.91481  0.44592  0.27078  1.0000
  C   C1023     1.0  0.75568  0.34038  0.16712  1.0000
  H   H824      1.0  0.75659  0.03173  0.23300  1.0000
  H   H825      1.0  0.91211  0.06788  0.12024  1.0000
  C   C1024     1.0  0.89689  0.11950  0.28660  1.0000
  C   C1025     1.0  0.97819  0.21999  0.33432  1.0000
  H   H826      1.0  0.81197  0.38454  0.18330  1.0000
  C   C1026     1.0  0.95273  0.04945  0.16982  1.0000
  C   C1027     1.0  0.90682  0.46999  0.26970  1.0000
  C   C1028     1.0  0.94050  0.05292  0.19876  1.0000
  C   C1029     1.0  0.80997  0.02609  0.01399  1.0000
  H   H827      1.0  0.86144  0.44439  0.17776  1.0000
  C   C1030     1.0  0.91586  0.11677  0.09544  1.0000
  H   H828      1.0  0.85891  0.00095  0.27474  1.0000
  H   H829      1.0  0.79372  0.29174  0.14112  1.0000
  C   C1031     1.0  0.84752  0.43880  0.16816  1.0000
  C   C1032     1.0  0.68350  0.99619  0.09109  1.0000
  C   C1033     1.0  0.96966  0.03046  0.17311  1.0000
  H   H830      1.0  0.87941  0.09087  0.17587  1.0000
  S   S138      1.0  0.97398  0.33573  0.36805  1.0000
  C   C1034     1.0  0.87392  0.99632  0.27690  1.0000
  C   C1035     1.0  0.78486  0.31439  0.14591  1.0000
  C   C1036     1.0  0.76722  0.31118  0.16155  1.0000
  C   C1037     1.0  0.76950  0.45395  0.18257  1.0000
  C   C1038     1.0  0.82102  0.45303  0.13045  1.0000
  H   H831      1.0  0.88406  0.04868  0.42532  1.0000
  Fe  Fe70      1.0  0.97964  0.39135  0.34880  1.0000
  H   H832      1.0  0.81629  0.39975  0.01093  1.0000
  C   C1039     1.0  0.69554  0.05650  0.46897  1.0000
  H   H833      1.0  0.91521  0.00177  0.19760  1.0000
  H   H834      1.0  0.87392  0.48281  0.39988  1.0000
  H   H835      1.0  0.67050  0.32474  0.23217  1.0000
  C   C1040     1.0  0.93508  0.01096  0.42635  1.0000
  C   C1041     1.0  0.88709  0.99198  0.18151  1.0000
  C   C1042     1.0  0.97831  0.99167  0.48246  1.0000
  C   C1043     1.0  0.98312  0.24624  0.31060  1.0000
  C   C1044     1.0  0.96781  0.48588  0.47992  1.0000
  S   S139      1.0  0.97982  0.17568  0.32009  1.0000
  H   H836      1.0  0.68845  0.11670  0.40459  1.0000
  C   C1045     1.0  0.69014  0.10570  0.43069  1.0000
  C   C1046     1.0  0.69407  0.07031  0.43478  1.0000
  C   C1047     1.0  0.66368  0.37763  0.21941  1.0000
  C   C1048     1.0  0.98471  0.38811  0.45738  1.0000
  C   C1049     1.0  0.74572  0.06099  0.32426  1.0000
  H   H837      1.0  0.67254  0.37782  0.19618  1.0000
  C   C1050     1.0  0.66249  0.34771  0.23962  1.0000
  P   P35       1.0  0.69469  0.04258  0.39645  1.0000
  H   H838      1.0  0.73792  0.01419  0.29835  1.0000
  H   H839      1.0  0.71025  0.00579  0.33589  1.0000
  C   C1051     1.0  0.65393  0.05393  0.32002  1.0000
  H   H840      1.0  0.98591  0.30101  0.30156  1.0000
  H   H841      1.0  0.65674  0.06027  0.42173  1.0000
  H   H842      1.0  0.85802  0.98929  0.16633  1.0000
  Fe  Fe71      1.0  0.81217  0.43496  0.89623  1.0000
  C   C1052     1.0  0.85540  0.23714  0.80238  1.0000
  P   P36       1.0  0.85757  0.17139  0.77201  1.0000
  Fe  Fe72      1.0  0.80685  0.37221  0.84683  1.0000
  S   S140      1.0  0.80061  0.40742  0.80080  1.0000
  S   S141      1.0  0.80504  0.31597  0.82811  1.0000
  Fe  Fe73      1.0  0.82510  0.43887  0.81857  1.0000
  H   H843      1.0  0.74053  0.21417  0.88709  1.0000
  Fe  Fe74      1.0  0.78235  0.43827  0.83764  1.0000
  S   S142      1.0  0.75207  0.45814  0.82696  1.0000
  S   S143      1.0  0.83229  0.40198  0.86267  1.0000
  S   S144      1.0  0.78734  0.40199  0.88344  1.0000
  Fe  Fe75      1.0  0.83538  0.05553  0.84032  1.0000
  S   S145      1.0  0.83325  0.07307  0.89735  1.0000
  S   S146      1.0  0.86241  0.04984  0.80580  1.0000
  Fe  Fe76      1.0  0.79181  0.05946  0.83157  1.0000
  S   S147      1.0  0.78685  0.07585  0.88783  1.0000
  S   S148      1.0  0.77083  0.05128  0.78630  1.0000
  Fe  Fe77      1.0  0.81084  0.11171  0.87897  1.0000
  S   S149      1.0  0.80810  0.16679  0.90075  1.0000
  Fe  Fe78      1.0  0.80938  0.03647  0.90308  1.0000
  H   H844      1.0  0.67628  0.28721  0.93955  1.0000
  S   S150      1.0  0.81462  0.09721  0.82236  1.0000
  S   S151      1.0  0.81265  0.01702  0.84683  1.0000
  H   H845      1.0  0.98046  0.46393  0.59074  1.0000
  C   C1053     1.0  0.85017  0.27207  0.80275  1.0000
  S   S152      1.0  0.69293  0.43181  0.70340  1.0000
  H   H846      1.0  0.68748  0.12928  0.51708  1.0000
  S   S153      1.0  0.68231  0.08012  0.76596  1.0000
  H   H847      1.0  0.98265  0.26770  0.57517  1.0000
  C   C1054     1.0  0.92935  0.45301  0.62475  1.0000
  H   H848      1.0  0.86273  0.22643  0.82499  1.0000
  C   C1055     1.0  0.83857  0.14620  0.75557  1.0000
  C   C1056     1.0  0.81997  0.15932  0.75564  1.0000
  H   H849      1.0  0.74694  0.27764  0.85988  1.0000
  S   S154      1.0  0.80610  0.47305  0.85237  1.0000
  C   C1057     1.0  0.74624  0.06000  0.78102  1.0000
  C   C1058     1.0  0.73699  0.04640  0.75157  1.0000
  C   C1059     1.0  0.71757  0.05284  0.74595  1.0000
  C   C1060     1.0  0.70713  0.07320  0.76970  1.0000
  C   C1061     1.0  0.71646  0.08720  0.79886  1.0000
  C   C1062     1.0  0.73582  0.08052  0.80462  1.0000
  H   H850      1.0  0.74487  0.03047  0.73310  1.0000
  H   H851      1.0  0.71064  0.04165  0.72355  1.0000
  H   H852      1.0  0.70856  0.10297  0.81740  1.0000
  H   H853      1.0  0.74271  0.09131  0.82722  1.0000
  C   C1063     1.0  0.97968  0.02669  0.48984  1.0000
  S   S155      1.0  0.65513  0.10492  0.67822  1.0000
  C   C1064     1.0  0.88070  0.02059  0.79019  1.0000
  H   H854      1.0  0.80003  0.48734  0.76467  1.0000
  H   H855      1.0  0.67423  0.29631  0.68185  1.0000
  H   H856      1.0  0.68262  0.35641  0.69426  1.0000
  H   H857      1.0  0.76387  0.42865  0.69204  1.0000
  S   S156      1.0  0.65419  0.40897  0.64242  1.0000
  C   C1065     1.0  0.73551  0.44785  0.79358  1.0000
  C   C1066     1.0  0.74064  0.42939  0.76327  1.0000
  C   C1067     1.0  0.72726  0.42378  0.73654  1.0000
  C   C1068     1.0  0.70850  0.43598  0.73994  1.0000
  C   C1069     1.0  0.70317  0.45308  0.77095  1.0000
  H   H858      1.0  0.71250  0.47361  0.82066  1.0000
  H   H859      1.0  0.75502  0.42028  0.76013  1.0000
  H   H860      1.0  0.73154  0.41049  0.71272  1.0000
  C   C1070     1.0  0.67737  0.30397  0.70860  1.0000
  H   H861      1.0  0.92464  0.18286  0.74284  1.0000
  C   C1071     1.0  0.68018  0.29031  0.77071  1.0000
  H   H862      1.0  0.77700  0.13523  0.84394  1.0000
  C   C1072     1.0  0.85112  0.21667  0.77315  1.0000
  H   H863      1.0  0.82960  0.39422  0.72204  1.0000
  C   C1073     1.0  0.74521  0.19883  0.86478  1.0000
  C   C1074     1.0  0.80574  0.27481  0.84900  1.0000
  C   C1075     1.0  0.80456  0.24505  0.82802  1.0000
  C   C1076     1.0  0.80513  0.21187  0.84327  1.0000
  C   C1077     1.0  0.80700  0.20796  0.87980  1.0000
  C   C1078     1.0  0.80796  0.23771  0.90075  1.0000
  C   C1079     1.0  0.80737  0.27089  0.88553  1.0000
  H   H864      1.0  0.80340  0.24770  0.79974  1.0000
  H   H865      1.0  0.80423  0.18931  0.82684  1.0000
  H   H866      1.0  0.80937  0.23508  0.92902  1.0000
  H   H867      1.0  0.80829  0.29341  0.90207  1.0000
  C   C1080     1.0  0.68559  0.34817  0.75018  1.0000
  H   H868      1.0  0.80499  0.35032  0.71941  1.0000
  H   H869      1.0  0.95582  0.42930  0.63892  1.0000
  H   H870      1.0  0.85286  0.28757  0.82584  1.0000
  C   C1081     1.0  0.80176  0.48401  0.58810  1.0000
  H   H871      1.0  0.94550  0.36346  0.63006  1.0000
  H   H872      1.0  0.68694  0.45582  0.87420  1.0000
  C   C1082     1.0  0.72127  0.30376  0.84277  1.0000
  C   C1083     1.0  0.77826  0.42149  0.69837  1.0000
  H   H873      1.0  0.71891  0.38560  0.81081  1.0000
  C   C1084     1.0  0.84214  0.11189  0.74556  1.0000
  C   C1085     1.0  0.86348  0.15410  0.81494  1.0000
  C   C1086     1.0  0.85262  0.16326  0.84453  1.0000
  C   C1087     1.0  0.85712  0.14970  0.87770  1.0000
  C   C1088     1.0  0.87209  0.12594  0.88139  1.0000
  C   C1089     1.0  0.88257  0.11575  0.85187  1.0000
  C   C1090     1.0  0.87826  0.12966  0.81875  1.0000
  C   C1091     1.0  0.84110  0.28703  0.77368  1.0000
  C   C1092     1.0  0.83735  0.26714  0.74403  1.0000
  C   C1093     1.0  0.84246  0.23213  0.74363  1.0000
  P   P37       1.0  0.97003  0.39336  0.57589  1.0000
  H   H874      1.0  0.85622  0.10057  0.74732  1.0000
  H   H875      1.0  0.84059  0.18069  0.84203  1.0000
  H   H876      1.0  0.84865  0.15691  0.90042  1.0000
  H   H877      1.0  0.87514  0.11456  0.90689  1.0000
  H   H878      1.0  0.89353  0.09596  0.85431  1.0000
  H   H879      1.0  0.88601  0.12011  0.79607  1.0000
  H   H880      1.0  0.83682  0.31402  0.77446  1.0000
  H   H881      1.0  0.83040  0.27888  0.72149  1.0000
  H   H882      1.0  0.83957  0.21704  0.72041  1.0000
  C   C1094     1.0  0.68512  0.18729  0.71152  1.0000
  C   C1095     1.0  0.67402  0.17484  0.73879  1.0000
  C   C1096     1.0  0.68177  0.16963  0.77225  1.0000
  C   C1097     1.0  0.70057  0.17711  0.77866  1.0000
  C   C1098     1.0  0.71175  0.19014  0.75153  1.0000
  C   C1099     1.0  0.70392  0.19479  0.71779  1.0000
  P   P38       1.0  0.73636  0.19832  0.75845  1.0000
  C   C1100     1.0  0.74407  0.18580  0.80213  1.0000
  C   C1101     1.0  0.74909  0.17325  0.72581  1.0000
  C   C1102     1.0  0.76259  0.18812  0.70403  1.0000
  C   C1103     1.0  0.77248  0.16794  0.67930  1.0000
  C   C1104     1.0  0.76901  0.13288  0.67629  1.0000
  C   C1105     1.0  0.75551  0.11803  0.69774  1.0000
  C   C1106     1.0  0.74546  0.13817  0.72218  1.0000
  C   C1107     1.0  0.75809  0.16007  0.80711  1.0000
  C   C1108     1.0  0.73759  0.20495  0.83130  1.0000
  C   C1109     1.0  0.74142  0.24352  0.75503  1.0000
  C   C1110     1.0  0.72829  0.26750  0.74105  1.0000
  C   C1111     1.0  0.73235  0.30246  0.73987  1.0000
  C   C1112     1.0  0.74948  0.31375  0.75270  1.0000
  C   C1113     1.0  0.76266  0.29007  0.76649  1.0000
  C   C1114     1.0  0.75866  0.25514  0.76775  1.0000
  H   H883      1.0  0.67911  0.19075  0.68547  1.0000
  H   H884      1.0  0.89015  0.14532  0.65924  1.0000
  H   H885      1.0  0.67333  0.15847  0.79286  1.0000
  H   H886      1.0  0.70637  0.17160  0.80444  1.0000
  H   H887      1.0  0.71243  0.20385  0.69622  1.0000
  H   H888      1.0  0.76559  0.21513  0.70609  1.0000
  H   H889      1.0  0.78300  0.17938  0.66271  1.0000
  H   H890      1.0  0.77686  0.11713  0.65751  1.0000
  H   H891      1.0  0.75289  0.09078  0.69574  1.0000
  H   H892      1.0  0.73506  0.12622  0.73870  1.0000
  H   H893      1.0  0.76352  0.14477  0.78543  1.0000
  H   H894      1.0  0.72703  0.22524  0.82784  1.0000
  H   H895      1.0  0.71486  0.25956  0.73137  1.0000
  H   H896      1.0  0.72215  0.32095  0.72933  1.0000
  H   H897      1.0  0.75241  0.34094  0.75258  1.0000
  H   H898      1.0  0.77584  0.29892  0.77699  1.0000
  H   H899      1.0  0.76895  0.23727  0.77911  1.0000
  P   P39       1.0  0.71698  0.99796  0.88676  1.0000
  C   C1115     1.0  0.90918  0.16367  0.69859  1.0000
  H   H900      1.0  0.68817  0.21644  0.59997  1.0000
  C   C1116     1.0  0.68165  0.30890  0.88836  1.0000
  C   C1117     1.0  0.65719  0.30192  0.84482  1.0000
  C   C1118     1.0  0.74058  0.30126  0.84969  1.0000
  H   H901      1.0  0.76677  0.32766  0.84934  1.0000
  H   H902      1.0  0.69996  0.39696  0.86661  1.0000
  H   H903      1.0  0.65805  0.47483  0.84208  1.0000
  C   C1119     1.0  0.67506  0.31356  0.85376  1.0000
  C   C1120     1.0  0.67631  0.28025  0.73615  1.0000
  H   H904      1.0  0.93751  0.41431  0.53167  1.0000
  S   S157      1.0  0.80497  0.99631  0.94728  1.0000
  C   C1121     1.0  0.89528  0.17826  0.75513  1.0000
  H   H905      1.0  0.90894  0.44953  0.54391  1.0000
  H   H906      1.0  0.71813  0.14373  0.90072  1.0000
  H   H907      1.0  0.69624  0.15635  0.61807  1.0000
  C   C1122     1.0  0.76575  0.15426  0.84053  1.0000
  Fe  Fe79      1.0  0.66081  0.43149  0.69555  1.0000
  C   C1123     1.0  0.80902  0.10481  0.73406  1.0000
  C   C1124     1.0  0.71728  0.04420  0.89114  1.0000
  H   H908      1.0  0.89689  0.18763  0.78181  1.0000
  C   C1125     1.0  0.70086  0.09993  0.89212  1.0000
  C   C1126     1.0  0.86764  0.47452  0.76890  1.0000
  C   C1127     1.0  0.73445  0.09628  0.90172  1.0000
  C   C1128     1.0  0.78296  0.38687  0.70482  1.0000
  C   C1129     1.0  0.68432  0.32465  0.77807  1.0000
  H   H909      1.0  0.83029  0.06459  0.72816  1.0000
  C   C1130     1.0  0.67108  0.29087  0.91293  1.0000
  H   H910      1.0  0.94120  0.30402  0.64981  1.0000
  C   C1131     1.0  0.75944  0.17372  0.86931  1.0000
  C   C1132     1.0  0.81530  0.40158  0.71475  1.0000
  H   H911      1.0  0.79095  0.14855  0.74574  1.0000
  C   C1133     1.0  0.70698  0.99749  0.95806  1.0000
  H   H912      1.0  0.76590  0.16971  0.89494  1.0000
  C   C1134     1.0  0.98474  0.47438  0.82082  1.0000
  C   C1135     1.0  0.89157  0.15457  0.68601  1.0000
  H   H913      1.0  0.68886  0.46273  0.77400  1.0000
  C   C1136     1.0  0.94564  0.43314  0.61797  1.0000
  C   C1137     1.0  0.67783  0.99530  0.80766  1.0000
  C   C1138     1.0  0.80144  0.37694  0.71333  1.0000
  H   H914      1.0  0.81041  0.46694  0.57189  1.0000
  Fe  Fe80      1.0  0.65871  0.07070  0.72568  1.0000
  S   S158      1.0  0.82243  0.45081  0.95179  1.0000
  C   C1139     1.0  0.71782  0.11600  0.89847  1.0000
  C   C1140     1.0  0.75186  0.32942  0.84358  1.0000
  C   C1141     1.0  0.72474  0.36214  0.82220  1.0000
  H   H915      1.0  0.70130  0.02581  0.82116  1.0000
  C   C1142     1.0  0.91101  0.17570  0.73307  1.0000
  C   C1143     1.0  0.87764  0.16833  0.74297  1.0000
  H   H916      1.0  0.86229  0.15021  0.69762  1.0000
  H   H917      1.0  0.68797  0.11519  0.88937  1.0000
  H   H918      1.0  0.91948  0.02098  0.73582  1.0000
  C   C1144     1.0  0.70055  0.06416  0.88867  1.0000
  H   H919      1.0  0.97233  0.47987  0.80489  1.0000
  C   C1145     1.0  0.87581  0.15712  0.70799  1.0000
  C   C1146     1.0  0.96157  0.28203  0.61365  1.0000
  C   C1147     1.0  0.89443  0.03282  0.76681  1.0000
  H   H920      1.0  0.68726  0.05222  0.88375  1.0000
  H   H921      1.0  0.67814  0.46998  0.63127  1.0000
  H   H922      1.0  0.77221  0.36783  0.70367  1.0000
  C   C1148     1.0  0.68276  0.16258  0.60602  1.0000
  H   H923      1.0  0.92140  0.16139  0.68162  1.0000
  C   C1149     1.0  0.96568  0.37045  0.50670  1.0000
  C   C1150     1.0  0.79200  0.44651  0.70082  1.0000
  C   C1151     1.0  0.93536  0.42459  0.55783  1.0000
  H   H924      1.0  0.74763  0.10866  0.90660  1.0000
  C   C1152     1.0  0.66378  0.44893  0.83863  1.0000
  H   H925      1.0  0.75029  0.48232  0.65557  1.0000
  H   H926      1.0  0.92721  0.46455  0.65052  1.0000
  C   C1153     1.0  0.90916  0.01097  0.75371  1.0000
  C   C1154     1.0  0.80000  0.47755  0.62421  1.0000
  H   H927      1.0  0.74730  0.04587  0.90031  1.0000
  H   H928      1.0  0.96918  0.45417  0.86440  1.0000
  C   C1155     1.0  0.73421  0.06054  0.89805  1.0000
  C   C1156     1.0  0.68003  0.43820  0.85671  1.0000
  H   H929      1.0  0.70285  0.02431  0.95489  1.0000
  H   H930      1.0  0.67958  0.27141  0.79159  1.0000
  H   H931      1.0  0.89368  0.05947  0.75869  1.0000
  H   H932      1.0  0.67220  0.25423  0.73069  1.0000
  C   C1157     1.0  0.95363  0.34292  0.61762  1.0000
  H   H933      1.0  0.68902  0.37465  0.75513  1.0000
  C   C1158     1.0  0.81065  0.43615  0.70820  1.0000
  C   C1159     1.0  0.68943  0.11296  0.49413  1.0000
  H   H934      1.0  0.79754  0.08838  0.72719  1.0000
  C   C1160     1.0  0.87824  0.48520  0.79775  1.0000
  H   H935      1.0  0.69484  0.31957  0.89653  1.0000
  H   H936      1.0  0.81665  0.18493  0.76527  1.0000
  C   C1161     1.0  0.91909  0.44457  0.56468  1.0000
  C   C1162     1.0  0.97962  0.03709  0.52546  1.0000
  C   C1163     1.0  0.67896  0.38221  0.82855  1.0000
  C   C1164     1.0  0.97783  0.01299  0.55319  1.0000
  C   C1165     1.0  0.68209  0.33785  0.71560  1.0000
  H   H937      1.0  0.95462  0.35468  0.51682  1.0000
  C   C1166     1.0  0.80530  0.13875  0.74461  1.0000
  C   C1167     1.0  0.95117  0.30914  0.62900  1.0000
  C   C1168     1.0  0.67822  0.19631  0.59583  1.0000
  C   C1169     1.0  0.71665  0.45933  0.79735  1.0000
  H   H938      1.0  0.71270  0.28177  0.84762  1.0000
  H   H939      1.0  0.65727  0.46267  0.55354  1.0000
  C   C1170     1.0  0.69301  0.00422  0.82876  1.0000
  H   H940      1.0  0.67454  0.00999  0.78403  1.0000
  S   S159      1.0  0.84522  0.45484  0.77359  1.0000
  C   C1171     1.0  0.82745  0.09139  0.73459  1.0000
  P   P40       1.0  0.68807  0.33875  0.82274  1.0000
  C   C1172     1.0  0.65519  0.48601  0.50168  1.0000
  H   H941      1.0  0.67335  0.11053  0.60855  1.0000
  H   H942      1.0  0.98093  0.06403  0.53165  1.0000
  C   C1173     1.0  0.71312  0.33468  0.83005  1.0000
  C   C1174     1.0  0.68751  0.40485  0.85199  1.0000
  C   C1175     1.0  0.66983  0.13680  0.60087  1.0000
  H   H943      1.0  0.75282  0.38137  0.82431  1.0000
  C   C1176     1.0  0.74398  0.35971  0.82949  1.0000
  C   C1177     1.0  0.94884  0.41889  0.58438  1.0000
  C   C1178     1.0  0.96652  0.34982  0.59065  1.0000
  C   C1179     1.0  0.91612  0.45883  0.59809  1.0000
  H   H944      1.0  0.90372  0.47482  0.60328  1.0000
  H   H945      1.0  0.97768  0.02149  0.58031  1.0000
  H   H946      1.0  0.65950  0.16848  0.73383  1.0000
  H   H947      1.0  0.94470  0.48231  0.51638  1.0000
  C   C1180     1.0  0.66232  0.39286  0.81137  1.0000
  H   H948      1.0  0.82164  0.45478  0.70962  1.0000
  C   C1181     1.0  0.98299  0.46003  0.85441  1.0000
  H   H949      1.0  0.70384  0.47082  0.58734  1.0000
  H   H950      1.0  0.87289  0.48166  0.82416  1.0000
  H   H951      1.0  0.69394  0.06677  0.52474  1.0000
  H   H952      1.0  0.78649  0.40995  0.97888  1.0000
  C   C1182     1.0  0.87504  0.47952  0.73479  1.0000
  H   H953      1.0  0.86705  0.47150  0.71218  1.0000
  C   C1183     1.0  0.69318  0.07777  0.49845  1.0000
  C   C1184     1.0  0.97453  0.28869  0.58702  1.0000
  C   C1185     1.0  0.97708  0.32243  0.57566  1.0000
  H   H954      1.0  0.95963  0.25587  0.62247  1.0000
  C   C1186     1.0  0.97541  0.39240  0.52926  1.0000
  H   H955      1.0  0.98040  0.08715  0.65592  1.0000
  H   H956      1.0  0.80745  0.45550  0.63546  1.0000
  H   H957      1.0  0.66920  0.47761  0.49394  1.0000
  C   C1187     1.0  0.66082  0.20418  0.58022  1.0000
  C   C1188     1.0  0.65485  0.42619  0.81614  1.0000
  C   C1189     1.0  0.65366  0.27812  0.90338  1.0000
  H   H958      1.0  0.65774  0.23047  0.57237  1.0000
  H   H959      1.0  0.65506  0.37539  0.79431  1.0000
  H   H960      1.0  0.65404  0.05875  0.51648  1.0000
  H   H961      1.0  0.76808  0.01769  0.98410  1.0000
  Fe  Fe81      1.0  0.80709  0.55662  0.14243  1.0000
  S   S160      1.0  0.80648  0.51936  0.18792  1.0000
  S   S161      1.0  0.79673  0.54216  0.08653  1.0000
  Fe  Fe82      1.0  0.81833  0.61578  0.19170  1.0000
  S   S162      1.0  0.81850  0.58140  0.23966  1.0000
  S   S163      1.0  0.82819  0.66982  0.20526  1.0000
  Fe  Fe83      1.0  0.83375  0.54225  0.20591  1.0000
  H   H962      1.0  0.67481  0.91097  0.08439  1.0000
  Fe  Fe84      1.0  0.79131  0.56156  0.21845  1.0000
  S   S164      1.0  0.76800  0.54901  0.25820  1.0000
  S   S165      1.0  0.83513  0.57737  0.15851  1.0000
  S   S166      1.0  0.79027  0.59805  0.17235  1.0000
  Fe  Fe85      1.0  0.81128  0.95255  0.16086  1.0000
  H   H963      1.0  0.91594  0.58720  0.44446  1.0000
  H   H964      1.0  0.70889  0.90668  0.09518  1.0000
  Fe  Fe86      1.0  0.81271  0.87639  0.18344  1.0000
  S   S167      1.0  0.81804  0.88923  0.24020  1.0000
  S   S168      1.0  0.80589  0.82391  0.15964  1.0000
  Fe  Fe87      1.0  0.79515  0.93024  0.23352  1.0000
  S   S169      1.0  0.77427  0.93371  0.28007  1.0000
  Fe  Fe88      1.0  0.83824  0.92894  0.22046  1.0000
  S   S170      1.0  0.86844  0.93339  0.24246  1.0000
  S   S171      1.0  0.78893  0.91579  0.17753  1.0000
  S   S172      1.0  0.83467  0.91249  0.16356  1.0000
  C   C1190     1.0  0.92827  0.54214  0.41898  1.0000
  H   H965      1.0  0.67627  0.67516  0.25666  1.0000
  S   S173      1.0  0.68227  0.59884  0.28421  1.0000
  H   H966      1.0  0.66333  0.84196  0.23733  1.0000
  C   C1191     1.0  0.90976  0.67717  0.01099  1.0000
  H   H967      1.0  0.90776  0.55230  0.29872  1.0000
  H   H968      1.0  0.94241  0.87786  0.43248  1.0000
  C   C1192     1.0  0.72851  0.79879  0.34571  1.0000
  H   H969      1.0  0.77059  0.91917  0.08421  1.0000
  C   C1193     1.0  0.74927  0.93616  0.28364  1.0000
  C   C1194     1.0  0.74090  0.93339  0.31717  1.0000
  C   C1195     1.0  0.72122  0.93669  0.32155  1.0000
  C   C1196     1.0  0.70967  0.94413  0.29254  1.0000
  S   S174      1.0  0.68537  0.95574  0.29723  1.0000
  C   C1197     1.0  0.73763  0.94178  0.25442  1.0000
  H   H970      1.0  0.65535  0.84021  0.43223  1.0000
  H   H971      1.0  0.71507  0.93529  0.34756  1.0000
  C   C1198     1.0  0.86102  0.51638  0.36151  1.0000
  C   C1199     1.0  0.75287  0.84110  0.34118  1.0000
  C   C1200     1.0  0.88204  0.96611  0.26279  1.0000
  C   C1201     1.0  0.90166  0.96079  0.26610  1.0000
  C   C1202     1.0  0.76244  0.90348  0.10175  1.0000
  H   H972      1.0  0.90819  0.93762  0.25535  1.0000
  H   H973      1.0  0.72501  0.85246  0.36033  1.0000
  C   C1203     1.0  0.74415  0.56329  0.26463  1.0000
  C   C1204     1.0  0.73398  0.54992  0.29315  1.0000
  C   C1205     1.0  0.71509  0.56035  0.29954  1.0000
  C   C1206     1.0  0.70607  0.58445  0.27747  1.0000
  C   C1207     1.0  0.71622  0.59779  0.24887  1.0000
  C   C1208     1.0  0.73509  0.58724  0.24239  1.0000
  H   H974      1.0  0.74079  0.53134  0.31053  1.0000
  H   H975      1.0  0.70755  0.54981  0.32162  1.0000
  H   H976      1.0  0.70941  0.61636  0.23150  1.0000
  H   H977      1.0  0.74260  0.59756  0.22018  1.0000
  H   H978      1.0  0.86234  0.87947  0.34887  1.0000
  C   C1209     1.0  0.93970  0.89247  0.45633  1.0000
  H   H979      1.0  0.87863  0.85176  0.39985  1.0000
  C   C1210     1.0  0.70936  0.94701  0.99540  1.0000
  C   C1211     1.0  0.97666  0.93171  0.33896  1.0000
  H   H980      1.0  0.74976  0.92940  0.34004  1.0000
  P   P41       1.0  0.70437  0.78876  0.35504  1.0000
  C   C1212     1.0  0.82067  0.71239  0.19364  1.0000
  C   C1213     1.0  0.80736  0.71932  0.16728  1.0000
  C   C1214     1.0  0.80298  0.75358  0.15734  1.0000
  C   C1215     1.0  0.81137  0.78137  0.17438  1.0000
  C   C1216     1.0  0.82403  0.77450  0.20181  1.0000
  C   C1217     1.0  0.82883  0.74020  0.21100  1.0000
  H   H981      1.0  0.80076  0.69831  0.15403  1.0000
  H   H982      1.0  0.79310  0.75859  0.13620  1.0000
  H   H983      1.0  0.83060  0.79555  0.21515  1.0000
  H   H984      1.0  0.83914  0.73518  0.23144  1.0000
  C   C1218     1.0  0.69140  0.80522  0.31749  1.0000
  C   C1219     1.0  0.80659  0.96351  0.05023  1.0000
  H   H985      1.0  0.80529  0.93926  0.06381  1.0000
  C   C1220     1.0  0.80450  0.51746  0.04892  1.0000
  C   C1221     1.0  0.89854  0.89204  0.40572  1.0000
  C   C1222     1.0  0.68266  0.93414  0.08809  1.0000
  C   C1223     1.0  0.75914  0.51004  0.14003  1.0000
  C   C1224     1.0  0.68594  0.78332  0.29020  1.0000
  H   H986      1.0  0.74466  0.93203  0.03802  1.0000
  H   H987      1.0  0.69163  0.85825  0.33510  1.0000
  C   C1225     1.0  0.70272  0.93113  0.43673  1.0000
  C   C1226     1.0  0.71801  0.94635  0.25896  1.0000
  C   C1227     1.0  0.87790  0.67804  0.03351  1.0000
  H   H988      1.0  0.90539  0.87948  0.42784  1.0000
  H   H989      1.0  0.72463  0.90685  0.15701  1.0000
  H   H990      1.0  0.97311  0.53685  0.38764  1.0000
  C   C1228     1.0  0.95861  0.93349  0.32456  1.0000
  C   C1229     1.0  0.75447  0.51024  0.17579  1.0000
  H   H991      1.0  0.67109  0.77939  0.24099  1.0000
  H   H992      1.0  0.65838  0.96802  0.08171  1.0000
  H   H993      1.0  0.95679  0.93304  0.29622  1.0000
  C   C1230     1.0  0.97964  0.55582  0.27866  1.0000
  H   H994      1.0  0.73660  0.84812  0.17055  1.0000
  S   S175      1.0  0.81574  0.97069  0.21712  1.0000
  C   C1231     1.0  0.96052  0.58150  0.41254  1.0000
  C   C1232     1.0  0.74587  0.91653  0.11761  1.0000
  C   C1233     1.0  0.75289  0.73913  0.11520  1.0000
  C   C1234     1.0  0.75859  0.70626  0.10390  1.0000
  C   C1235     1.0  0.76085  0.67962  0.12837  1.0000
  C   C1236     1.0  0.75779  0.68593  0.16421  1.0000
  C   C1237     1.0  0.75242  0.71904  0.17593  1.0000
  C   C1238     1.0  0.74959  0.74544  0.15100  1.0000
  P   P42       1.0  0.74813  0.72684  0.22229  1.0000
  C   C1239     1.0  0.72513  0.71157  0.23354  1.0000
  C   C1240     1.0  0.76610  0.70253  0.24644  1.0000
  C   C1241     1.0  0.76359  0.66750  0.25375  1.0000
  C   C1242     1.0  0.77774  0.64775  0.27025  1.0000
  C   C1243     1.0  0.79463  0.66263  0.27942  1.0000
  C   C1244     1.0  0.79729  0.69738  0.27245  1.0000
  C   C1245     1.0  0.78315  0.71726  0.25595  1.0000
  C   C1246     1.0  0.72151  0.69883  0.26749  1.0000
  C   C1247     1.0  0.70397  0.68568  0.27560  1.0000
  C   C1248     1.0  0.68972  0.68608  0.25036  1.0000
  C   C1249     1.0  0.69299  0.69972  0.21689  1.0000
  C   C1250     1.0  0.71063  0.71239  0.20844  1.0000
  C   C1251     1.0  0.74899  0.77265  0.23077  1.0000
  C   C1252     1.0  0.73394  0.79029  0.24750  1.0000
  C   C1253     1.0  0.73470  0.82569  0.25375  1.0000
  C   C1254     1.0  0.75047  0.84372  0.24343  1.0000
  C   C1255     1.0  0.76527  0.82658  0.22603  1.0000
  C   C1256     1.0  0.76441  0.79136  0.21929  1.0000
  H   H995      1.0  0.75107  0.75976  0.09619  1.0000
  H   H996      1.0  0.76117  0.70137  0.07618  1.0000
  H   H997      1.0  0.76502  0.65398  0.11965  1.0000
  H   H998      1.0  0.75970  0.66485  0.18256  1.0000
  H   H999      1.0  0.74492  0.77095  0.15904  1.0000
  H   H1000     1.0  0.75087  0.65502  0.24596  1.0000
  H   H1001     1.0  0.77580  0.62061  0.27515  1.0000
  H   H1002     1.0  0.80586  0.64701  0.29105  1.0000
  H   H1003     1.0  0.81068  0.70854  0.27842  1.0000
  H   H1004     1.0  0.78601  0.74366  0.24998  1.0000
  H   H1005     1.0  0.73235  0.69804  0.28745  1.0000
  H   H1006     1.0  0.70149  0.67421  0.30117  1.0000
  C   C1257     1.0  0.80575  0.96483  0.01293  1.0000
  C   C1258     1.0  0.70441  0.98175  0.99081  1.0000
  H   H1007     1.0  0.71298  0.72240  0.18223  1.0000
  H   H1008     1.0  0.72169  0.77686  0.25610  1.0000
  H   H1009     1.0  0.72318  0.83914  0.26709  1.0000
  H   H1010     1.0  0.75126  0.87099  0.24876  1.0000
  H   H1011     1.0  0.77740  0.84068  0.21750  1.0000
  H   H1012     1.0  0.77580  0.77879  0.20495  1.0000
  C   C1259     1.0  0.89100  0.57199  0.14274  1.0000
  C   C1260     1.0  0.88736  0.57505  0.17878  1.0000
  C   C1261     1.0  0.87834  0.60475  0.19191  1.0000
  C   C1262     1.0  0.87302  0.63150  0.16901  1.0000
  C   C1263     1.0  0.87702  0.62898  0.13286  1.0000
  C   C1264     1.0  0.88571  0.59870  0.11978  1.0000
  P   P43       1.0  0.86831  0.66144  0.10253  1.0000
  C   C1265     1.0  0.84617  0.64602  0.08711  1.0000
  C   C1266     1.0  0.86585  0.70358  0.12227  1.0000
  C   C1267     1.0  0.85219  0.72737  0.10972  1.0000
  C   C1268     1.0  0.85063  0.76035  0.12424  1.0000
  C   C1269     1.0  0.86283  0.77001  0.15101  1.0000
  C   C1270     1.0  0.87676  0.74681  0.16305  1.0000
  C   C1271     1.0  0.87841  0.71382  0.14849  1.0000
  C   C1272     1.0  0.84555  0.62293  0.05873  1.0000
  C   C1273     1.0  0.82835  0.61030  0.04756  1.0000
  C   C1274     1.0  0.81175  0.62045  0.06479  1.0000
  C   C1275     1.0  0.81237  0.64245  0.09379  1.0000
  C   C1276     1.0  0.82954  0.65490  0.10514  1.0000
  C   C1277     1.0  0.88451  0.66687  0.06657  1.0000
  C   C1278     1.0  0.90392  0.66193  0.07187  1.0000
  C   C1279     1.0  0.91648  0.66685  0.04407  1.0000
  C   C1280     1.0  0.88571  0.53212  0.26630  1.0000
  C   C1281     1.0  0.96332  0.93632  0.39758  1.0000
  H   H1013     1.0  0.96668  0.54814  0.26631  1.0000
  H   H1014     1.0  0.89748  0.54848  0.13256  1.0000
  H   H1015     1.0  0.89105  0.55394  0.19634  1.0000
  H   H1016     1.0  0.87485  0.60655  0.21966  1.0000
  H   H1017     1.0  0.86527  0.65357  0.17946  1.0000
  H   H1018     1.0  0.88801  0.59536  0.09177  1.0000
  H   H1019     1.0  0.84268  0.72054  0.08881  1.0000
  H   H1020     1.0  0.83976  0.77838  0.11516  1.0000
  H   H1021     1.0  0.86134  0.79542  0.16258  1.0000
  C   C1282     1.0  0.97905  0.57799  0.30761  1.0000
  H   H1022     1.0  0.88945  0.69637  0.15778  1.0000
  H   H1023     1.0  0.85832  0.61420  0.04559  1.0000
  C   C1283     1.0  0.67755  0.85387  0.28558  1.0000
  H   H1024     1.0  0.79849  0.61018  0.05643  1.0000
  H   H1025     1.0  0.79964  0.64914  0.10808  1.0000
  H   H1026     1.0  0.82991  0.67089  0.12839  1.0000
  H   H1027     1.0  0.90936  0.65447  0.09751  1.0000
  H   H1028     1.0  0.86303  0.68312  0.02921  1.0000
  C   C1284     1.0  0.71215  0.96174  0.10013  1.0000
  H   H1029     1.0  0.97903  0.98317  0.45543  1.0000
  H   H1030     1.0  0.77249  0.98256  0.13598  1.0000
  C   C1285     1.0  0.75977  0.85018  0.13423  1.0000
  C   C1286     1.0  0.76923  0.87030  0.10985  1.0000
  H   H1031     1.0  0.76546  0.82491  0.14115  1.0000
  C   C1287     1.0  0.92833  0.57603  0.43181  1.0000
  H   H1032     1.0  0.75741  0.86727  0.34418  1.0000
  C   C1288     1.0  0.74360  0.86334  0.15088  1.0000
  H   H1033     1.0  0.88908  0.96430  0.18333  1.0000
  C   C1289     1.0  0.75634  0.97278  0.00775  1.0000
  C   C1290     1.0  0.90470  0.92370  0.39294  1.0000
  H   H1034     1.0  0.96560  0.58782  0.31724  1.0000
  H   H1035     1.0  0.92916  0.93837  0.33471  1.0000
  C   C1291     1.0  0.98587  0.49803  0.47431  1.0000
  C   C1292     1.0  0.65739  0.48801  0.25742  1.0000
  H   H1036     1.0  0.87723  0.59385  0.33623  1.0000
  C   C1293     1.0  0.90278  0.52982  0.28535  1.0000
  Fe  Fe89      1.0  0.66094  0.94151  0.33381  1.0000
  H   H1037     1.0  0.68192  0.69979  0.19733  1.0000
  H   H1038     1.0  0.70460  0.90517  0.44662  1.0000
  H   H1039     1.0  0.65967  0.57048  0.22806  1.0000
  C   C1294     1.0  0.94438  0.59563  0.42851  1.0000
  H   H1040     1.0  0.67724  0.85138  0.48142  1.0000
  H   H1041     1.0  0.66603  0.68487  0.36003  1.0000
  C   C1295     1.0  0.94509  0.93829  0.38338  1.0000
  C   C1296     1.0  0.68215  0.97994  0.42238  1.0000
  C   C1297     1.0  0.73681  0.89656  0.14299  1.0000
  C   C1298     1.0  0.67979  0.69533  0.36444  1.0000
  H   H1042     1.0  0.78233  0.86064  0.09841  1.0000
  C   C1299     1.0  0.69433  0.67415  0.37761  1.0000
  C   C1300     1.0  0.68740  0.84069  0.31467  1.0000
  C   C1301     1.0  0.71494  0.72255  0.37789  1.0000
  C   C1302     1.0  0.67588  0.79654  0.26133  1.0000
  C   C1303     1.0  0.67018  0.83344  0.42962  1.0000
  H   H1043     1.0  0.74741  0.53256  0.18738  1.0000
  C   C1304     1.0  0.93081  0.92517  0.45459  1.0000
  C   C1305     1.0  0.74789  0.97769  0.06971  1.0000
  H   H1044     1.0  0.74382  0.94356  0.22847  1.0000
  C   C1306     1.0  0.69606  0.80992  0.39454  1.0000
  H   H1045     1.0  0.93143  0.66282  0.04825  1.0000
  C   C1307     1.0  0.71570  0.98294  0.41281  1.0000
  H   H1046     1.0  0.77819  0.52542  0.02156  1.0000
  C   C1308     1.0  0.71819  0.94932  0.42533  1.0000
  C   C1309     1.0  0.94290  0.93669  0.34663  1.0000
  H   H1047     1.0  0.84999  0.49879  0.35528  1.0000
  H   H1048     1.0  0.87772  0.55616  0.26521  1.0000
  C   C1310     1.0  0.74094  0.77407  0.33089  1.0000
  H   H1049     1.0  0.72835  0.73293  0.38492  1.0000
  C   C1311     1.0  0.76528  0.81613  0.32732  1.0000
  H   H1050     1.0  0.77937  0.82302  0.31972  1.0000
  C   C1312     1.0  0.73455  0.83254  0.35034  1.0000
  H   H1051     1.0  0.66706  0.81363  0.37727  1.0000
  C   C1313     1.0  0.89017  0.56094  0.37566  1.0000
  H   H1052     1.0  0.88621  0.75440  0.18378  1.0000
  H   H1053     1.0  0.72309  0.80812  0.42069  1.0000
  C   C1314     1.0  0.75934  0.78260  0.32229  1.0000
  H   H1054     1.0  0.76886  0.76346  0.31086  1.0000
  S   S176      1.0  0.85787  0.50469  0.22307  1.0000
  H   H1055     1.0  0.82787  0.59193  0.02612  1.0000
  C   C1315     1.0  0.87407  0.89176  0.36133  1.0000
  H   H1056     1.0  0.67288  0.93254  0.44510  1.0000
  H   H1057     1.0  0.69190  0.64726  0.38285  1.0000
  H   H1058     1.0  0.72294  0.67148  0.39570  1.0000
  H   H1059     1.0  0.68015  0.52289  0.25049  1.0000
  H   H1060     1.0  0.70924  0.95214  0.23633  1.0000
  H   H1061     1.0  0.73638  0.74848  0.32505  1.0000
  C   C1316     1.0  0.70073  0.74356  0.36266  1.0000
  C   C1317     1.0  0.68288  0.73000  0.35741  1.0000
  H   H1062     1.0  0.67417  0.88119  0.28393  1.0000
  C   C1318     1.0  0.71185  0.68782  0.38463  1.0000
  H   H1063     1.0  0.68926  0.75604  0.29120  1.0000
  C   C1319     1.0  0.70199  0.93181  0.09468  1.0000
  S   S177      1.0  0.65973  0.59964  0.38123  1.0000
  H   H1064     1.0  0.67125  0.74622  0.34822  1.0000
  C   C1320     1.0  0.67689  0.81852  0.39837  1.0000
  C   C1321     1.0  0.87908  0.50337  0.24857  1.0000
  C   C1322     1.0  0.94447  0.52831  0.40263  1.0000
  C   C1323     1.0  0.97901  0.93294  0.37548  1.0000
  C   C1324     1.0  0.70836  0.81562  0.42269  1.0000
  C   C1325     1.0  0.88003  0.92326  0.34857  1.0000
  H   H1065     1.0  0.87287  0.93527  0.32633  1.0000
  C   C1326     1.0  0.91295  0.98508  0.28314  1.0000
  H   H1066     1.0  0.97304  0.59644  0.41012  1.0000
  C   C1327     1.0  0.79738  0.49401  0.99018  1.0000
  P   P44       1.0  0.92489  0.94391  0.41214  1.0000
  C   C1328     1.0  0.74278  0.98385  0.14732  1.0000
  C   C1329     1.0  0.87637  0.56998  0.35079  1.0000
  S   S178      1.0  0.65863  0.90245  0.37733  1.0000
  H   H1067     1.0  0.80371  0.94142  0.99829  1.0000
  C   C1330     1.0  0.89527  0.93915  0.36418  1.0000
  H   H1068     1.0  0.90156  0.57818  0.37980  1.0000
  C   C1331     1.0  0.88329  0.87620  0.38996  1.0000
  C   C1332     1.0  0.70160  0.83063  0.45392  1.0000
  C   C1333     1.0  0.68479  0.94657  0.43566  1.0000
  H   H1069     1.0  0.89970  0.96358  0.35377  1.0000
  S   S179      1.0  0.98580  0.48893  0.33481  1.0000
  H   H1070     1.0  0.75590  0.53237  0.12380  1.0000
  C   C1334     1.0  0.87466  0.50742  0.38668  1.0000
  H   H1071     1.0  0.87004  0.51477  0.45789  1.0000
  H   H1072     1.0  0.88982  0.98699  0.41481  1.0000
  C   C1335     1.0  0.96055  0.54791  0.39967  1.0000
  H   H1073     1.0  0.70727  0.93482  0.02068  1.0000
  C   C1336     1.0  0.88943  0.52956  0.39390  1.0000
  P   P45       1.0  0.73711  0.95965  0.10842  1.0000
  H   H1074     1.0  0.94432  0.62170  0.43849  1.0000
  C   C1337     1.0  0.67157  0.83177  0.25915  1.0000
  C   C1338     1.0  0.79209  0.51348  0.02033  1.0000
  H   H1075     1.0  0.96550  0.93789  0.42572  1.0000
  H   H1076     1.0  0.91950  0.68099  0.98946  1.0000
  C   C1339     1.0  0.89049  0.68290  0.00576  1.0000
  H   H1077     1.0  0.71111  0.83499  0.47562  1.0000
  C   C1340     1.0  0.74912  0.95836  0.03851  1.0000
  C   C1341     1.0  0.88029  0.51975  0.47809  1.0000
  H   H1078     1.0  0.94478  0.50244  0.39217  1.0000
  C   C1342     1.0  0.86187  0.54763  0.34356  1.0000
  H   H1079     1.0  0.92796  0.98056  0.28517  1.0000
  H   H1080     1.0  0.85155  0.55414  0.32342  1.0000
  P   P46       1.0  0.90769  0.51664  0.42488  1.0000
  Fe  Fe90      1.0  0.65889  0.58563  0.32382  1.0000
  C   C1343     1.0  0.82244  0.50183  0.04660  1.0000
  H   H1081     1.0  0.83232  0.50486  0.06792  1.0000
  H   H1082     1.0  0.73214  0.93746  0.42636  1.0000
  C   C1344     1.0  0.67340  0.96629  0.08646  1.0000
  C   C1345     1.0  0.68253  0.83970  0.45730  1.0000
  C   C1346     1.0  0.66522  0.51908  0.24734  1.0000
  C   C1347     1.0  0.91350  0.49881  0.28720  1.0000
  C   C1348     1.0  0.89939  0.52256  0.46965  1.0000
  S   S180      1.0  0.93495  0.49782  0.31192  1.0000
  C   C1349     1.0  0.65366  0.54607  0.23482  1.0000
  S   S181      1.0  0.65353  0.51624  0.43578  1.0000
  H   H1083     1.0  0.71439  0.98733  0.16824  1.0000
  Fe  Fe91      1.0  0.94751  0.54008  0.71142  1.0000
  C   C1350     1.0  0.98548  0.71339  0.70035  1.0000
  S   S182      1.0  0.92592  0.52442  0.75394  1.0000
  C   C1351     1.0  0.68101  0.61600  0.63506  1.0000
  C   C1352     1.0  0.67110  0.94876  0.84749  1.0000
  S   S183      1.0  0.95407  0.51854  0.57930  1.0000
  S   S184      1.0  0.94214  0.57331  0.66367  1.0000
  S   S185      1.0  0.97189  0.57210  0.72962  1.0000
  Fe  Fe92      1.0  0.95537  0.93999  0.71267  1.0000
  C   C1353     1.0  0.75477  0.97654  0.88853  1.0000
  S   S186      1.0  0.95488  0.90388  0.66571  1.0000
  C   C1354     1.0  0.68828  0.63941  0.65905  1.0000
  H   H1084     1.0  0.95685  0.78869  0.65663  1.0000
  C   C1355     1.0  0.96984  0.70574  0.67969  1.0000
  C   C1356     1.0  0.96706  0.51044  0.53964  1.0000
  H   H1085     1.0  0.70328  0.63964  0.66383  1.0000
  C   C1357     1.0  0.82749  0.55656  0.75499  1.0000
  C   C1358     1.0  0.66684  0.96765  0.81704  1.0000
  C   C1359     1.0  0.89271  0.49462  0.72957  1.0000
  S   S187      1.0  0.97428  0.97802  0.68567  1.0000
  C   C1360     1.0  0.98578  0.82281  0.78331  1.0000
  Fe  Fe93      1.0  0.96748  0.60342  0.67971  1.0000
  C   C1361     1.0  0.88951  0.83976  0.83289  1.0000
  Fe  Fe94      1.0  0.96252  0.53806  0.63430  1.0000
  C   C1362     1.0  0.81029  0.54608  0.70116  1.0000
  S   S188      1.0  0.96253  0.66248  0.67223  1.0000
  S   S189      1.0  0.92887  0.94707  0.74833  1.0000
  C   C1363     1.0  0.71987  0.94378  0.93477  1.0000
  C   C1364     1.0  0.96668  0.82064  0.77525  1.0000
  H   H1086     1.0  0.66254  0.92730  0.85470  1.0000
  H   H1087     1.0  0.89987  0.74960  0.80361  1.0000
  C   C1365     1.0  0.95856  0.49200  0.51235  1.0000
  C   C1366     1.0  0.77948  0.52809  0.62996  1.0000
  H   H1088     1.0  0.98479  0.97889  0.84825  1.0000
  H   H1089     1.0  0.78756  0.49107  0.96875  1.0000
  S   S190      1.0  0.97996  0.91053  0.73724  1.0000
  C   C1367     1.0  0.66158  0.61541  0.62888  1.0000
  Fe  Fe95      1.0  0.97512  0.94024  0.63999  1.0000
  C   C1368     1.0  0.95650  0.79257  0.78708  1.0000
  C   C1369     1.0  0.65689  0.66213  0.67080  1.0000
  P   P47       1.0  0.93168  0.78998  0.77793  1.0000
  C   C1370     1.0  0.92583  0.81166  0.73699  1.0000
  C   C1371     1.0  0.92603  0.74511  0.77446  1.0000
  C   C1372     1.0  0.93828  0.72223  0.75643  1.0000
  C   C1373     1.0  0.93416  0.68745  0.75368  1.0000
  C   C1374     1.0  0.91779  0.67517  0.76884  1.0000
  C   C1375     1.0  0.90550  0.69774  0.78680  1.0000
  C   C1376     1.0  0.90958  0.73261  0.78962  1.0000
  C   C1377     1.0  0.92299  0.84757  0.73649  1.0000
  C   C1378     1.0  0.91757  0.86438  0.70540  1.0000
  C   C1379     1.0  0.91527  0.84569  0.67440  1.0000
  C   C1380     1.0  0.91819  0.81003  0.67455  1.0000
  C   C1381     1.0  0.92338  0.79303  0.70571  1.0000
  C   C1382     1.0  0.72445  0.51503  0.72353  1.0000
  H   H1090     1.0  0.96013  0.84054  0.75910  1.0000
  C   C1383     1.0  0.69404  0.49257  0.58937  1.0000
  C   C1384     1.0  0.97660  0.96757  0.51010  1.0000
  C   C1385     1.0  0.89788  0.84635  0.86538  1.0000
  C   C1386     1.0  0.89967  0.82205  0.80669  1.0000
  H   H1091     1.0  0.94365  0.66998  0.73957  1.0000
  C   C1387     1.0  0.66811  0.54830  0.59410  1.0000
  C   C1388     1.0  0.96557  0.76730  0.80804  1.0000
  H   H1092     1.0  0.82266  0.52145  0.79765  1.0000
  H   H1093     1.0  0.75967  0.97060  0.78695  1.0000
  H   H1094     1.0  0.95098  0.73135  0.74426  1.0000
  H   H1095     1.0  0.71733  0.49479  0.67271  1.0000
  H   H1096     1.0  0.94799  0.58684  0.52878  1.0000
  C   C1389     1.0  0.91051  0.97629  0.76381  1.0000
  H   H1097     1.0  0.65506  0.51802  0.63472  1.0000
  H   H1098     1.0  0.92496  0.86277  0.76007  1.0000
  H   H1099     1.0  0.91542  0.89209  0.70527  1.0000
  H   H1100     1.0  0.91142  0.85898  0.65024  1.0000
  H   H1101     1.0  0.91660  0.79554  0.65044  1.0000
  H   H1102     1.0  0.92561  0.76545  0.70499  1.0000
  H   H1103     1.0  0.89756  0.93745  0.79538  1.0000
  C   C1390     1.0  0.75813  0.97121  0.81536  1.0000
  C   C1391     1.0  0.91640  0.83508  0.87177  1.0000
  H   H1104     1.0  0.97484  0.76049  0.57652  1.0000
  H   H1105     1.0  0.89305  0.81752  0.78148  1.0000
  C   C1392     1.0  0.71721  0.92810  0.96749  1.0000
  H   H1106     1.0  0.65499  0.96099  0.80068  1.0000
  C   C1393     1.0  0.78128  0.53448  0.59385  1.0000
  C   C1394     1.0  0.95950  0.73340  0.66434  1.0000
  H   H1107     1.0  0.93205  0.94516  0.54218  1.0000
  C   C1395     1.0  0.93374  0.93014  0.51824  1.0000
  C   C1396     1.0  0.71465  0.97855  0.92974  1.0000
  C   C1397     1.0  0.96475  0.76794  0.66920  1.0000
  C   C1398     1.0  0.79238  0.51240  0.57290  1.0000
  H   H1108     1.0  0.68188  0.68051  0.69557  1.0000
  H   H1109     1.0  0.87523  0.84887  0.82780  1.0000
  C   C1399     1.0  0.74086  0.98103  0.83038  1.0000
  Fe  Fe96      1.0  0.98026  0.87642  0.68909  1.0000
  H   H1110     1.0  0.91466  0.64814  0.76655  1.0000
  H   H1111     1.0  0.95040  0.60525  0.59105  1.0000
  H   H1112     1.0  0.90387  0.50833  0.81519  1.0000
  H   H1113     1.0  0.94738  0.72807  0.64831  1.0000
  C   C1400     1.0  0.78872  0.49942  0.64536  1.0000
  C   C1401     1.0  0.97762  0.62704  0.58442  1.0000
  H   H1114     1.0  0.78715  0.95718  0.82504  1.0000
  H   H1115     1.0  0.97852  0.63453  0.61171  1.0000
  H   H1116     1.0  0.95792  0.74580  0.81821  1.0000
  H   H1117     1.0  0.92710  0.53088  0.49113  1.0000
  C   C1402     1.0  0.77367  0.96393  0.83683  1.0000
  C   C1403     1.0  0.90336  0.50517  0.75847  1.0000
  H   H1118     1.0  0.91631  0.53663  0.55245  1.0000
  C   C1404     1.0  0.66646  0.51954  0.61612  1.0000
  H   H1119     1.0  0.82996  0.58669  0.70777  1.0000
  H   H1120     1.0  0.83779  0.57082  0.76949  1.0000
  H   H1121     1.0  0.69059  0.59840  0.62152  1.0000
  C   C1405     1.0  0.74734  0.49378  0.68103  1.0000
  C   C1406     1.0  0.72866  0.50106  0.69047  1.0000
  C   C1407     1.0  0.98520  0.52233  0.53420  1.0000
  H   H1122     1.0  0.89810  0.49808  0.70321  1.0000
  C   C1408     1.0  0.92662  0.81744  0.84559  1.0000
  C   C1409     1.0  0.91835  0.81095  0.81276  1.0000
  H   H1123     1.0  0.77090  0.54551  0.64592  1.0000
  C   C1410     1.0  0.96155  0.61077  0.57264  1.0000
  H   H1124     1.0  0.68922  0.94256  0.89204  1.0000
  C   C1411     1.0  0.97453  0.60788  0.51382  1.0000
  C   C1412     1.0  0.81888  0.52881  0.77096  1.0000
  C   C1413     1.0  0.87422  0.52328  0.51305  1.0000
  S   S191      1.0  0.96635  0.50286  0.68127  1.0000
  C   C1414     1.0  0.89589  0.50036  0.79254  1.0000
  H   H1125     1.0  0.89280  0.68814  0.79849  1.0000
  C   C1415     1.0  0.82312  0.56533  0.72017  1.0000
  C   C1416     1.0  0.67623  0.66244  0.67694  1.0000
  C   C1417     1.0  0.68298  0.54888  0.56973  1.0000
  H   H1126     1.0  0.94102  0.80944  0.85093  1.0000
  H   H1127     1.0  0.95284  0.85400  0.48992  1.0000
  H   H1128     1.0  0.77405  0.55656  0.58210  1.0000
  C   C1418     1.0  0.96013  0.60070  0.53747  1.0000
  H   H1129     1.0  0.76839  0.51844  0.75736  1.0000
  H   H1130     1.0  0.79371  0.51731  0.54490  1.0000
  C   C1419     1.0  0.76201  0.50052  0.70463  1.0000
  H   H1131     1.0  0.80739  0.55308  0.67412  1.0000
  H   H1132     1.0  0.87172  0.97590  0.81817  1.0000
  H   H1133     1.0  0.92292  0.84050  0.89686  1.0000
  C   C1420     1.0  0.94277  0.89783  0.51967  1.0000
  C   C1421     1.0  0.69575  0.52095  0.56713  1.0000
  C   C1422     1.0  0.80176  0.51779  0.71691  1.0000
  H   H1134     1.0  0.72576  0.92870  0.91321  1.0000
  H   H1135     1.0  0.68468  0.57081  0.55255  1.0000
  H   H1136     1.0  0.70688  0.52123  0.54767  1.0000
  C   C1423     1.0  0.88717  0.52943  0.53983  1.0000
  H   H1137     1.0  0.70992  0.51958  0.73124  1.0000
  C   C1424     1.0  0.73889  0.52140  0.74731  1.0000
  H   H1138     1.0  0.94796  0.88800  0.54473  1.0000
  H   H1139     1.0  0.89008  0.86051  0.88548  1.0000
  H   H1140     1.0  0.73558  0.53078  0.77355  1.0000
  C   C1425     1.0  0.80611  0.50942  0.75205  1.0000
  C   C1426     1.0  0.89678  0.96409  0.78721  1.0000
  C   C1427     1.0  0.75759  0.51407  0.73802  1.0000
  C   C1428     1.0  0.90619  0.53215  0.53168  1.0000
  C   C1429     1.0  0.73894  0.98324  0.86716  1.0000
  H   H1141     1.0  0.98234  0.70073  0.55875  1.0000
  C   C1430     1.0  0.97626  0.97795  0.54571  1.0000
  C   C1431     1.0  0.68632  0.95759  0.86863  1.0000
  C   C1432     1.0  0.98051  0.77553  0.68952  1.0000
  C   C1433     1.0  0.91227  0.52883  0.49679  1.0000
  H   H1142     1.0  0.78425  0.96212  0.88996  1.0000
  C   C1434     1.0  0.67949  0.49200  0.61402  1.0000
  H   H1143     1.0  0.72120  0.90123  0.97113  1.0000
  C   C1435     1.0  0.77201  0.96670  0.87339  1.0000
  S   S192      1.0  0.97378  0.94597  0.57929  1.0000
  H   H1144     1.0  0.88251  0.53210  0.56693  1.0000
  H   H1145     1.0  0.85947  0.52118  0.51939  1.0000
  C   C1436     1.0  0.69742  0.98554  0.85945  1.0000
  C   C1437     1.0  0.94564  0.87888  0.48877  1.0000
  H   H1146     1.0  0.97567  0.94058  0.50383  1.0000
  C   C1438     1.0  0.98470  0.76945  0.81583  1.0000
  H   H1147     1.0  0.75401  0.97965  0.91685  1.0000
  P   P48       1.0  0.78614  0.49119  0.69195  1.0000
  C   C1439     1.0  0.88204  0.98592  0.80025  1.0000
  H   H1148     1.0  0.88529  0.69127  0.98022  1.0000
  H   H1149     1.0  0.92110  0.96918  0.48561  1.0000
  C   C1440     1.0  0.92770  0.94377  0.48592  1.0000
  H   H1150     1.0  0.97345  0.59978  0.48664  1.0000
  H   H1151     1.0  0.72928  0.98759  0.81301  1.0000
  H   H1152     1.0  0.75787  0.95751  0.98402  1.0000
