data_image0
_chemical_formula_structural       H2C3HC3SH2CHCH2C3H2C2H2C2HCHCHSCHC4HC2H3CS2HC3H2CH5CHCH2C2FeS2FeSCFeSFeS3FeHSFeS2FeC3S2FeS2FeS2FeSFeS3FeS2FeS2FeSC2S2FeCFeS2FeSHS2C2H2CHSH2C2H3CH2C2HCHCHCHCH2C2H4C2FeC4H3C3HC2HPHC7H2CHC6H4C6H2CH2C6H4C6H3C6H4C6H4C6H4CHCH2C2HC2HCH4C3HC2HCSCHC6HC3H3C2HC7H2FeC7HC2H6C4PC4H2CHC7H4C2H5C8HCHCHCH4C5HCSC2HCSCH3CHC2SCH2FeHPCHC3SCSH3CH3C2HC5HCFeHCHCPHC4H2C2H3PC4H2C3HCHCH2CH2C2PCH4CSCH2CHC5HCSCH2CHCHCH7C2H2C2H3C5HCH3C2H2CH3C2H2PHCHCHC3HCHC2H2CFeC2HCH5C2SH2C3HPC2HC2HC2H2C2SC2H2CHC3HCHPCH2C5HC2H4CFeHC2H3C5FeH2C2HCH8C5H2C2H2C2H2C2H2CHCH2CHC3HC2H2CHC2H5PSC2HC5SC3H4CPHCHC2H3CHPCH2CHC2H4SHSC2HCH3CFeC3H4C2SC2H4SC3HC4H2CH3CHCH3CHCH3CHCH5C4SHC2HCHSC2H3CFeS2FeSHFeSFeS3FeCHFeS2FeHSHS2FeS2FeS2FeSFeS3FeS2FeS2FeSFeCS2FeHFeSHFeSCHSCHCSHFeSFeSHCHC8H2CH3C3HCHCH2C8H2C7H2C7H2C8HCH2C6HCH3C6H4C6H3C6H4C6H4C6H5CHCHCH2CHCH6C3HCFeHC2H4C4HCH6CPC4H3SHC2H4SC3HC3H3PCHSCHC6H2C3HC3H7C2H2SH3C2H2C2HCHC3FeC3HC2HC8PC16H17FeC4HPCH4C9H2C4H2C2PH2C3H2CHCH2CHC4HC2H3CHCSHC4H2C6HC2HC2HSC2PHCHC3HCSC2HPHSC3H3PH3CH2CH3C3HCHSHCHC3H2CPC3H3CHC2HC2H2C3H2C4H2CH2C6HC2HC3H3SC2HC2HFeC2HC3HC2PCH3CH2CH2C2PCHCH2C3H2CH4C2HCH4PCH2C2H2CH3CHC3H2CH2CHC4H2C3H3CH3C4H3C2HC5HCHCH2C3HCH4CSC2H2CH2C2HCSC4H2CH2CH2CHC2FeCSC2PH2CSCH2CH2C2H2CH3CH2C2HCHCHSC3SH4C2HCH2C6H3C3HCH2C2HC2H2SH4C2HCSH2C7H4C4H2CHC2HC2H2CSHC2H3CH2C4HCHCSC2HC7H5CH2CSC7HCH3CPC2HCHC4H2CHC2HCH4CH3CHCHCH3C2H2CHCH3C7HPCH3C9H2C2SCH2CH3C3H4C2HCHC2H2CHC3HC3H3PCHFeSFeSCFeSFeS3HFeS2FeSCFeSFeS3HSC2SFeSFeS2FeSFeS3FeS2FeS2FeSFeS3FeS2FeHCFeSFeS3CFeSH2C7H4C3HC2H2CHC6H4C6H4C6H4C8H2C4H4C8H5C4HCH3C6H4C6H7PH4CHC2HC2PHC3H2C2H2CHPHSC2HCH2CH4C3SCHPC2FeH3C2H2C6PC17H13C2H2C10PC4HC10HC2H6CHCH7CPSHFeHC3FeH2CH2C6H2CSC2HCHC3HC2HCH2CH4PC13H7CHCPCHC4HCH2PC6HC3HC2H3C2HSH2SHSC4HC2HCHC2HCFeC3H2C3HC4HCSC6HCH3FeHC5HCH3CSH2FeHC3HPCHCH3CHC3SC2H2C3HC2H3C3SCHC2H3CH2CHC3H2CHCHCHC4HC2HCHCHCHC3H3C2HFeHSHC2PC4H2C2H2CSC3HCHCH2CHC2H3C2HCH2C3H5C4HC2H3CH4CSHC2H2C2HCSC5SC2HC10HC3SCH2CH2CSHC3H4PH4CH3CH6C2H3C7HC3HC3HCH3C2HCFeCHSHSH4CH3CPHC3H3SHCHC4H2C2FeC4H3CHCHCHCSHC2H2CH2C2HC4HCH3C5H2C2HC3HC3HC2HCHCH2C3H2CH2C2H2C2HCH2CHC3H3C2H3S2C2H3C2H2CHCHCHCHC4H2CHPHC2HCHC2HFeHC2HCFeSC2H5CH4C4HC2SC2HC2HPCH3C2HCHCH2C2HFeH2FeH8C2HC4H3C2HSCH2CH6CFeSFeSHFeSFeS3HFeS2FeSHFeSFeS3CSH3FeSFeS2FeSFeS3FeS2FeS2FeSFeS3FeS2FeHCFeSFeS3CFeSH2C2SC4HCH2C2HC3H4C6H4C6H4C6H4C8H2CH3PH2C2HC6H5C6H2SC3HC2HC2HC6H5C2FeHCHCHCHC2HCHCHCHC6HC3HFeHC2H2C2H3C10H9CPC12H13C5H2C4H2C2HC8H2CH3CHSC3H3C6PC8HCHC7H6CH4CH6C5PC3HC3HC3H2PSH3C3HC2HC2H2C3HC2H3C2FeHFeCHC5H2FeC3H5C3HC2HPCHCHC4SH5C3SH2CHC5HCHC2HCFeCH2CHCH2SHCHCHC3H5C3H2C2HC2PC2HCH5C2H2SC2HCHC6HCPCHCHCH2SC3HCH5CHCHC2HC2PCH3C3HC2PH8C3H2C2H2C3HCHCHSH2CH4C2HC2SC3HCFeHC2HCHCHCHCHC2HFeC3H3C2HCHCH3CSC3H3SHC5HC2HC2H2SC2HCH2CHSHC4HC2HC3H4PHCH2PSCPC2HC2H2C2HCHC3H3C2HC2FeC2H3C3H2C4SH3CHCHCHCH5CH3C4H3CH2C2H3C2HC5H2C2H3C6HC3HCSFeC3HCSHC3H2C7H2CH4C2HFeHCHC4HCHCHC5HCHCH2CHCHCH2CHCSCPHSC2HC3HC2SC4HCH3SHC3H2C2HCHCHC2H2CH2CHCSH2S2FePCHC2HC2H2CHC4H2CHC2HC2SHC2H2C2HC2HCHCH2SCHC3H2CHSHCS2FeS2FeSFeS3FeSH2SPFeSFeCS2FeS2FeS2FeSFeS3FeSFeS2FeSH2SCFeS2FeSCFeSFeS3HCHC2HCHC3HC6H4C6H4C2H2C2HCH2C6H6C2H3C3H4C7H4C6H2CH2CH4C8H2C2HCH3C6PH2CSC4H3SH2C2FeC7H4C3H2CHCHC6PC20H2CH9SH5C4H2C2HCH3CHC2SCPC5HC3HC8H3CH2CH2CH2C3H6CH3C7PC18H11FeH2CHCH3CHCH3CH3C5H2PCHC4H3CHC2FeCHCH2CH3CHC6HC4HSHSC2HC2PH3CH3C3HC2PH2CH2CHC3HSH3CPCH3CHC6HSC3HCHC2HC3HC5HC2H2SC2SC3HCH3CHFeC4H2FeH2C4HCHC3HCH2CH3C2H2CHC4HC4H2CH2PC3H5C2H3SCHC2H2C2H2C3HCHC6HCHCPCHC2HC6SHCHCH2PH9C2HCH6C2HC4H2CH4C2HCSC2HC4HCSHC2PH2C2PCHCHC4HCFeHCHCH2CHC2HC3H2C3H2CH2CHC3HCHCHC2HCHCHCHCH3CHCH6CHCSC2H2CHC3H2CH2CHCHFeHPC2HC4HC3HCH2CHC2SCHC2HSCH2SH2S2FeS2FeCFeS3FeS2FeSHFeSFeS3FeS2FeS2FeSFeS3FeSFeS2FeSCFeSCFeS2FeSHFeSFeS3H4C2HCH2CHC6H4C6H4C6H4C6H4C3HCPC3SCH3SC6H4C5HCH3CH3C2HSC6H2C2HC2H2C6H3C6H3C4HCHC2HC7HCFeH2CH6CHC5HC2HCHPC2HSC9H3C3H2CH5CH4CHCH2CHC6H6CSH2C2PC10H2CH2C5H2CH6PCH2CH6CHCHC6HC2H4C3HC2H2C5H5CHCHCH2CHC3HCHC6H2C2H2PCHCHCPC2HC3PCHC3H2C3H3CHC3HC3HC2H3CH2CHC5H2CSCHC4HC2H2CSHFeC3H2CHC5H2C3H2CPCH2CSCH2CHC2H4C2HC5HCH2C2HCHCSCHC2H5C4HC2HC3S2HC2HC2HC4PC3H3PH3PCHC2H3CHC3HCHC9H2C2H2SHC2H2CHCHC3HC3HC2PC3HCHCHCH2CHCH4CFeHCH2C2FeCHC2HC2H2CH2CHC2H2CHCHC2HC2HFeC2H2PCHCH2C2HCH3C2H2C2HCH3CHCHCHC3H2CSCHC2HCHC4SCHC3H6CHCH2C4H2CH3CHCH2C2H2C4HCHC2H2CHCHCH2CPHFeSH3CHC3SH2C4H2S2C2H2CH2C2H2CHFeS2FeS2FeSFeCS3FeSHFeSFeS2FeS2FeS2FeSFeS3FeS2FeSCFeSFeS3C6H4C6H2CHC6H4C6H3C2HC5H2C8H2C6H4CFeC2FeC3HCHC2H3C9H4C5PC3H3CHC2SH5PHCHSH2C7H7C2H2C6SHC2H5CPH2CHCPHSFeH2C5HSC5H2C2HC9HC4H10CH7C2HC7HCH3C2H2C2H4C2HPHC3HCH5C2H2FeHC4H2C2HCHCH4C2H2C6PC19SH18C6PC18H17C2SC2SC2H2CHCH3CPC2H2CHCPCFeC2HC2HC3H2SC2HCH2C2HC2HC4H2C3HC2HCHC2HCH2C3FeC2HSCHCH2C2HCHPCHSC5SC2HCHC3PCH4CHC3H2CH4CH3CHCHC2H2CHCHC2H3CH5C2H2C5H2C4HC2H2PC3HCH3C4H2CH3CH2FeHC3HC2H4C3H6CH3C2HC8H3C3HC6H2CHS2HC3Fe2C3H2CHC3H2CH4CFeSH2CHC2H2SHCHCSHC4HC2H2C2HCS2C2FeS2FeS2FeSFeHS3HSHFeSFeS2FeS2FeS2FeSFeS3FeS2FeSHFeSFeS3C6H4C6H2CHC6H4C6H3C6HCHSC2HC3HCH2C6H4C2HCHC3HC2HSH2C3HC6H4CHCH2C3HC4HC4H2CHC2HCHC3HC6H6CHC2HC6H3C4H2CH2CH2CSC5HC7PC9HCHCH12C2H2C6PC18H20C2H4SH4CH3CPHCH3CH2C2HC3HC2HC4HC3HCH2C2PHCH2C2H2SHCHC2HCHC2FeCH2C5SHC3H2C6HFeH2PC7H4C2HC5HPCH2CH4CH2C4FeSCHCH2C2H2C2H2CHFeH3C2H2FeC2HC2H2CH6CHPH2CPC2H2C4HCH2CHSCH3FeHC3HSCHCHCPHC4HSC4H2C2HCHC2HPC2HC7H2CHCHC2H3C3HC2H4C2FeC2SCHC2HCHC5H3C2HCHCPCHCH4CHC2PHC3H2CH3CHC2H2SC3H5CHSC4HC3H10C3HC2FeSHSCS2FeCFeSFeS2FeS2FeSFeS3FeS2FeS2FeSFeS3HFeSCHCFeSCHFe2CSCH2FeHCHSFeC6HCH2C2SH2S2C4H4CH7C6H4C6H4SC5H4C6H4FeCSCH4CHC6H4C6H5C2H3C10PC18H21CHC6H2SCHFe2C2HC3HC6HFeC5HC7PC18H20C3HCH3C2H3C2HCH4PCH4CSHC2HCH2S2C3SH2FeC4H2C3H8C4HCHCSHCH2C6H4SCHC3FeH2CHPHCSC3H3C3H2C4SHSHC4H3SPC2Fe2CSH2C2PH2SHC5HSC2HCHCP2CFeC2PCH3C5FeSCH3CHC6H2CHSH3C4HCFe2HC5H2CFeSC2HCH2CH2CH2CHCH3CHC2HC3SFeC3H4C6HFeH4C3HC2HSC2HC5H5C3HCHC3HC2H5CH2CHC2SCHC4HCH2SHC2H5CH2C4H3CSC3H2SH2C3HCSCH3CH2C3HCSC2HC4HC4HC2HSHCH3C4HC2SHCH2C9SH2CHCHC2H2CH2CHC2HC2HC2H5CH3C3HPHC4HCHC3HC2H2SCHS2C4H3C4HC3H4CHC2H2C2FeH5C2SH3C3HC3H4C2H2C7HPHCH2CPSC3H2CHCH4CHCH4CSHC2HCHCSC3HSCHC3HC3H2C2H2PHCH4CHC3H2CHCH2CH2C2HPC2H2CH2CSCHCH2CHC2SC2FeSCSHS2FeCFeSFeS2FeS2FeSFeS3FeS2FeS2FeCFeS3CFeSCHCFeS2HSFeCSC2SFeH3SHC6SH3CHSH4SCH2C3HC2HFeH2CSC6H4C6H4C6H3C7H4CH2C3S3C7H4SC6H4C2H2PCHC11H7C2HFeHPC3PC14SFeHCH2C2H4CHC2H4CHC3H2C6PHCFeS2HCH2C3H2CH7CH3FeH3C8PC3H8C6PC17H18CH2C4H2CHC5SH3C3H2C2HPCH2CFeC4HCFeC3HSCSC2H2SH6CFeC3H4SH2C2H3PC3SC4HC2H3C2HCH4SHC7H2C3SC2H2CH2Fe2CHCSHC5H3C2H2CH3CH2C2HFeCHCHC3HCH2CSCSC4HC2SH2CHCSCHC2H3C3S2H2PHC2SCHSC3FeHSHCFeC3H2CHC2HC5HC3HC2HSH2FeH2C2HCH3FeC3H2CH2C2H2C2HC2HC4H2C2HC2HC2HCSH2SH2CH4C3H4C3H2C2H2C2SCHFePC2HC2HC2HCHC2H2C2HC2HC2H5CHC5H2CHSC2HCH2C2HCHC4HC7H2C2HC8FeC2H3CFeHCHCH3C2SH2C2HCHCH2C2H2CH5C8PC2H2CH2C4PHS3H5C3H4C2HCHC2H2C6HC2HPCH2C5H3C2H2CH4C4HCHSCH2CH2CHFeH2C3HFeH3C3H2CHCH3PH2PC2HCH2C3H2CHCHC2HC2H2CHCH2CHC3HC3HC3H2C4HC4HC2H2C2SFeHC3H2C2HC3H2CHCSH2FeS2FeS2FeSFeS3FeS2FeS2FeSFeS4FeSCFeCFeSC2HSHSHFeSFeC3H2CHC3H3CH2C6H4C6H4CHC6H3C2HCH3CHC8H4C2HCH2C4H3CH4CHC2HC2HC2H2CHC2H2C10PHCPH4C2HCHC6H2CHCH2CHCH3CHC2H3C4H2SH2C10PC18H22C2HPHC2HC2H2C2HC2HCH5C2HCFeH2CHSC3HC6H2C3H3C2H3C4H2CHCH2C2H2C4HCSC2HPH3C2H2C3H2CH2C3SH2CH3C3HCH2CHCH3PC10H4C3H3CHC3H2CHC5FeSHFeS2FeSFeS3FeS2FeS2FeSFeS4FeSHFeHFeS3HCFeS2FeSFeHCPCSHCHC2HCHC5HC2H5C6H4CHC6H5SC2PC2HSHC6H8C5H2C2HCH3CH3CHC3H2CHC11HC2PC2HC3H3CHCHCH2C3FeC5HC2HC2HC3HCHCH2C2HCHCH3C6HCHC4HC2H2CHCH2C2H2PC2H7CSCH2CH2CH2CH2C4H3C3HCHC4H8C3H5CH3C5HCH2CHC3HPH2C7H4C5HCH2C3HPHC2HCHCH3C2HCHC2H3C3H7SHC3H2CHC2FeS2CSCFeSHC4HCHC2H5C5PC6H2CH3FeH2C3SC4H3CPSHC3H2CHC5HCH3SHC3HC3SCHCHC2S2C3HSCFeH2CHFeC2H2FeCH2C2H2C2HCHCH4C2H4CH3FeS2H2CFeSC2HCH2CH2C2H3SC5H2C5H2C2SHFeSHFeC2SC2HFeC4H3C3H4SH4C3HSH2C2H4SC9H2C2HFeHC5HCH2CH3SHC3H2CHC2HCHCH2PHCHPHC6HCPC3FeCHFeS2FeSCS3FeSFeS2FeS3FeS2FeSHFeSFeHS2FeS2FeS2FeSFeS3HSFeSCFeHFeSHFeS2FeS2FeSFeS3C6H4CHC5H3C6H4C6H3C7H5C2SC4HCHC2H4C2SHC4H4C7H3C6H4C6H5CH4PC3HC4H2CHC9H2CH2CH2CHCH3C2H4SHFeHC8PCHC3H2C9H4C2H2C4H8C8PC18HCH15C2H3CHPC2HC14H7C7PC4HC5H2C6H11CH6CHC4HCHC2H2CH5C2H2C4HCHC3H2SCH4CH9C3HPC2H2C4HCH2PCH2C2HC4HCH2C5H2C3HCHC3H5C2HC3H2SC5H2CH3C3HC2HC2H2CH4CHCH4C3H2CH3PHCHC2H2C4H2CH2CSCHCH2CH2C7H2CH2C3H2C3H2CSHC4PCHC3HC4HC3PC2H2CSCH2CHC2H9C5HCFeHCH2C2HCH2CHC5HCSC3PHC2HCHCH2C2HC3H2C3HCH3C2H2PH5C2HCH4CHSH3C3HCH2CHC2HCSHPC2FeC4HCH2SHC2HC4HC3H2C2HC3H3CHC2H2C5HCHC2H2C2H2C2H2C5H2CH2CH2FeH2FeS2FeSHS3FeSFeHSFeS2CFeS2FeSHFeSFeCS2FeS2FeS2FeSFeS3FeSCSCFeHFeS2FeS2FeS2FeSFeS3C6H4C6H4C6H4C6H4C6H4C3H3CHCHSC3HCHCH2CH2C5HC8H2C6H4C6H4C3H2C3H2C3H3SCHCH3CHC2H2PC5H2C8HCHC2HCH2CH3C2HCHC6H8PC3HC3HCH2C4H2CH4CH3C2SCHCHCH2CH3C4HPC6H4CH4C2H2C6PC7H2C6H8C2HCH5C3H4C2HC2HC2H4C2H3C2HC4HC7PC16H9CHCH4C3H2CHCSH2C2HC3HC2HC5H2C3H2PCHC3H2CH2SFeCHSCH2C2H2CH2CH3C2HC4HC2HCPC2HC2HCPC3HSHSHCH2CHC7H2C6HCHC3H4CPH3CHCHCHCH4C3HCHFeHCHCH4C2H3CHCH3CHCH3C4PCHC5HPCSHC2H2C2HPHC2HC3HC3H2C6HC2HC5HCH3CH2CH2C6HC5H3CHSCH2CHCHCSC3HCPSCHC5SC2HC2PCHC8PHC2HCH4C2H2CHC2HC2H2CHCH2CSHC3HC2H2CHCHFeHCHC2HCHC2HCH2C2PHC3H3CH2C2H3C2HCHC2HC2H3C2H2SFeSCFeS2H3C2FeSPSFeCH3C2HC2HSCH2C4HC2HC7H3C6H4CHCHCHCFeCHCHCHC3H2FeH2CH3C2H3SC3HCHCHC2SH2CHCSH3FeC2HCH2CHSPH2CHC2HCH2CH2C2HSHC5H2CHSHC3SC2HC3SHSCH4CHC2HSHS2FeS2H2SC2FeSHSCHC3HCH3C2HC2H2SHCH2CSC6H2C7H2PH3C4H2CH2PC4H3C3FeHC3HC2H3C3H4CHFeHCH2C2HCH4CH2CH3FeC2SH3FeCFeHC2HCHCHCHCH4C3HSC2HCHC2HC2HC5HSHCH3CHCHCHC2H3C3HC3HC4H2CPH5C3
_chemical_formula_sum              "H4608 C5760 S768 Fe384 P192"
_cell_length_a       120.831
_cell_length_b       120.283
_cell_length_c       49.7216
_cell_angle_alpha    78.1037
_cell_angle_beta     78.2147
_cell_angle_gamma    101.667

_space_group_name_H-M_alt    "P 1"
_space_group_IT_number       1

loop_
  _space_group_symop_operation_xyz
  'x, y, z'

loop_
  _atom_site_type_symbol
  _atom_site_label
  _atom_site_symmetry_multiplicity
  _atom_site_fract_x
  _atom_site_fract_y
  _atom_site_fract_z
  _atom_site_occupancy
  H   H1        1.0  0.02775  0.45921  0.29798  1.0000
  H   H2        1.0  0.03128  0.47971  0.26947  1.0000
  C   C1        1.0  0.02194  0.49313  0.10312  1.0000
  C   C2        1.0  0.01543  0.48710  0.18925  1.0000
  C   C3        1.0  0.00368  0.48752  0.19211  1.0000
  H   H3        1.0  0.01554  0.48970  0.27243  1.0000
  C   C4        1.0  0.00263  0.47511  0.30417  1.0000
  C   C5        1.0  0.01148  0.47090  0.16703  1.0000
  C   C6        1.0  0.01931  0.47880  0.17630  1.0000
  S   S1        1.0  0.02433  0.49591  0.20579  1.0000
  H   H4        1.0  0.01459  0.46444  0.15745  1.0000
  H   H5        1.0  0.02824  0.47821  0.17425  1.0000
  C   C7        1.0  0.01378  0.48092  0.28600  1.0000
  H   H6        1.0  0.00763  0.47827  0.10808  1.0000
  C   C8        1.0  0.99970  0.47126  0.17011  1.0000
  H   H7        1.0  0.04422  0.48686  0.40916  1.0000
  H   H8        1.0  0.02812  0.48785  0.10578  1.0000
  C   C9        1.0  0.02076  0.46364  0.29988  1.0000
  C   C10       1.0  0.01039  0.48772  0.10455  1.0000
  C   C11       1.0  0.02279  0.47521  0.28401  1.0000
  H   H9        1.0  0.00056  0.49392  0.20186  1.0000
  H   H10       1.0  0.03090  0.49640  0.38634  1.0000
  C   C12       1.0  0.04435  0.49594  0.40873  1.0000
  C   C13       1.0  0.00057  0.46335  0.31939  1.0000
  H   H11       1.0  0.10244  0.50231  0.42462  1.0000
  H   H12       1.0  0.01246  0.49550  0.42655  1.0000
  C   C14       1.0  0.00229  0.49444  0.10240  1.0000
  C   C15       1.0  0.00353  0.49620  0.43181  1.0000
  H   H13       1.0  0.05807  0.49804  0.43005  1.0000
  C   C16       1.0  0.00964  0.45770  0.31750  1.0000
  H   H14       1.0  0.00801  0.44863  0.32926  1.0000
  C   C17       1.0  0.03678  0.50129  0.39609  1.0000
  H   H15       1.0  0.08344  0.50173  0.30300  1.0000
  S   S2        1.0  0.06141  0.50209  0.19046  1.0000
  C   C18       1.0  0.00700  0.45906  0.88984  1.0000
  H   H16       1.0  0.03269  0.47851  0.65702  1.0000
  C   C19       1.0  0.00073  0.45968  0.76202  1.0000
  C   C20       1.0  0.01994  0.48584  0.67922  1.0000
  C   C21       1.0  0.02355  0.47849  0.66259  1.0000
  C   C22       1.0  0.01528  0.47089  0.65362  1.0000
  H   H17       1.0  0.00127  0.46612  0.79939  1.0000
  C   C23       1.0  0.00327  0.47057  0.66073  1.0000
  C   C24       1.0  0.00800  0.48570  0.68575  1.0000
  H   H18       1.0  0.01822  0.46516  0.64117  1.0000
  H   H19       1.0  0.01579  0.46119  0.87626  1.0000
  H   H20       1.0  0.00517  0.49170  0.69741  1.0000
  C   C25       1.0  0.00756  0.45843  0.73687  1.0000
  S   S3        1.0  0.06506  0.49738  0.69185  1.0000
  S   S4        1.0  0.02979  0.49534  0.69254  1.0000
  H   H21       1.0  0.00249  0.48359  0.55571  1.0000
  C   C26       1.0  0.01854  0.46851  0.77362  1.0000
  C   C27       1.0  0.01975  0.46214  0.73032  1.0000
  C   C28       1.0  0.02524  0.46724  0.74854  1.0000
  H   H22       1.0  0.02285  0.47252  0.78759  1.0000
  H   H23       1.0  0.02497  0.46133  0.71064  1.0000
  C   C29       1.0  0.99972  0.47813  0.67675  1.0000
  H   H24       1.0  0.03470  0.47040  0.74287  1.0000
  H   H25       1.0  0.01191  0.45195  0.92779  1.0000
  H   H26       1.0  0.02133  0.49277  0.75430  1.0000
  H   H27       1.0  0.02855  0.49805  0.58603  1.0000
  H   H28       1.0  0.00098  0.48753  0.80047  1.0000
  C   C30       1.0  0.00481  0.45387  0.91890  1.0000
  H   H29       1.0  0.00360  0.45480  0.72190  1.0000
  C   C31       1.0  0.00633  0.46485  0.78022  1.0000
  H   H30       1.0  0.99956  0.46535  0.85577  1.0000
  H   H31       1.0  0.03283  0.49413  0.79031  1.0000
  C   C32       1.0  0.02412  0.50104  0.75943  1.0000
  C   C33       1.0  0.03059  0.50183  0.77954  1.0000
  Fe  Fe1       1.0  0.15049  0.63476  0.40367  1.0000
  S   S5        1.0  0.15860  0.65105  0.36828  1.0000
  S   S6        1.0  0.15561  0.61776  0.40393  1.0000
  Fe  Fe2       1.0  0.13456  0.64623  0.43829  1.0000
  S   S7        1.0  0.14112  0.66348  0.40411  1.0000
  C   C34       1.0  0.01462  0.57757  0.35329  1.0000
  Fe  Fe3       1.0  0.13992  0.65234  0.37187  1.0000
  S   S8        1.0  0.13349  0.65525  0.33028  1.0000
  Fe  Fe4       1.0  0.15936  0.66071  0.40279  1.0000
  S   S9        1.0  0.17680  0.67064  0.40954  1.0000
  S   S10       1.0  0.13202  0.63572  0.40647  1.0000
  S   S11       1.0  0.15247  0.64394  0.43775  1.0000
  Fe  Fe5       1.0  0.06818  0.51872  0.15388  1.0000
  H   H32       1.0  0.12468  0.61686  0.98713  1.0000
  S   S12       1.0  0.08286  0.52487  0.11222  1.0000
  Fe  Fe6       1.0  0.05485  0.53203  0.18897  1.0000
  S   S13       1.0  0.04694  0.51670  0.22672  1.0000
  S   S14       1.0  0.05180  0.54972  0.18937  1.0000
  Fe  Fe7       1.0  0.06501  0.51383  0.22006  1.0000
  C   C35       1.0  0.05286  0.51425  0.41882  1.0000
  C   C36       1.0  0.20916  0.62527  0.08122  1.0000
  C   C37       1.0  0.01676  0.54755  0.26227  1.0000
  S   S15       1.0  0.07292  0.52971  0.18345  1.0000
  S   S16       1.0  0.05048  0.52235  0.15700  1.0000
  Fe  Fe8       1.0  0.07938  0.61723  0.18590  1.0000
  S   S17       1.0  0.09146  0.61119  0.15464  1.0000
  S   S18       1.0  0.06012  0.61584  0.18361  1.0000
  Fe  Fe9       1.0  0.09847  0.62278  0.22045  1.0000
  S   S19       1.0  0.11116  0.61663  0.19063  1.0000
  S   S20       1.0  0.10313  0.62512  0.26296  1.0000
  Fe  Fe10      1.0  0.10551  0.62662  0.15442  1.0000
  S   S21       1.0  0.12062  0.63642  0.11502  1.0000
  Fe  Fe11      1.0  0.09606  0.60190  0.19306  1.0000
  S   S22       1.0  0.09736  0.58315  0.20026  1.0000
  S   S23       1.0  0.09331  0.63365  0.18386  1.0000
  S   S24       1.0  0.08346  0.60715  0.22463  1.0000
  Fe  Fe12      1.0  0.11425  0.56465  0.39198  1.0000
  S   S25       1.0  0.09798  0.54995  0.40478  1.0000
  S   S26       1.0  0.11402  0.58366  0.37946  1.0000
  Fe  Fe13      1.0  0.13009  0.54852  0.39685  1.0000
  S   S27       1.0  0.11497  0.53210  0.40957  1.0000
  S   S28       1.0  0.14970  0.54965  0.38899  1.0000
  Fe  Fe14      1.0  0.10780  0.54145  0.37479  1.0000
  S   S29       1.0  0.09883  0.53486  0.34137  1.0000
  C   C38       1.0  0.24533  0.67477  0.42062  1.0000
  C   C39       1.0  0.17604  0.59914  0.37431  1.0000
  S   S30       1.0  0.12372  0.55692  0.36013  1.0000
  S   S31       1.0  0.12129  0.55710  0.42798  1.0000
  Fe  Fe15      1.0  0.23237  0.59344  0.40904  1.0000
  C   C40       1.0  0.18521  0.69200  0.31791  1.0000
  Fe  Fe16      1.0  0.20558  0.59014  0.42047  1.0000
  S   S32       1.0  0.20795  0.60976  0.40699  1.0000
  S   S33       1.0  0.18661  0.57915  0.44062  1.0000
  Fe  Fe17      1.0  0.22247  0.60957  0.37086  1.0000
  S   S34       1.0  0.22600  0.62150  0.32669  1.0000
  H   H33       1.0  0.07807  0.51679  0.47221  1.0000
  S   S35       1.0  0.07314  0.51001  0.25844  1.0000
  S   S36       1.0  0.21950  0.58993  0.38260  1.0000
  C   C41       1.0  0.21826  0.68479  0.05756  1.0000
  C   C42       1.0  0.08721  0.52508  0.01728  1.0000
  H   H34       1.0  0.04298  0.56885  0.20249  1.0000
  H   H35       1.0  0.05979  0.56671  0.98209  1.0000
  C   C43       1.0  0.14619  0.61498  0.04859  1.0000
  H   H36       1.0  0.05747  0.50323  0.32434  1.0000
  S   S37       1.0  0.22783  0.59959  0.22059  1.0000
  H   H37       1.0  0.09088  0.61037  0.09890  1.0000
  H   H38       1.0  0.03773  0.58751  0.26675  1.0000
  C   C44       1.0  0.19131  0.67397  0.31863  1.0000
  C   C45       1.0  0.07408  0.60163  0.47703  1.0000
  H   H39       1.0  0.03717  0.63706  0.25985  1.0000
  H   H40       1.0  0.20197  0.66882  0.37040  1.0000
  H   H41       1.0  0.03190  0.52612  0.03199  1.0000
  C   C46       1.0  0.03860  0.60696  0.17364  1.0000
  H   H42       1.0  0.04568  0.62600  0.22750  1.0000
  H   H43       1.0  0.04513  0.52858  0.40592  1.0000
  C   C47       1.0  0.07117  0.62030  0.45439  1.0000
  C   C48       1.0  0.02483  0.53897  0.17165  1.0000
  H   H44       1.0  0.15028  0.64393  0.24219  1.0000
  C   C49       1.0  0.24272  0.74630  0.08180  1.0000
  H   H45       1.0  0.10407  0.53677  0.01090  1.0000
  C   C50       1.0  0.07967  0.59797  0.35448  1.0000
  H   H46       1.0  0.14487  0.58818  0.01628  1.0000
  C   C51       1.0  0.11571  0.59632  0.46568  1.0000
  H   H47       1.0  0.19267  0.67160  0.21413  1.0000
  C   C52       1.0  0.01396  0.54950  0.28925  1.0000
  H   H48       1.0  0.16443  0.65040  0.11839  1.0000
  H   H49       1.0  0.07702  0.51481  0.38677  1.0000
  C   C53       1.0  0.18857  0.63536  0.34339  1.0000
  C   C54       1.0  0.01650  0.61092  0.28515  1.0000
  H   H50       1.0  0.10805  0.53282  0.16650  1.0000
  H   H51       1.0  0.19461  0.66715  0.32951  1.0000
  H   H52       1.0  0.07881  0.59488  0.47740  1.0000
  H   H53       1.0  0.07600  0.53338  0.37277  1.0000
  C   C55       1.0  0.18212  0.65598  0.09184  1.0000
  C   C56       1.0  0.22714  0.61544  0.29703  1.0000
  Fe  Fe18      1.0  0.04370  0.50639  0.19451  1.0000
  C   C57       1.0  0.23122  0.61820  0.24551  1.0000
  C   C58       1.0  0.22782  0.60603  0.24939  1.0000
  C   C59       1.0  0.22426  0.59863  0.27701  1.0000
  C   C60       1.0  0.22409  0.60330  0.30068  1.0000
  H   H54       1.0  0.10661  0.65513  0.42510  1.0000
  H   H55       1.0  0.22164  0.58920  0.28012  1.0000
  H   H56       1.0  0.22152  0.59747  0.32175  1.0000
  C   C61       1.0  0.05917  0.51950  0.33679  1.0000
  C   C62       1.0  0.09014  0.50830  0.40312  1.0000
  C   C63       1.0  0.04156  0.57808  0.23528  1.0000
  H   H57       1.0  0.18353  0.69882  0.32823  1.0000
  C   C64       1.0  0.23118  0.61318  0.03984  1.0000
  C   C65       1.0  0.23248  0.61659  0.01041  1.0000
  H   H58       1.0  0.04782  0.58254  0.14194  1.0000
  P   P1        1.0  0.15180  0.58216  0.07020  1.0000
  H   H59       1.0  0.23472  0.61945  0.05059  1.0000
  C   C66       1.0  0.24127  0.57073  0.00578  1.0000
  C   C67       1.0  0.15993  0.55902  0.40125  1.0000
  C   C68       1.0  0.17198  0.56011  0.39124  1.0000
  C   C69       1.0  0.18030  0.56670  0.40201  1.0000
  C   C70       1.0  0.17666  0.57213  0.42339  1.0000
  C   C71       1.0  0.16464  0.57126  0.43293  1.0000
  C   C72       1.0  0.15635  0.56486  0.42176  1.0000
  H   H60       1.0  0.17489  0.55567  0.37535  1.0000
  H   H61       1.0  0.18949  0.56723  0.39447  1.0000
  C   C73       1.0  0.07623  0.61737  0.09297  1.0000
  H   H62       1.0  0.14715  0.56415  0.42957  1.0000
  C   C74       1.0  0.09186  0.52833  0.31742  1.0000
  C   C75       1.0  0.09021  0.51627  0.31931  1.0000
  C   C76       1.0  0.08459  0.51102  0.30097  1.0000
  C   C77       1.0  0.08059  0.51765  0.27996  1.0000
  C   C78       1.0  0.08230  0.52978  0.27780  1.0000
  C   C79       1.0  0.08787  0.53503  0.29636  1.0000
  H   H63       1.0  0.19354  0.66206  0.00986  1.0000
  H   H64       1.0  0.19213  0.67934  0.03329  1.0000
  H   H65       1.0  0.07929  0.53510  0.26178  1.0000
  H   H66       1.0  0.08913  0.54435  0.29437  1.0000
  C   C80       1.0  0.08405  0.52493  0.07578  1.0000
  C   C81       1.0  0.09444  0.53156  0.05529  1.0000
  C   C82       1.0  0.09600  0.53169  0.02625  1.0000
  C   C83       1.0  0.03362  0.59029  0.15333  1.0000
  C   C84       1.0  0.07682  0.51844  0.03777  1.0000
  C   C85       1.0  0.07519  0.51845  0.06676  1.0000
  H   H67       1.0  0.10139  0.53655  0.06198  1.0000
  H   H68       1.0  0.11913  0.61210  0.05155  1.0000
  C   C86       1.0  0.08121  0.51449  0.45270  1.0000
  H   H69       1.0  0.06718  0.51326  0.08218  1.0000
  H   H70       1.0  0.21598  0.74008  0.12818  1.0000
  C   C87       1.0  0.06432  0.55894  0.19320  1.0000
  C   C88       1.0  0.06694  0.57104  0.18119  1.0000
  C   C89       1.0  0.07694  0.57850  0.18383  1.0000
  C   C90       1.0  0.08457  0.57388  0.19781  1.0000
  C   C91       1.0  0.08201  0.56175  0.20971  1.0000
  C   C92       1.0  0.07176  0.55432  0.20793  1.0000
  H   H71       1.0  0.06133  0.57464  0.16943  1.0000
  H   H72       1.0  0.07881  0.58781  0.17461  1.0000
  H   H73       1.0  0.08786  0.55812  0.22066  1.0000
  H   H74       1.0  0.06959  0.54505  0.21822  1.0000
  C   C93       1.0  0.18725  0.68265  0.41403  1.0000
  C   C94       1.0  0.18576  0.69408  0.40962  1.0000
  C   C95       1.0  0.19402  0.70323  0.41411  1.0000
  C   C96       1.0  0.20405  0.70125  0.42262  1.0000
  C   C97       1.0  0.20560  0.68983  0.42687  1.0000
  C   C98       1.0  0.19726  0.68063  0.42269  1.0000
  H   H75       1.0  0.17816  0.69585  0.40303  1.0000
  H   H76       1.0  0.19265  0.71197  0.41080  1.0000
  H   H77       1.0  0.19853  0.67187  0.42649  1.0000
  C   C99       1.0  0.12132  0.64069  0.02012  1.0000
  C   C100      1.0  0.13171  0.64245  0.02881  1.0000
  C   C101      1.0  0.13133  0.64107  0.05792  1.0000
  C   C102      1.0  0.12059  0.63773  0.07870  1.0000
  C   C103      1.0  0.11022  0.63563  0.07008  1.0000
  C   C104      1.0  0.11059  0.63718  0.04096  1.0000
  H   H78       1.0  0.14003  0.64524  0.01305  1.0000
  H   H79       1.0  0.13939  0.64275  0.06439  1.0000
  H   H80       1.0  0.10191  0.63321  0.08578  1.0000
  H   H81       1.0  0.10249  0.63587  0.03454  1.0000
  C   C105      1.0  0.12536  0.64649  0.31159  1.0000
  C   C106      1.0  0.11959  0.63454  0.32317  1.0000
  C   C107      1.0  0.11298  0.62822  0.30800  1.0000
  C   C108      1.0  0.11210  0.63357  0.28065  1.0000
  C   C109      1.0  0.11807  0.64544  0.26883  1.0000
  C   C110      1.0  0.12449  0.65182  0.28424  1.0000
  H   H82       1.0  0.12010  0.63018  0.34404  1.0000
  H   H83       1.0  0.10852  0.61907  0.31755  1.0000
  H   H84       1.0  0.11752  0.64981  0.24801  1.0000
  H   H85       1.0  0.12878  0.66103  0.27485  1.0000
  C   C111      1.0  0.14513  0.60838  0.39325  1.0000
  C   C112      1.0  0.14412  0.59628  0.39962  1.0000
  C   C113      1.0  0.13499  0.58870  0.39375  1.0000
  C   C114      1.0  0.12666  0.59315  0.38217  1.0000
  C   C115      1.0  0.12822  0.60532  0.37379  1.0000
  C   C116      1.0  0.13749  0.61290  0.37911  1.0000
  H   H86       1.0  0.15026  0.59270  0.40947  1.0000
  H   H87       1.0  0.13433  0.57941  0.39861  1.0000
  H   H88       1.0  0.12232  0.60893  0.36310  1.0000
  H   H89       1.0  0.13877  0.62225  0.37195  1.0000
  C   C117      1.0  0.08723  0.60928  0.05893  1.0000
  H   H90       1.0  0.12086  0.57737  0.04602  1.0000
  C   C118      1.0  0.24788  0.56934  0.02571  1.0000
  H   H91       1.0  0.01078  0.59798  0.21399  1.0000
  H   H92       1.0  0.18021  0.62398  0.02359  1.0000
  C   C119      1.0  0.04705  0.53195  0.32061  1.0000
  C   C120      1.0  0.02536  0.54732  0.14707  1.0000
  H   H93       1.0  0.22433  0.71162  0.37078  1.0000
  C   C121      1.0  0.99963  0.51159  0.23913  1.0000
  C   C122      1.0  0.17448  0.67333  0.05927  1.0000
  H   H94       1.0  0.23402  0.62398  0.22428  1.0000
  C   C123      1.0  0.04559  0.51287  0.31032  1.0000
  H   H95       1.0  0.22337  0.67331  0.13169  1.0000
  H   H96       1.0  0.21108  0.65485  0.46591  1.0000
  H   H97       1.0  0.05702  0.54747  0.12701  1.0000
  H   H98       1.0  0.06325  0.58800  0.28117  1.0000
  C   C124      1.0  0.14188  0.57505  0.10500  1.0000
  C   C125      1.0  0.00796  0.54860  0.03709  1.0000
  C   C126      1.0  0.13416  0.55784  0.14540  1.0000
  H   H99       1.0  0.19323  0.60486  0.03447  1.0000
  C   C127      1.0  0.11045  0.59362  0.06792  1.0000
  C   C128      1.0  0.00089  0.59060  0.25782  1.0000
  H   H100      1.0  0.20966  0.62943  0.29595  1.0000
  C   C129      1.0  0.02200  0.54944  0.30587  1.0000
  S   S38       1.0  0.11996  0.63927  0.47970  1.0000
  C   C130      1.0  0.07862  0.57827  0.09719  1.0000
  H   H101      1.0  0.20939  0.63295  0.42528  1.0000
  C   C131      1.0  0.21721  0.65034  0.39774  1.0000
  C   C132      1.0  0.14408  0.58832  0.47202  1.0000
  C   C133      1.0  0.08071  0.51345  0.40485  1.0000
  C   C134      1.0  0.16758  0.65900  0.27577  1.0000
  C   C135      1.0  0.05867  0.59377  0.01691  1.0000
  C   C136      1.0  0.11698  0.61050  0.98679  1.0000
  H   H102      1.0  0.18501  0.64944  0.10519  1.0000
  C   C137      1.0  0.06268  0.57228  0.04104  1.0000
  C   C138      1.0  0.03278  0.54700  0.29589  1.0000
  C   C139      1.0  0.11583  0.60471  0.07021  1.0000
  H   H103      1.0  0.02582  0.54174  0.19045  1.0000
  H   H104      1.0  0.00962  0.57539  0.22972  1.0000
  H   H105      1.0  0.03572  0.60569  0.23155  1.0000
  C   C140      1.0  0.21680  0.64623  0.07346  1.0000
  C   C141      1.0  0.23649  0.67218  0.40688  1.0000
  H   H106      1.0  0.11227  0.59850  0.14177  1.0000
  C   C142      1.0  0.05880  0.56608  0.11495  1.0000
  C   C143      1.0  0.21573  0.69938  0.32020  1.0000
  C   C144      1.0  0.21841  0.68857  0.32779  1.0000
  C   C145      1.0  0.14523  0.59553  0.02577  1.0000
  C   C146      1.0  0.21493  0.67115  0.24660  1.0000
  C   C147      1.0  0.18987  0.59371  0.07662  1.0000
  C   C148      1.0  0.19354  0.59657  0.34539  1.0000
  H   H107      1.0  0.21216  0.70141  0.30203  1.0000
  H   H108      1.0  0.21674  0.68229  0.31542  1.0000
  Fe  Fe19      1.0  0.22128  0.61107  0.43243  1.0000
  C   C149      1.0  0.14034  0.56438  0.05005  1.0000
  C   C150      1.0  0.16989  0.58209  0.09792  1.0000
  C   C151      1.0  0.06142  0.61868  0.47690  1.0000
  C   C152      1.0  0.08297  0.56825  0.09982  1.0000
  C   C153      1.0  0.09058  0.50928  0.45093  1.0000
  C   C154      1.0  0.16360  0.58901  0.29154  1.0000
  C   C155      1.0  0.19956  0.62624  0.23245  1.0000
  H   H109      1.0  0.03117  0.51713  0.38553  1.0000
  C   C156      1.0  0.15879  0.62958  0.31492  1.0000
  C   C157      1.0  0.17142  0.60080  0.35069  1.0000
  H   H110      1.0  0.18319  0.63184  0.36508  1.0000
  H   H111      1.0  0.08464  0.56435  0.26644  1.0000
  H   H112      1.0  0.17156  0.68015  0.04686  1.0000
  H   H113      1.0  0.22399  0.65347  0.07248  1.0000
  H   H114      1.0  0.19059  0.68267  0.35259  1.0000
  H   H115      1.0  0.04210  0.50645  0.29976  1.0000
  C   C158      1.0  0.09087  0.59876  0.35855  1.0000
  C   C159      1.0  0.09392  0.60330  0.38047  1.0000
  C   C160      1.0  0.08572  0.60678  0.39911  1.0000
  C   C161      1.0  0.07447  0.60599  0.39488  1.0000
  P   P2        1.0  0.09021  0.61385  0.42529  1.0000
  C   C162      1.0  0.07763  0.61181  0.45438  1.0000
  C   C163      1.0  0.10057  0.60713  0.44001  1.0000
  C   C164      1.0  0.10180  0.55817  0.11391  1.0000
  C   C165      1.0  0.10597  0.58406  0.09222  1.0000
  H   H116      1.0  0.02483  0.55046  0.10345  1.0000
  H   H117      1.0  0.10921  0.62253  0.45120  1.0000
  C   C166      1.0  0.10859  0.61345  0.45176  1.0000
  H   H118      1.0  0.16202  0.57968  0.33514  1.0000
  C   C167      1.0  0.05425  0.51103  0.32425  1.0000
  C   C168      1.0  0.09629  0.62943  0.40877  1.0000
  C   C169      1.0  0.09818  0.63391  0.37931  1.0000
  C   C170      1.0  0.10290  0.64593  0.36670  1.0000
  C   C171      1.0  0.10607  0.65354  0.38312  1.0000
  C   C172      1.0  0.10402  0.64922  0.41247  1.0000
  C   C173      1.0  0.09889  0.63728  0.42535  1.0000
  H   H119      1.0  0.09735  0.59612  0.34433  1.0000
  H   H120      1.0  0.10275  0.60421  0.38265  1.0000
  H   H121      1.0  0.06812  0.60903  0.40824  1.0000
  H   H122      1.0  0.13408  0.58958  0.10924  1.0000
  C   C174      1.0  0.06305  0.55604  0.11783  1.0000
  C   C175      1.0  0.00216  0.59483  0.22856  1.0000
  H   H123      1.0  0.16823  0.69327  0.46289  1.0000
  H   H124      1.0  0.19889  0.59615  0.07773  1.0000
  H   H125      1.0  0.09621  0.62823  0.36574  1.0000
  H   H126      1.0  0.10451  0.64930  0.34390  1.0000
  H   H127      1.0  0.11027  0.66274  0.37295  1.0000
  C   C176      1.0  0.18148  0.58551  0.09944  1.0000
  C   C177      1.0  0.10590  0.61190  0.99776  1.0000
  C   C178      1.0  0.06761  0.53771  0.41066  1.0000
  C   C179      1.0  0.07375  0.54023  0.38201  1.0000
  C   C180      1.0  0.07738  0.55176  0.36492  1.0000
  C   C181      1.0  0.07482  0.56093  0.37620  1.0000
  C   C182      1.0  0.06829  0.55849  0.40434  1.0000
  C   C183      1.0  0.06451  0.54692  0.42137  1.0000
  H   H128      1.0  0.18404  0.58168  0.11821  1.0000
  C   C184      1.0  0.01572  0.54261  0.04710  1.0000
  H   H129      1.0  0.17464  0.62415  0.31377  1.0000
  C   C185      1.0  0.03186  0.61017  0.24624  1.0000
  H   H130      1.0  0.06335  0.58502  0.10242  1.0000
  C   C186      1.0  0.00143  0.57065  0.31676  1.0000
  H   H131      1.0  0.08261  0.55361  0.34321  1.0000
  H   H132      1.0  0.07810  0.56992  0.36325  1.0000
  H   H133      1.0  0.06641  0.56564  0.41311  1.0000
  H   H134      1.0  0.05689  0.60211  0.00873  1.0000
  C   C187      1.0  0.01853  0.57637  0.23143  1.0000
  C   C188      1.0  0.14363  0.61550  0.02229  1.0000
  C   C189      1.0  0.12703  0.57517  0.14613  1.0000
  C   C190      1.0  0.22548  0.69442  0.36627  1.0000
  C   C191      1.0  0.05562  0.55797  0.30001  1.0000
  H   H135      1.0  0.06890  0.53884  0.01955  1.0000
  C   C192      1.0  0.15087  0.54078  0.47835  1.0000
  S   S39       1.0  0.02382  0.58043  0.14061  1.0000
  C   C193      1.0  0.03694  0.51298  0.39564  1.0000
  C   C194      1.0  0.20145  0.67261  0.21679  1.0000
  H   H136      1.0  0.00551  0.50898  0.39253  1.0000
  C   C195      1.0  0.13438  0.58081  0.11898  1.0000
  S   S40       1.0  0.21822  0.59160  0.44825  1.0000
  C   C196      1.0  0.24534  0.65618  0.19136  1.0000
  H   H137      1.0  0.05973  0.53653  0.34410  1.0000
  H   H138      1.0  0.08449  0.58693  0.08994  1.0000
  H   H139      1.0  0.16172  0.57551  0.44914  1.0000
  C   C197      1.0  0.13835  0.52986  0.45525  1.0000
  H   H140      1.0  0.10953  0.59267  0.04727  1.0000
  C   C198      1.0  0.20811  0.63990  0.99262  1.0000
  C   C199      1.0  0.03574  0.54563  0.26821  1.0000
  S   S41       1.0  0.22303  0.59730  0.09243  1.0000
  C   C200      1.0  0.09706  0.55585  0.14335  1.0000
  H   H141      1.0  0.12658  0.57502  0.99724  1.0000
  H   H142      1.0  0.21592  0.58477  0.05291  1.0000
  Fe  Fe20      1.0  0.10582  0.54155  0.43877  1.0000
  H   H143      1.0  0.15110  0.60480  0.08292  1.0000
  P   P3        1.0  0.09852  0.56976  0.08969  1.0000
  C   C201      1.0  0.17504  0.59534  0.05085  1.0000
  H   H144      1.0  0.02659  0.55649  0.14717  1.0000
  C   C202      1.0  0.00347  0.50512  0.29300  1.0000
  C   C203      1.0  0.21090  0.67775  0.19284  1.0000
  C   C204      1.0  0.00714  0.51956  0.24828  1.0000
  S   S42       1.0  0.24299  0.70326  0.43478  1.0000
  C   C205      1.0  0.04493  0.51945  0.40704  1.0000
  S   S43       1.0  0.99975  0.55813  0.12409  1.0000
  H   H145      1.0  0.15118  0.57665  0.24535  1.0000
  H   H146      1.0  0.23335  0.63231  0.26620  1.0000
  H   H147      1.0  0.23710  0.62547  0.99870  1.0000
  C   C206      1.0  0.04189  0.52322  0.30875  1.0000
  H   H148      1.0  0.02391  0.54745  0.43095  1.0000
  H   H149      1.0  0.00827  0.60685  0.30101  1.0000
  H   H150      1.0  0.03524  0.52440  0.29766  1.0000
  C   C207      1.0  0.02434  0.54385  0.12239  1.0000
  C   C208      1.0  0.18992  0.66383  0.06717  1.0000
  H   H151      1.0  0.19055  0.59556  0.38990  1.0000
  C   C209      1.0  0.07509  0.55708  0.11027  1.0000
  C   C210      1.0  0.03755  0.62181  0.24377  1.0000
  C   C211      1.0  0.23937  0.67743  0.30203  1.0000
  C   C212      1.0  0.09446  0.56202  0.04229  1.0000
  C   C213      1.0  0.22344  0.68605  0.35070  1.0000
  H   H152      1.0  0.01051  0.55433  0.01577  1.0000
  C   C214      1.0  0.06005  0.53723  0.03242  1.0000
  Fe  Fe21      1.0  0.23284  0.60905  0.11475  1.0000
  H   H153      1.0  0.01490  0.52248  0.28234  1.0000
  C   C215      1.0  0.00535  0.56744  0.36320  1.0000
  H   H154      1.0  0.16857  0.66026  0.98664  1.0000
  C   C216      1.0  0.18354  0.69240  0.29077  1.0000
  P   P4        1.0  0.08167  0.60650  0.00859  1.0000
  H   H155      1.0  0.13048  0.55989  0.47986  1.0000
  C   C217      1.0  0.05558  0.52990  0.33503  1.0000
  C   C218      1.0  0.24243  0.67474  0.27591  1.0000
  C   C219      1.0  0.19747  0.63862  0.06796  1.0000
  C   C220      1.0  0.20374  0.66102  0.38197  1.0000
  H   H156      1.0  0.15036  0.56104  0.33180  1.0000
  H   H157      1.0  0.24212  0.68648  0.30301  1.0000
  C   C221      1.0  0.22704  0.68823  0.09576  1.0000
  C   C222      1.0  0.05056  0.53269  0.02242  1.0000
  H   H158      1.0  0.04554  0.53789  0.09787  1.0000
  H   H159      1.0  0.24650  0.72749  0.06030  1.0000
  H   H160      1.0  0.08421  0.65769  0.45917  1.0000
  P   P5        1.0  0.04301  0.54574  0.31757  1.0000
  C   C223      1.0  0.04361  0.55343  0.36683  1.0000
  C   C224      1.0  0.02273  0.53197  0.12223  1.0000
  C   C225      1.0  0.17062  0.63641  0.03394  1.0000
  C   C226      1.0  0.16733  0.64663  0.02362  1.0000
  H   H161      1.0  0.20080  0.63963  0.00952  1.0000
  H   H162      1.0  0.16893  0.63911  0.22349  1.0000
  C   C227      1.0  0.02281  0.58248  0.24994  1.0000
  C   C228      1.0  0.24097  0.65757  0.14545  1.0000
  C   C229      1.0  0.03735  0.57247  0.21611  1.0000
  H   H163      1.0  0.22968  0.68347  0.17718  1.0000
  C   C230      1.0  0.03428  0.58297  0.25241  1.0000
  H   H164      1.0  0.07467  0.61952  0.11337  1.0000
  C   C231      1.0  0.03702  0.54637  0.35347  1.0000
  H   H165      1.0  0.17272  0.59913  0.03178  1.0000
  H   H166      1.0  0.09589  0.54525  0.18491  1.0000
  C   C232      1.0  0.17048  0.65656  0.09953  1.0000
  H   H167      1.0  0.00528  0.50259  0.31353  1.0000
  H   H168      1.0  0.11990  0.52764  0.47111  1.0000
  C   C233      1.0  0.05141  0.57288  0.03936  1.0000
  C   C234      1.0  0.16861  0.64479  0.23778  1.0000
  P   P6        1.0  0.06346  0.52270  0.43263  1.0000
  C   C235      1.0  0.06414  0.57908  0.28374  1.0000
  H   H169      1.0  0.16756  0.63193  0.05636  1.0000
  H   H170      1.0  0.16168  0.65004  0.03794  1.0000
  H   H171      1.0  0.24093  0.66111  0.25361  1.0000
  H   H172      1.0  0.06203  0.62369  0.08108  1.0000
  C   C236      1.0  0.16658  0.58693  0.07348  1.0000
  S   S44       1.0  0.23987  0.72441  0.46657  1.0000
  C   C237      1.0  0.18612  0.67278  0.05154  1.0000
  H   H173      1.0  0.21834  0.59086  0.00064  1.0000
  H   H174      1.0  0.03598  0.61392  0.18197  1.0000
  C   C238      1.0  0.07146  0.60156  0.37267  1.0000
  H   H175      1.0  0.01842  0.62745  0.29647  1.0000
  C   C239      1.0  0.21776  0.70763  0.33586  1.0000
  C   C240      1.0  0.23253  0.66861  0.32635  1.0000
  C   C241      1.0  0.19691  0.62978  0.33268  1.0000
  C   C242      1.0  0.15005  0.56765  0.28836  1.0000
  C   C243      1.0  0.02584  0.57153  0.21435  1.0000
  H   H176      1.0  0.21111  0.65993  0.11184  1.0000
  C   C244      1.0  0.16663  0.66515  0.08310  1.0000
  S   S45       1.0  0.21404  0.71330  0.42831  1.0000
  C   C245      1.0  0.11612  0.60809  0.46445  1.0000
  H   H177      1.0  0.14626  0.62243  0.05769  1.0000
  H   H178      1.0  0.04948  0.56523  0.12159  1.0000
  C   C246      1.0  0.05342  0.59707  0.15956  1.0000
  H   H179      1.0  0.13243  0.56490  0.06400  1.0000
  C   C247      1.0  0.14160  0.56345  0.11837  1.0000
  H   H180      1.0  0.01063  0.54785  0.24911  1.0000
  C   C248      1.0  0.14805  0.59499  0.05200  1.0000
  H   H181      1.0  0.05240  0.55867  0.35585  1.0000
  H   H182      1.0  0.18055  0.69955  0.27998  1.0000
  H   H183      1.0  0.11611  0.53643  0.11452  1.0000
  H   H184      1.0  0.14719  0.55875  0.10799  1.0000
  H   H185      1.0  0.14469  0.55941  0.28739  1.0000
  H   H186      1.0  0.02085  0.53340  0.35934  1.0000
  H   H187      1.0  0.22911  0.64551  0.29622  1.0000
  C   C249      1.0  0.03275  0.62801  0.26196  1.0000
  C   C250      1.0  0.16139  0.57047  0.03142  1.0000
  H   H188      1.0  0.03014  0.54470  0.23046  1.0000
  H   H189      1.0  0.17102  0.59935  0.39483  1.0000
  C   C251      1.0  0.09584  0.60393  0.99681  1.0000
  C   C252      1.0  0.18665  0.59863  0.05233  1.0000
  H   H190      1.0  0.21320  0.68807  0.43346  1.0000
  H   H191      1.0  0.13115  0.55125  0.03308  1.0000
  H   H192      1.0  0.02164  0.60027  0.16648  1.0000
  C   C253      1.0  0.05446  0.56951  0.29721  1.0000
  C   C254      1.0  0.00580  0.50663  0.09798  1.0000
  C   C255      1.0  0.05017  0.60590  0.17141  1.0000
  C   C256      1.0  0.22513  0.69237  0.06913  1.0000
  C   C257      1.0  0.14871  0.60489  0.06305  1.0000
  H   H193      1.0  0.02267  0.56719  0.19932  1.0000
  C   C258      1.0  0.15123  0.57143  0.04945  1.0000
  H   H194      1.0  0.09009  0.63207  0.99275  1.0000
  H   H195      1.0  0.15760  0.66559  0.08911  1.0000
  H   H196      1.0  0.23470  0.73421  0.12297  1.0000
  C   C259      1.0  0.21496  0.66896  0.09964  1.0000
  C   C260      1.0  0.11193  0.59709  0.12104  1.0000
  H   H197      1.0  0.13538  0.61592  0.29536  1.0000
  H   H198      1.0  0.19192  0.61979  0.07537  1.0000
  C   C261      1.0  0.18708  0.59704  0.37158  1.0000
  H   H199      1.0  0.10262  0.57914  0.13827  1.0000
  H   H200      1.0  0.09420  0.59007  0.43260  1.0000
  H   H201      1.0  0.02439  0.59216  0.31790  1.0000
  C   C262      1.0  0.16062  0.56268  0.01409  1.0000
  C   C263      1.0  0.23358  0.74097  0.10629  1.0000
  H   H202      1.0  0.22908  0.70143  0.05730  1.0000
  H   H203      1.0  0.06534  0.61855  0.03487  1.0000
  P   P7        1.0  0.01376  0.58960  0.27055  1.0000
  H   H204      1.0  0.16274  0.60216  0.35325  1.0000
  C   C264      1.0  0.01243  0.53524  0.07484  1.0000
  H   H205      1.0  0.05211  0.53077  0.00181  1.0000
  C   C265      1.0  0.07503  0.57717  0.27305  1.0000
  H   H206      1.0  0.14828  0.60301  0.28545  1.0000
  C   C266      1.0  0.11110  0.54210  0.12258  1.0000
  C   C267      1.0  0.14972  0.55583  0.01452  1.0000
  C   C268      1.0  0.17825  0.65662  0.26469  1.0000
  H   H207      1.0  0.07749  0.59482  0.33683  1.0000
  C   C269      1.0  0.14409  0.61780  0.29874  1.0000
  H   H208      1.0  0.11221  0.55239  0.08115  1.0000
  C   C270      1.0  0.03038  0.59918  0.16495  1.0000
  C   C271      1.0  0.15149  0.61054  0.29301  1.0000
  H   H209      1.0  0.14198  0.63279  0.31476  1.0000
  H   H210      1.0  0.20199  0.59469  0.34367  1.0000
  C   C272      1.0  0.22787  0.60860  0.99610  1.0000
  Fe  Fe22      1.0  0.00411  0.57079  0.15077  1.0000
  C   C273      1.0  0.14774  0.62728  0.30977  1.0000
  C   C274      1.0  0.17799  0.60070  0.32402  1.0000
  H   H211      1.0  0.08556  0.55797  0.05470  1.0000
  C   C275      1.0  0.18905  0.59841  0.32158  1.0000
  H   H212      1.0  0.19312  0.61109  0.46009  1.0000
  H   H213      1.0  0.21292  0.62251  0.20220  1.0000
  H   H214      1.0  0.15712  0.53421  0.44250  1.0000
  H   H215      1.0  0.06287  0.60120  0.36909  1.0000
  H   H216      1.0  0.20365  0.63558  0.22651  1.0000
  C   C276      1.0  0.23797  0.75041  0.99905  1.0000
  C   C277      1.0  0.18943  0.60203  0.24838  1.0000
  S   S46       1.0  0.12123  0.64311  0.98363  1.0000
  H   H217      1.0  0.20391  0.60109  0.21615  1.0000
  H   H218      1.0  0.18592  0.59258  0.25495  1.0000
  C   C278      1.0  0.16266  0.61282  0.29803  1.0000
  C   C279      1.0  0.20478  0.61889  0.21862  1.0000
  C   C280      1.0  0.19968  0.60681  0.22647  1.0000
  H   H219      1.0  0.18564  0.62724  0.26550  1.0000
  P   P8        1.0  0.17196  0.60291  0.29364  1.0000
  C   C281      1.0  0.18930  0.62148  0.25442  1.0000
  C   C282      1.0  0.18415  0.60933  0.26259  1.0000
  H   H220      1.0  0.21573  0.71603  0.33000  1.0000
  C   C283      1.0  0.23914  0.67463  0.37705  1.0000
  C   C284      1.0  0.14950  0.53468  0.45768  1.0000
  H   H221      1.0  0.19423  0.59797  0.30151  1.0000
  C   C285      1.0  0.14320  0.60580  0.01087  1.0000
  C   C286      1.0  0.16624  0.62244  0.30893  1.0000
  H   H222      1.0  0.16145  0.63677  0.32411  1.0000
  H   H223      1.0  0.24320  0.67311  0.44358  1.0000
  C   C287      1.0  0.03888  0.55380  0.39469  1.0000
  C   C288      1.0  0.07615  0.51666  0.42966  1.0000
  S   S47       1.0  0.24256  0.60100  0.14402  1.0000
  C   C289      1.0  0.01747  0.51218  0.09593  1.0000
  C   C290      1.0  0.10882  0.55119  0.10368  1.0000
  H   H224      1.0  0.12091  0.61492  0.09862  1.0000
  H   H225      1.0  0.16318  0.59550  0.24789  1.0000
  C   C291      1.0  0.15988  0.57921  0.31520  1.0000
  H   H226      1.0  0.14944  0.65654  0.27573  1.0000
  C   C292      1.0  0.24575  0.66974  0.13800  1.0000
  C   C293      1.0  0.02136  0.60458  0.26718  1.0000
  C   C294      1.0  0.11672  0.60638  0.09672  1.0000
  H   H227      1.0  0.23657  0.74253  0.01583  1.0000
  C   C295      1.0  0.16050  0.58800  0.26625  1.0000
  H   H228      1.0  0.16363  0.57563  0.11578  1.0000
  P   P9        1.0  0.22751  0.67234  0.35939  1.0000
  C   C296      1.0  0.15320  0.56856  0.31347  1.0000
  H   H229      1.0  0.06997  0.51324  0.03118  1.0000
  H   H230      1.0  0.07822  0.54918  0.11300  1.0000
  C   C297      1.0  0.05227  0.50235  0.42033  1.0000
  C   C298      1.0  0.10652  0.54002  0.15185  1.0000
  C   C299      1.0  0.10650  0.58602  0.11888  1.0000
  C   C300      1.0  0.06659  0.57720  0.10446  1.0000
  C   C301      1.0  0.22263  0.70515  0.35885  1.0000
  H   H231      1.0  0.05056  0.57886  0.23622  1.0000
  C   C302      1.0  0.18926  0.67408  0.29181  1.0000
  C   C303      1.0  0.15371  0.57736  0.26473  1.0000
  H   H232      1.0  0.09109  0.56065  0.15181  1.0000
  H   H233      1.0  0.04425  0.54438  0.25932  1.0000
  H   H234      1.0  0.09451  0.50786  0.46869  1.0000
  H   H235      1.0  0.18954  0.63998  0.06250  1.0000
  C   C304      1.0  0.09964  0.54700  0.16222  1.0000
  Fe  Fe23      1.0  0.23920  0.63236  0.12898  1.0000
  H   H236      1.0  0.12134  0.57966  0.15711  1.0000
  C   C305      1.0  0.20341  0.66895  0.24377  1.0000
  C   C306      1.0  0.08530  0.61218  0.08496  1.0000
  H   H237      1.0  0.09380  0.50615  0.38367  1.0000
  H   H238      1.0  0.09410  0.60504  0.05356  1.0000
  H   H239      1.0  0.06224  0.59611  0.15741  1.0000
  C   C307      1.0  0.02591  0.53921  0.36894  1.0000
  C   C308      1.0  0.10268  0.56821  0.05378  1.0000
  C   C309      1.0  0.04524  0.58942  0.15050  1.0000
  C   C310      1.0  0.11432  0.57277  0.03744  1.0000
  C   C311      1.0  0.18561  0.68351  0.27769  1.0000
  Fe  Fe24      1.0  0.23317  0.71726  0.43227  1.0000
  H   H240      1.0  0.24470  0.57086  0.04621  1.0000
  H   H241      1.0  0.00559  0.55120  0.29704  1.0000
  C   C312      1.0  0.19884  0.62719  0.07489  1.0000
  C   C313      1.0  0.07004  0.59321  0.01832  1.0000
  H   H242      1.0  0.18675  0.64727  0.23746  1.0000
  C   C314      1.0  0.08014  0.61157  0.04053  1.0000
  H   H243      1.0  0.24044  0.58893  0.30076  1.0000
  H   H244      1.0  0.13398  0.54889  0.15559  1.0000
  H   H245      1.0  0.12233  0.61316  0.47313  1.0000
  H   H246      1.0  0.16808  0.61960  0.46135  1.0000
  H   H247      1.0  0.09331  0.51093  0.33487  1.0000
  H   H248      1.0  0.01239  0.53448  0.40811  1.0000
  H   H249      1.0  0.13737  0.52563  0.43832  1.0000
  H   H250      1.0  0.15964  0.54489  0.47873  1.0000
  C   C315      1.0  0.02762  0.54702  0.40951  1.0000
  C   C316      1.0  0.22059  0.59367  0.04102  1.0000
  C   C317      1.0  0.07194  0.58241  0.03088  1.0000
  C   C318      1.0  0.03914  0.53010  0.03951  1.0000
  C   C319      1.0  0.05815  0.53909  0.05963  1.0000
  H   H251      1.0  0.02277  0.52063  0.19085  1.0000
  H   H252      1.0  0.19029  0.65479  0.47168  1.0000
  C   C320      1.0  0.02221  0.62258  0.28259  1.0000
  C   C321      1.0  0.20344  0.63399  0.30439  1.0000
  H   H253      1.0  0.04393  0.50549  0.47660  1.0000
  H   H254      1.0  0.00317  0.56234  0.38511  1.0000
  C   C322      1.0  0.06654  0.55616  0.28841  1.0000
  C   C323      1.0  0.22234  0.67947  0.19570  1.0000
  H   H255      1.0  0.01156  0.52814  0.23415  1.0000
  H   H256      1.0  0.04604  0.57111  0.30518  1.0000
  C   C324      1.0  0.02314  0.52712  0.17179  1.0000
  C   C325      1.0  0.19380  0.64987  0.29775  1.0000
  H   H257      1.0  0.13200  0.57959  0.45188  1.0000
  H   H258      1.0  0.12148  0.59219  0.47573  1.0000
  C   C326      1.0  0.21045  0.66708  0.01870  1.0000
  H   H259      1.0  0.05935  0.54530  0.44289  1.0000
  C   C327      1.0  0.02114  0.53970  0.39665  1.0000
  H   H260      1.0  0.02428  0.54394  0.03332  1.0000
  H   H261      1.0  0.06767  0.54745  0.28878  1.0000
  C   C328      1.0  0.07622  0.56574  0.27542  1.0000
  H   H262      1.0  0.23257  0.69409  0.10439  1.0000
  C   C329      1.0  0.13959  0.55664  0.03262  1.0000
  C   C330      1.0  0.12692  0.56372  0.15932  1.0000
  C   C331      1.0  0.22197  0.59708  0.01145  1.0000
  H   H263      1.0  0.20936  0.68051  0.17206  1.0000
  C   C332      1.0  0.22892  0.65705  0.32402  1.0000
  C   C333      1.0  0.02209  0.52359  0.14715  1.0000
  H   H264      1.0  0.08257  0.58452  0.26236  1.0000
  H   H265      1.0  0.04418  0.56509  0.04813  1.0000
  C   C334      1.0  0.02770  0.54575  0.25172  1.0000
  H   H266      1.0  0.22614  0.63333  0.08529  1.0000
  C   C335      1.0  0.24908  0.71915  0.30671  1.0000
  C   C336      1.0  0.13681  0.57854  0.46796  1.0000
  H   H267      1.0  0.04059  0.58417  0.02693  1.0000
  H   H268      1.0  0.21691  0.68819  0.03685  1.0000
  H   H269      1.0  0.20704  0.64697  0.26508  1.0000
  H   H270      1.0  0.16847  0.56197  0.00008  1.0000
  H   H271      1.0  0.22066  0.64552  0.01538  1.0000
  P   P10       1.0  0.20492  0.66304  0.05690  1.0000
  S   S48       1.0  0.22327  0.62385  0.45997  1.0000
  C   C337      1.0  0.15812  0.64751  0.24824  1.0000
  C   C338      1.0  0.21525  0.66055  0.38189  1.0000
  H   H272      1.0  0.24442  0.58647  0.34834  1.0000
  C   C339      1.0  0.17866  0.64935  0.24590  1.0000
  C   C340      1.0  0.20779  0.64080  0.41332  1.0000
  C   C341      1.0  0.09778  0.56070  0.01472  1.0000
  C   C342      1.0  0.18691  0.64527  0.32587  1.0000
  C   C343      1.0  0.10026  0.59527  0.44132  1.0000
  S   S49       1.0  0.23675  0.65066  0.12003  1.0000
  C   C344      1.0  0.16856  0.68465  0.47412  1.0000
  C   C345      1.0  0.04674  0.53671  0.07657  1.0000
  C   C346      1.0  0.22255  0.67114  0.00646  1.0000
  H   H273      1.0  0.06611  0.51818  0.34690  1.0000
  H   H274      1.0  0.22861  0.67211  0.01967  1.0000
  H   H275      1.0  0.01972  0.51952  0.44377  1.0000
  H   H276      1.0  0.19823  0.62210  0.34614  1.0000
  C   C347      1.0  0.99962  0.50378  0.41270  1.0000
  P   P11       1.0  0.02242  0.52796  0.08940  1.0000
  H   H277      1.0  0.14196  0.62343  0.01077  1.0000
  C   C348      1.0  0.17776  0.63193  0.01532  1.0000
  H   H278      1.0  0.18909  0.63381  0.42452  1.0000
  C   C349      1.0  0.01035  0.58111  0.30701  1.0000
  C   C350      1.0  0.20286  0.66557  0.00102  1.0000
  H   H279      1.0  0.02085  0.51436  0.14778  1.0000
  H   H280      1.0  0.24141  0.72239  0.30573  1.0000
  H   H281      1.0  0.21025  0.61641  0.08672  1.0000
  C   C351      1.0  0.00898  0.51637  0.27535  1.0000
  H   H282      1.0  0.01977  0.55146  0.32617  1.0000
  P   P12       1.0  0.19130  0.66242  0.27495  1.0000
  C   C352      1.0  0.18914  0.68283  0.33173  1.0000
  H   H283      1.0  0.23640  0.64153  0.17868  1.0000
  H   H284      1.0  0.22754  0.66866  0.41954  1.0000
  C   C353      1.0  0.20194  0.64400  0.28697  1.0000
  H   H285      1.0  0.16992  0.57569  0.03054  1.0000
  C   C354      1.0  0.06912  0.61973  0.07471  1.0000
  C   C355      1.0  0.15763  0.65462  0.26717  1.0000
  H   H286      1.0  0.18018  0.64926  0.33423  1.0000
  H   H287      1.0  0.22937  0.69282  0.38399  1.0000
  H   H288      1.0  0.14647  0.61338  0.47567  1.0000
  H   H289      1.0  0.23320  0.57339  0.01090  1.0000
  S   S50       1.0  0.24760  0.62520  0.09387  1.0000
  H   H290      1.0  0.23325  0.67779  0.22464  1.0000
  S   S51       1.0  0.24827  0.58592  0.40718  1.0000
  C   C356      1.0  0.07105  0.61684  0.04855  1.0000
  C   C357      1.0  0.22435  0.67624  0.22257  1.0000
  H   H291      1.0  0.06418  0.56406  0.05127  1.0000
  C   C358      1.0  0.22519  0.60171  0.05528  1.0000
  H   H292      1.0  0.08048  0.58185  0.03376  1.0000
  H   H293      1.0  0.22601  0.64962  0.39760  1.0000
  H   H294      1.0  0.04394  0.55941  0.40472  1.0000
  C   C359      1.0  0.19638  0.64128  0.41292  1.0000
  Fe  Fe25      1.0  0.23484  0.61025  0.17494  1.0000
  C   C360      1.0  0.00139  0.53419  0.09243  1.0000
  C   C361      1.0  0.21335  0.67294  0.07245  1.0000
  C   C362      1.0  0.19436  0.65138  0.39724  1.0000
  H   H295      1.0  0.22362  0.64999  0.34209  1.0000
  H   H296      1.0  0.12113  0.55937  0.18027  1.0000
  H   H297      1.0  0.10523  0.61937  0.00640  1.0000
  H   H298      1.0  0.18550  0.65173  0.39692  1.0000
  C   C363      1.0  0.20636  0.64822  0.06769  1.0000
  C   C364      1.0  0.23081  0.62290  0.26932  1.0000
  S   S52       1.0  0.22368  0.61682  0.14748  1.0000
  C   C365      1.0  0.17125  0.65242  0.99472  1.0000
  C   C366      1.0  0.21813  0.63479  0.08041  1.0000
  H   H299      1.0  0.07360  0.62814  0.43697  1.0000
  H   H300      1.0  0.16678  0.66411  0.29130  1.0000
  H   H301      1.0  0.21662  0.66888  0.26735  1.0000
  H   H302      1.0  0.18418  0.68389  0.25675  1.0000
  S   S53       1.0  0.23607  0.61299  0.39483  1.0000
  C   C367      1.0  0.23195  0.65443  0.29784  1.0000
  C   C368      1.0  0.22186  0.67656  0.11111  1.0000
  C   C369      1.0  0.03712  0.53231  0.06652  1.0000
  H   H303      1.0  0.09714  0.63414  0.44818  1.0000
  C   C370      1.0  0.04941  0.58363  0.02731  1.0000
  C   C371      1.0  0.12851  0.53102  0.47372  1.0000
  C   C372      1.0  0.24042  0.65086  0.17249  1.0000
  C   C373      1.0  0.10788  0.58994  0.45386  1.0000
  H   H304      1.0  0.03444  0.50930  0.09827  1.0000
  H   H305      1.0  0.10000  0.65038  0.47644  1.0000
  C   C374      1.0  0.11761  0.57142  0.00988  1.0000
  H   H306      1.0  0.06553  0.54194  0.06804  1.0000
  H   H307      1.0  0.24606  0.59265  0.03039  1.0000
  H   H308      1.0  0.24727  0.56223  0.09226  1.0000
  C   C375      1.0  0.01716  0.58436  0.32524  1.0000
  H   H309      1.0  0.24884  0.72024  0.01722  1.0000
  C   C376      1.0  0.08206  0.65075  0.47860  1.0000
  H   H310      1.0  0.10779  0.58089  0.45404  1.0000
  H   H311      1.0  0.01974  0.58025  0.36745  1.0000
  H   H312      1.0  0.05647  0.62526  0.47678  1.0000
  C   C377      1.0  0.22304  0.74425  0.10918  1.0000
  H   H313      1.0  0.09147  0.55574  0.00610  1.0000
  C   C378      1.0  0.23864  0.66325  0.27381  1.0000
  H   H314      1.0  0.24537  0.65086  0.21175  1.0000
  H   H315      1.0  0.24864  0.63856  0.32360  1.0000
  H   H316      1.0  0.03371  0.52672  0.47037  1.0000
  C   C379      1.0  0.10933  0.56540  0.99853  1.0000
  H   H317      1.0  0.14917  0.54988  0.00084  1.0000
  C   C380      1.0  0.02548  0.50530  0.09892  1.0000
  H   H318      1.0  0.14145  0.60630  0.99019  1.0000
  H   H319      1.0  0.07057  0.53630  0.47177  1.0000
  H   H320      1.0  0.14506  0.59696  0.45852  1.0000
  H   H321      1.0  0.23636  0.58318  0.46952  1.0000
  H   H322      1.0  0.15378  0.67550  0.46239  1.0000
  C   C381      1.0  0.18191  0.63783  0.98630  1.0000
  C   C382      1.0  0.01651  0.52040  0.46501  1.0000
  C   C383      1.0  0.21939  0.64336  0.99600  1.0000
  C   C384      1.0  0.09503  0.50615  0.42619  1.0000
  S   S54       1.0  0.24756  0.73096  0.39767  1.0000
  H   H323      1.0  0.24916  0.52151  0.05904  1.0000
  C   C385      1.0  0.16041  0.67464  0.47386  1.0000
  C   C386      1.0  0.05739  0.52149  0.46987  1.0000
  H   H324      1.0  0.99932  0.51155  0.09637  1.0000
  C   C387      1.0  0.09707  0.59501  0.98297  1.0000
  H   H325      1.0  0.24763  0.68160  0.25717  1.0000
  S   S55       1.0  0.08868  0.52483  0.98090  1.0000
  C   C388      1.0  0.16328  0.62312  0.47707  1.0000
  C   C389      1.0  0.00449  0.51782  0.47714  1.0000
  H   H326      1.0  0.24618  0.67497  0.11711  1.0000
  H   H327      1.0  0.24470  0.57368  0.12800  1.0000
  H   H328      1.0  0.24785  0.71961  0.35034  1.0000
  C   C390      1.0  0.02440  0.52433  0.48010  1.0000
  Fe  Fe26      1.0  0.15100  0.63099  0.91995  1.0000
  S   S56       1.0  0.15900  0.64456  0.87853  1.0000
  S   S57       1.0  0.15421  0.61302  0.92973  1.0000
  Fe  Fe27      1.0  0.13654  0.64581  0.94519  1.0000
  S   S58       1.0  0.14326  0.66059  0.90458  1.0000
  H   H329      1.0  0.16646  0.61247  0.86241  1.0000
  Fe  Fe28      1.0  0.14066  0.64647  0.88029  1.0000
  S   S59       1.0  0.13201  0.64734  0.84191  1.0000
  Fe  Fe29      1.0  0.16119  0.65752  0.90575  1.0000
  S   S60       1.0  0.17955  0.67078  0.89359  1.0000
  S   S61       1.0  0.13277  0.63230  0.92099  1.0000
  S   S62       1.0  0.15435  0.64337  0.94717  1.0000
  Fe  Fe30      1.0  0.07525  0.51130  0.65096  1.0000
  C   C391      1.0  0.14090  0.60183  0.75941  1.0000
  H   H330      1.0  0.23626  0.67728  0.96766  1.0000
  Fe  Fe31      1.0  0.06491  0.52984  0.66981  1.0000
  S   S63       1.0  0.05356  0.51747  0.71076  1.0000
  S   S64       1.0  0.06435  0.54880  0.65818  1.0000
  Fe  Fe32      1.0  0.06982  0.51150  0.71516  1.0000
  H   H331      1.0  0.02737  0.50310  0.63204  1.0000
  S   S65       1.0  0.24031  0.60336  0.89335  1.0000
  H   H332      1.0  0.10005  0.59802  0.91632  1.0000
  S   S66       1.0  0.08123  0.52447  0.67477  1.0000
  S   S67       1.0  0.05961  0.51760  0.64364  1.0000
  Fe  Fe33      1.0  0.08235  0.61134  0.68670  1.0000
  S   S68       1.0  0.09409  0.60983  0.64699  1.0000
  S   S69       1.0  0.06207  0.60667  0.69486  1.0000
  Fe  Fe34      1.0  0.10362  0.61875  0.71363  1.0000
  S   S70       1.0  0.11628  0.61709  0.67525  1.0000
  S   S71       1.0  0.11156  0.62215  0.75163  1.0000
  Fe  Fe35      1.0  0.10637  0.62629  0.64812  1.0000
  S   S72       1.0  0.11739  0.64063  0.60846  1.0000
  Fe  Fe36      1.0  0.10302  0.60083  0.67702  1.0000
  S   S73       1.0  0.10816  0.58445  0.67050  1.0000
  S   S74       1.0  0.09413  0.62889  0.68623  1.0000
  S   S75       1.0  0.09088  0.60147  0.71696  1.0000
  Fe  Fe37      1.0  0.11232  0.56058  0.90629  1.0000
  S   S76       1.0  0.09607  0.54701  0.90948  1.0000
  S   S77       1.0  0.11255  0.57930  0.90600  1.0000
  Fe  Fe38      1.0  0.12808  0.54438  0.90160  1.0000
  S   S78       1.0  0.11294  0.52886  0.90542  1.0000
  S   S79       1.0  0.14788  0.54635  0.88831  1.0000
  Fe  Fe39      1.0  0.10658  0.54112  0.87440  1.0000
  S   S80       1.0  0.10161  0.53942  0.83180  1.0000
  Fe  Fe40      1.0  0.10297  0.53547  0.94043  1.0000
  C   C392      1.0  0.19121  0.60501  0.83360  1.0000
  S   S81       1.0  0.12229  0.55607  0.86896  1.0000
  S   S82       1.0  0.11861  0.54963  0.93896  1.0000
  Fe  Fe41      1.0  0.23497  0.58379  0.90385  1.0000
  H   H333      1.0  0.01657  0.51026  0.72928  1.0000
  Fe  Fe42      1.0  0.20867  0.58303  0.91481  1.0000
  S   S83       1.0  0.21286  0.60284  0.90537  1.0000
  H   H334      1.0  0.15502  0.58879  0.63227  1.0000
  Fe  Fe43      1.0  0.22690  0.60267  0.86836  1.0000
  S   S84       1.0  0.23213  0.61623  0.82610  1.0000
  C   C393      1.0  0.01526  0.54468  0.56210  1.0000
  H   H335      1.0  0.23674  0.67980  0.81939  1.0000
  S   S85       1.0  0.22228  0.58303  0.87600  1.0000
  C   C394      1.0  0.16102  0.66349  0.48763  1.0000
  H   H336      1.0  0.19782  0.59252  0.97133  1.0000
  C   C395      1.0  0.24425  0.68079  0.80212  1.0000
  S   S86       1.0  0.22470  0.62101  0.64388  1.0000
  H   H337      1.0  0.14560  0.63654  0.53033  1.0000
  Fe  Fe44      1.0  0.23110  0.61006  0.67663  1.0000
  S   S87       1.0  0.21889  0.60082  0.71986  1.0000
  Fe  Fe45      1.0  0.23249  0.61140  0.61385  1.0000
  S   S88       1.0  0.22136  0.60229  0.58917  1.0000
  H   H338      1.0  0.16277  0.59551  0.97530  1.0000
  C   C396      1.0  0.19111  0.61759  0.49756  1.0000
  H   H339      1.0  0.09470  0.59817  0.51389  1.0000
  C   C397      1.0  0.20177  0.64538  0.53803  1.0000
  C   C398      1.0  0.21269  0.68540  0.55259  1.0000
  C   C399      1.0  0.04202  0.58336  0.78599  1.0000
  C   C400      1.0  0.04926  0.51851  0.52871  1.0000
  C   C401      1.0  0.00576  0.53880  0.55374  1.0000
  C   C402      1.0  0.19423  0.60078  0.85873  1.0000
  C   C403      1.0  0.14184  0.60576  0.57703  1.0000
  C   C404      1.0  0.12981  0.53695  0.49472  1.0000
  H   H340      1.0  0.03353  0.52201  0.69195  1.0000
  H   H341      1.0  0.16674  0.56990  0.80991  1.0000
  C   C405      1.0  0.01723  0.50875  0.57298  1.0000
  H   H342      1.0  0.15371  0.64987  0.79374  1.0000
  H   H343      1.0  0.14926  0.55087  0.66057  1.0000
  H   H344      1.0  0.02649  0.52831  0.51928  1.0000
  C   C406      1.0  0.18821  0.58885  0.71637  1.0000
  C   C407      1.0  0.05805  0.60861  0.49955  1.0000
  C   C408      1.0  0.03400  0.60396  0.59565  1.0000
  H   H345      1.0  0.23526  0.68256  0.53691  1.0000
  C   C409      1.0  0.18518  0.63206  0.91230  1.0000
  H   H346      1.0  0.23057  0.63732  0.85798  1.0000
  C   C410      1.0  0.18475  0.63706  0.88476  1.0000
  H   H347      1.0  0.06355  0.64930  0.48708  1.0000
  H   H348      1.0  0.12946  0.55274  0.65719  1.0000
  C   C411      1.0  0.09139  0.59994  0.53410  1.0000
  C   C412      1.0  0.22850  0.61177  0.79675  1.0000
  C   C413      1.0  0.23347  0.61925  0.76936  1.0000
  C   C414      1.0  0.23074  0.61587  0.74558  1.0000
  C   C415      1.0  0.22283  0.60511  0.74915  1.0000
  C   C416      1.0  0.21773  0.59772  0.77659  1.0000
  C   C417      1.0  0.22069  0.60096  0.80030  1.0000
  C   C418      1.0  0.10237  0.57250  0.83931  1.0000
  H   H349      1.0  0.21162  0.58937  0.77949  1.0000
  H   H350      1.0  0.21692  0.59508  0.82126  1.0000
  C   C419      1.0  0.16695  0.55867  0.51164  1.0000
  C   C420      1.0  0.21665  0.60622  0.50976  1.0000
  C   C421      1.0  0.21640  0.60156  0.53827  1.0000
  C   C422      1.0  0.22242  0.60841  0.55301  1.0000
  C   C423      1.0  0.22862  0.62002  0.53912  1.0000
  C   C424      1.0  0.22875  0.62474  0.51064  1.0000
  C   C425      1.0  0.02245  0.50656  0.61793  1.0000
  H   H351      1.0  0.21153  0.59259  0.54894  1.0000
  H   H352      1.0  0.23329  0.62536  0.55030  1.0000
  C   C426      1.0  0.22288  0.61780  0.49577  1.0000
  C   C427      1.0  0.15915  0.55509  0.89921  1.0000
  C   C428      1.0  0.17094  0.55673  0.88493  1.0000
  C   C429      1.0  0.18018  0.56294  0.89389  1.0000
  C   C430      1.0  0.17775  0.56744  0.91764  1.0000
  C   C431      1.0  0.15147  0.59359  0.61665  1.0000
  C   C432      1.0  0.15672  0.56001  0.92226  1.0000
  H   H353      1.0  0.17296  0.55296  0.86714  1.0000
  H   H354      1.0  0.18916  0.56384  0.88306  1.0000
  C   C433      1.0  0.17753  0.60531  0.88586  1.0000
  C   C434      1.0  0.15360  0.60553  0.56929  1.0000
  C   C435      1.0  0.09414  0.53062  0.81207  1.0000
  C   C436      1.0  0.08640  0.51949  0.82487  1.0000
  C   C437      1.0  0.08057  0.51307  0.80852  1.0000
  C   C438      1.0  0.08224  0.51758  0.77897  1.0000
  C   C439      1.0  0.09003  0.52869  0.76615  1.0000
  C   C440      1.0  0.09589  0.53509  0.78248  1.0000
  H   H355      1.0  0.08490  0.51578  0.84744  1.0000
  C   C441      1.0  0.13419  0.55779  0.66893  1.0000
  H   H356      1.0  0.09157  0.53238  0.74355  1.0000
  H   H357      1.0  0.10195  0.54354  0.77194  1.0000
  C   C442      1.0  0.08958  0.51675  0.57694  1.0000
  C   C443      1.0  0.09677  0.51403  0.55440  1.0000
  C   C444      1.0  0.09831  0.52012  0.52579  1.0000
  C   C445      1.0  0.17768  0.55897  0.51826  1.0000
  C   C446      1.0  0.08568  0.53188  0.54190  1.0000
  C   C447      1.0  0.08412  0.52580  0.57045  1.0000
  H   H358      1.0  0.21853  0.64883  0.50819  1.0000
  C   C448      1.0  0.01734  0.55676  0.55966  1.0000
  H   H359      1.0  0.04495  0.55810  0.82605  1.0000
  H   H360      1.0  0.07868  0.52813  0.58743  1.0000
  H   H361      1.0  0.08139  0.53886  0.53732  1.0000
  C   C449      1.0  0.07695  0.55911  0.65823  1.0000
  C   C450      1.0  0.07594  0.56994  0.66316  1.0000
  C   C451      1.0  0.08545  0.57765  0.66728  1.0000
  C   C452      1.0  0.09624  0.57484  0.66504  1.0000
  C   C453      1.0  0.09746  0.56431  0.65843  1.0000
  C   C454      1.0  0.08782  0.55644  0.65515  1.0000
  H   H362      1.0  0.06762  0.57217  0.66491  1.0000
  H   H363      1.0  0.08431  0.58564  0.67272  1.0000
  H   H364      1.0  0.10579  0.56214  0.65609  1.0000
  H   H365      1.0  0.08883  0.54836  0.65008  1.0000
  C   C455      1.0  0.18903  0.67979  0.90894  1.0000
  C   C456      1.0  0.20078  0.68513  0.89358  1.0000
  C   C457      1.0  0.20855  0.69245  0.90442  1.0000
  C   C458      1.0  0.20465  0.69483  0.93069  1.0000
  C   C459      1.0  0.19291  0.68947  0.94607  1.0000
  C   C460      1.0  0.18521  0.68197  0.93546  1.0000
  H   H366      1.0  0.20387  0.68382  0.87278  1.0000
  H   H367      1.0  0.21745  0.69657  0.89201  1.0000
  H   H368      1.0  0.17621  0.67821  0.94740  1.0000
  C   C461      1.0  0.12091  0.63906  0.51508  1.0000
  C   C462      1.0  0.11395  0.62943  0.53749  1.0000
  C   C463      1.0  0.11304  0.62962  0.56613  1.0000
  C   C464      1.0  0.11905  0.63949  0.57276  1.0000
  C   C465      1.0  0.12634  0.64896  0.55035  1.0000
  C   C466      1.0  0.12730  0.64874  0.52168  1.0000
  H   H369      1.0  0.10899  0.62189  0.53269  1.0000
  H   H370      1.0  0.10739  0.62227  0.58305  1.0000
  H   H371      1.0  0.13099  0.65667  0.55516  1.0000
  H   H372      1.0  0.13254  0.65630  0.50475  1.0000
  C   C467      1.0  0.12615  0.63987  0.81764  1.0000
  C   C468      1.0  0.12613  0.62818  0.81762  1.0000
  C   C469      1.0  0.12173  0.62296  0.79738  1.0000
  C   C470      1.0  0.11705  0.62917  0.77701  1.0000
  C   C471      1.0  0.11698  0.64079  0.77726  1.0000
  C   C472      1.0  0.12149  0.64605  0.79721  1.0000
  H   H373      1.0  0.12967  0.62321  0.83297  1.0000
  H   H374      1.0  0.12204  0.61406  0.79731  1.0000
  H   H375      1.0  0.11351  0.64582  0.76188  1.0000
  H   H376      1.0  0.12139  0.65507  0.79670  1.0000
  C   C473      1.0  0.14444  0.60330  0.91818  1.0000
  C   C474      1.0  0.14218  0.59112  0.92914  1.0000
  C   C475      1.0  0.13282  0.58351  0.92396  1.0000
  C   C476      1.0  0.12567  0.58812  0.90817  1.0000
  C   C477      1.0  0.12844  0.60022  0.89587  1.0000
  C   C478      1.0  0.13794  0.60774  0.90035  1.0000
  H   H377      1.0  0.14734  0.58760  0.94253  1.0000
  H   H378      1.0  0.13085  0.57417  0.93328  1.0000
  H   H379      1.0  0.12309  0.60387  0.88338  1.0000
  H   H380      1.0  0.14000  0.61705  0.89059  1.0000
  H   H381      1.0  0.18923  0.59707  0.90450  1.0000
  C   C479      1.0  0.16749  0.56367  0.60593  1.0000
  H   H382      1.0  0.08452  0.61391  0.51565  1.0000
  C   C480      1.0  0.17450  0.60967  0.86085  1.0000
  H   H383      1.0  0.15711  0.61690  0.77744  1.0000
  C   C481      1.0  0.15707  0.54414  0.55620  1.0000
  H   H384      1.0  0.07927  0.60590  0.60677  1.0000
  H   H385      1.0  0.20353  0.66369  0.87303  1.0000
  C   C482      1.0  0.13973  0.59381  0.62420  1.0000
  H   H386      1.0  0.23648  0.67987  0.59759  1.0000
  C   C483      1.0  0.20321  0.68395  0.81123  1.0000
  H   H387      1.0  0.17883  0.62283  0.65026  1.0000
  H   H388      1.0  0.14755  0.63332  0.77307  1.0000
  H   H389      1.0  0.21007  0.62540  0.69800  1.0000
  H   H390      1.0  0.18977  0.59314  0.64588  1.0000
  H   H391      1.0  0.01117  0.53861  0.78488  1.0000
  H   H392      1.0  0.05199  0.59411  0.83598  1.0000
  C   C484      1.0  0.17755  0.59490  0.52650  1.0000
  C   C485      1.0  0.16984  0.66228  0.50168  1.0000
  C   C486      1.0  0.19439  0.61332  0.58586  1.0000
  H   H393      1.0  0.17247  0.58262  0.75003  1.0000
  C   C487      1.0  0.01010  0.56308  0.54840  1.0000
  Fe  Fe46      1.0  0.23364  0.71364  0.93565  1.0000
  H   H394      1.0  0.20432  0.61360  0.96800  1.0000
  C   C488      1.0  0.19865  0.65475  0.88380  1.0000
  C   C489      1.0  0.24215  0.66760  0.53475  1.0000
  H   H395      1.0  0.13058  0.52702  0.55509  1.0000
  H   H396      1.0  0.15420  0.57463  0.52514  1.0000
  H   H397      1.0  0.12797  0.56217  0.55694  1.0000
  H   H398      1.0  0.17910  0.59022  0.79185  1.0000
  C   C490      1.0  0.14616  0.57057  0.70029  1.0000
  C   C491      1.0  0.15854  0.59952  0.58916  1.0000
  C   C492      1.0  0.18316  0.62024  0.63214  1.0000
  C   C493      1.0  0.15444  0.63333  0.78401  1.0000
  H   H399      1.0  0.15088  0.60253  0.83415  1.0000
  C   C494      1.0  0.19213  0.61653  0.72030  1.0000
  H   H400      1.0  0.24332  0.59410  0.80168  1.0000
  H   H401      1.0  0.12580  0.60009  0.61047  1.0000
  H   H402      1.0  0.01395  0.51504  0.64727  1.0000
  H   H403      1.0  0.08626  0.64670  0.64409  1.0000
  H   H404      1.0  0.18995  0.61411  0.70187  1.0000
  H   H405      1.0  0.14924  0.53824  0.57101  1.0000
  C   C495      1.0  0.11530  0.54809  0.58903  1.0000
  P   P13       1.0  0.21386  0.67461  0.58245  1.0000
  C   C496      1.0  0.12650  0.53302  0.56458  1.0000
  C   C497      1.0  0.14480  0.62429  0.50468  1.0000
  C   C498      1.0  0.10633  0.62783  0.89843  1.0000
  C   C499      1.0  0.10583  0.61643  0.91305  1.0000
  H   H406      1.0  0.11108  0.63534  0.90393  1.0000
  H   H407      1.0  0.11018  0.61511  0.92996  1.0000
  H   H408      1.0  0.17978  0.62330  0.92257  1.0000
  S   S89       1.0  0.08772  0.50870  0.61273  1.0000
  H   H409      1.0  0.07251  0.62081  0.91722  1.0000
  C   C500      1.0  0.14776  0.59000  0.72868  1.0000
  C   C501      1.0  0.18791  0.64976  0.64445  1.0000
  H   H410      1.0  0.09021  0.64728  0.95106  1.0000
  H   H411      1.0  0.16832  0.58543  0.66490  1.0000
  H   H412      1.0  0.17247  0.58602  0.53726  1.0000
  H   H413      1.0  0.20738  0.68757  0.48700  1.0000
  S   S90       1.0  0.24559  0.70158  0.93583  1.0000
  C   C502      1.0  0.07099  0.62636  0.61773  1.0000
  C   C503      1.0  0.22527  0.64043  0.84440  1.0000
  C   C504      1.0  0.20935  0.69022  0.50542  1.0000
  H   H414      1.0  0.18565  0.56460  0.50320  1.0000
  C   C505      1.0  0.00919  0.51846  0.60753  1.0000
  C   C506      1.0  0.13447  0.55400  0.79902  1.0000
  C   C507      1.0  0.15069  0.63277  0.51577  1.0000
  H   H415      1.0  0.07250  0.60539  0.95876  1.0000
  H   H416      1.0  0.12206  0.53804  0.50824  1.0000
  H   H417      1.0  0.24294  0.69070  0.63116  1.0000
  P   P14       1.0  0.17030  0.64802  0.52124  1.0000
  C   C508      1.0  0.16200  0.64498  0.55771  1.0000
  H   H418      1.0  0.16722  0.61027  0.62749  1.0000
  S   S91       1.0  0.24854  0.62277  0.66750  1.0000
  C   C509      1.0  0.18588  0.59067  0.66861  1.0000
  H   H419      1.0  0.23823  0.65648  0.82236  1.0000
  C   C510      1.0  0.15536  0.65257  0.56626  1.0000
  C   C511      1.0  0.14775  0.64938  0.59344  1.0000
  C   C512      1.0  0.14658  0.63857  0.61215  1.0000
  C   C513      1.0  0.15317  0.63098  0.60387  1.0000
  C   C514      1.0  0.16084  0.63416  0.57674  1.0000
  C   C515      1.0  0.18556  0.64818  0.51759  1.0000
  H   H420      1.0  0.20424  0.65508  0.92197  1.0000
  H   H421      1.0  0.16002  0.54601  0.79567  1.0000
  C   C516      1.0  0.18993  0.64515  0.54148  1.0000
  C   C517      1.0  0.03439  0.51263  0.78536  1.0000
  C   C518      1.0  0.24428  0.71653  0.56638  1.0000
  H   H422      1.0  0.16685  0.56407  0.49139  1.0000
  C   C519      1.0  0.08848  0.59546  0.58519  1.0000
  C   C520      1.0  0.20728  0.66868  0.97148  1.0000
  C   C521      1.0  0.17659  0.61306  0.61910  1.0000
  H   H423      1.0  0.16986  0.65034  0.81742  1.0000
  H   H424      1.0  0.13134  0.56741  0.76801  1.0000
  H   H425      1.0  0.15567  0.66077  0.55182  1.0000
  H   H426      1.0  0.14231  0.65506  0.59961  1.0000
  H   H427      1.0  0.14025  0.63596  0.63267  1.0000
  H   H428      1.0  0.15197  0.62245  0.61809  1.0000
  H   H429      1.0  0.16560  0.62805  0.57019  1.0000
  C   C522      1.0  0.03802  0.61565  0.59595  1.0000
  C   C523      1.0  0.14537  0.55682  0.67066  1.0000
  H   H430      1.0  0.18431  0.64263  0.56278  1.0000
  H   H431      1.0  0.15806  0.57601  0.59172  1.0000
  S   S92       1.0  0.99995  0.55533  0.62587  1.0000
  H   H432      1.0  0.24499  0.58054  0.62644  1.0000
  H   H433      1.0  0.13803  0.61048  0.56188  1.0000
  H   H434      1.0  0.03873  0.58865  0.58621  1.0000
  C   C524      1.0  0.11116  0.53593  0.60017  1.0000
  C   C525      1.0  0.21618  0.63720  0.94642  1.0000
  H   H435      1.0  0.12007  0.56545  0.68272  1.0000
  H   H436      1.0  0.22446  0.65487  0.88272  1.0000
  C   C526      1.0  0.08277  0.60444  0.58631  1.0000
  C   C527      1.0  0.04392  0.51053  0.51548  1.0000
  H   H437      1.0  0.21771  0.70051  0.56920  1.0000
  C   C528      1.0  0.09064  0.64548  0.60084  1.0000
  H   H438      1.0  0.19386  0.58988  0.73059  1.0000
  C   C529      1.0  0.22744  0.64065  0.94997  1.0000
  C   C530      1.0  0.22959  0.65125  0.82402  1.0000
  C   C531      1.0  0.14253  0.54803  0.80708  1.0000
  Fe  Fe47      1.0  0.00303  0.56715  0.65521  1.0000
  C   C532      1.0  0.19995  0.66438  0.60146  1.0000
  C   C533      1.0  0.15386  0.55082  0.78954  1.0000
  C   C534      1.0  0.18703  0.61665  0.97118  1.0000
  H   H439      1.0  0.19060  0.66970  0.57016  1.0000
  C   C535      1.0  0.19898  0.64984  0.91160  1.0000
  C   C536      1.0  0.06436  0.60007  0.49958  1.0000
  H   H440      1.0  0.08943  0.59016  0.60467  1.0000
  C   C537      1.0  0.14925  0.56611  0.75658  1.0000
  C   C538      1.0  0.14124  0.60711  0.70956  1.0000
  C   C539      1.0  0.10531  0.57474  0.76405  1.0000
  C   C540      1.0  0.10808  0.58631  0.76624  1.0000
  C   C541      1.0  0.09944  0.59080  0.78016  1.0000
  C   C542      1.0  0.08792  0.58396  0.79074  1.0000
  C   C543      1.0  0.08496  0.57256  0.78750  1.0000
  C   C544      1.0  0.09384  0.56781  0.77517  1.0000
  P   P15       1.0  0.07011  0.56369  0.80152  1.0000
  C   C545      1.0  0.05925  0.57163  0.79586  1.0000
  C   C546      1.0  0.06816  0.55271  0.78208  1.0000
  C   C547      1.0  0.06267  0.54089  0.79609  1.0000
  C   C548      1.0  0.06217  0.53242  0.78064  1.0000
  C   C549      1.0  0.06687  0.53575  0.75125  1.0000
  C   C550      1.0  0.07209  0.54748  0.73716  1.0000
  C   C551      1.0  0.07264  0.55599  0.75243  1.0000
  C   C552      1.0  0.06221  0.58233  0.77507  1.0000
  C   C553      1.0  0.05364  0.58824  0.77048  1.0000
  C   C554      1.0  0.04750  0.56663  0.81090  1.0000
  C   C555      1.0  0.06859  0.55736  0.83865  1.0000
  C   C556      1.0  0.06257  0.56168  0.85982  1.0000
  C   C557      1.0  0.06199  0.55703  0.88847  1.0000
  C   C558      1.0  0.06746  0.54810  0.89607  1.0000
  C   C559      1.0  0.07356  0.54387  0.87504  1.0000
  C   C560      1.0  0.07425  0.54858  0.84645  1.0000
  H   H441      1.0  0.11199  0.57110  0.75380  1.0000
  H   H442      1.0  0.11692  0.59174  0.75757  1.0000
  H   H443      1.0  0.10169  0.59957  0.78288  1.0000
  H   H444      1.0  0.08131  0.58752  0.80148  1.0000
  H   H445      1.0  0.09193  0.55878  0.77392  1.0000
  H   H446      1.0  0.05910  0.53811  0.81890  1.0000
  H   H447      1.0  0.05875  0.52320  0.79148  1.0000
  H   H448      1.0  0.06696  0.52918  0.73948  1.0000
  H   H449      1.0  0.07588  0.54993  0.71443  1.0000
  H   H450      1.0  0.07683  0.56509  0.74109  1.0000
  H   H451      1.0  0.07104  0.58604  0.76194  1.0000
  H   H452      1.0  0.05598  0.59648  0.75428  1.0000
  H   H453      1.0  0.05854  0.56879  0.85424  1.0000
  H   H454      1.0  0.05743  0.56043  0.90477  1.0000
  H   H455      1.0  0.06713  0.54453  0.91819  1.0000
  H   H456      1.0  0.07795  0.53703  0.88072  1.0000
  H   H457      1.0  0.07927  0.54539  0.83039  1.0000
  Fe  Fe48      1.0  0.24277  0.63298  0.63216  1.0000
  C   C561      1.0  0.19132  0.64846  0.87068  1.0000
  C   C562      1.0  0.19008  0.66404  0.59056  1.0000
  C   C563      1.0  0.03214  0.52276  0.77026  1.0000
  C   C564      1.0  0.02598  0.52206  0.74935  1.0000
  H   H458      1.0  0.02986  0.56859  0.81758  1.0000
  P   P16       1.0  0.02241  0.53482  0.73073  1.0000
  C   C565      1.0  0.21107  0.68662  0.62448  1.0000
  H   H459      1.0  0.17203  0.60483  0.90633  1.0000
  H   H460      1.0  0.01143  0.57236  0.54740  1.0000
  H   H461      1.0  0.20163  0.59696  0.85817  1.0000
  H   H462      1.0  0.19625  0.60412  0.81385  1.0000
  C   C566      1.0  0.04370  0.55031  0.72465  1.0000
  C   C567      1.0  0.02495  0.53619  0.69291  1.0000
  C   C568      1.0  0.03086  0.52900  0.67978  1.0000
  C   C569      1.0  0.03381  0.53106  0.65020  1.0000
  C   C570      1.0  0.03102  0.54035  0.63338  1.0000
  C   C571      1.0  0.02532  0.54765  0.64617  1.0000
  C   C572      1.0  0.02232  0.54561  0.67577  1.0000
  C   C573      1.0  0.03893  0.57252  0.80609  1.0000
  C   C574      1.0  0.00444  0.53595  0.77440  1.0000
  H   H463      1.0  0.22267  0.67570  0.93656  1.0000
  H   H464      1.0  0.03529  0.53108  0.77479  1.0000
  C   C575      1.0  0.00822  0.52217  0.52059  1.0000
  C   C576      1.0  0.15653  0.55133  0.53063  1.0000
  C   C577      1.0  0.09274  0.52909  0.51933  1.0000
  C   C578      1.0  0.05133  0.59847  0.68093  1.0000
  H   H465      1.0  0.06024  0.56292  0.71502  1.0000
  H   H466      1.0  0.04766  0.54344  0.71944  1.0000
  C   C579      1.0  0.18602  0.58315  0.59829  1.0000
  C   C580      1.0  0.07760  0.62997  0.58922  1.0000
  P   P17       1.0  0.19187  0.63247  0.96290  1.0000
  H   H467      1.0  0.03347  0.54203  0.61048  1.0000
  H   H468      1.0  0.02350  0.55510  0.63315  1.0000
  C   C581      1.0  0.24236  0.65903  0.88543  1.0000
  C   C582      1.0  0.10002  0.60678  0.90531  1.0000
  C   C583      1.0  0.01051  0.51642  0.58044  1.0000
  H   H469      1.0  0.19669  0.62627  0.48639  1.0000
  H   H470      1.0  0.06332  0.59284  0.65159  1.0000
  C   C584      1.0  0.05425  0.59252  0.66011  1.0000
  H   H471      1.0  0.12048  0.57455  0.81939  1.0000
  C   C585      1.0  0.19336  0.65198  0.49038  1.0000
  H   H472      1.0  0.20509  0.64293  0.55643  1.0000
  H   H473      1.0  0.03687  0.50301  0.52808  1.0000
  C   C586      1.0  0.10088  0.62959  0.87631  1.0000
  H   H474      1.0  0.12687  0.59457  0.82605  1.0000
  C   C587      1.0  0.19876  0.65723  0.62863  1.0000
  C   C588      1.0  0.15133  0.56313  0.68638  1.0000
  C   C589      1.0  0.18732  0.60085  0.88483  1.0000
  C   C590      1.0  0.04540  0.58598  0.65045  1.0000
  H   H475      1.0  0.04788  0.58141  0.63450  1.0000
  C   C591      1.0  0.11415  0.57863  0.82940  1.0000
  C   C592      1.0  0.11773  0.58994  0.83277  1.0000
  H   H476      1.0  0.21510  0.63437  0.92758  1.0000
  H   H477      1.0  0.10156  0.63847  0.86457  1.0000
  H   H478      1.0  0.15879  0.61014  0.54792  1.0000
  C   C593      1.0  0.07605  0.62322  0.93414  1.0000
  H   H479      1.0  0.23819  0.64556  0.70951  1.0000
  C   C594      1.0  0.21505  0.69739  0.55201  1.0000
  S   S93       1.0  0.21384  0.70460  0.94497  1.0000
  H   H480      1.0  0.03191  0.62028  0.60455  1.0000
  C   C595      1.0  0.18135  0.60957  0.83446  1.0000
  C   C596      1.0  0.09419  0.57771  0.85252  1.0000
  C   C597      1.0  0.10955  0.59516  0.84590  1.0000
  C   C598      1.0  0.09450  0.60845  0.88309  1.0000
  H   H481      1.0  0.11249  0.60388  0.84850  1.0000
  H   H482      1.0  0.08829  0.57305  0.90914  1.0000
  C   C599      1.0  0.21930  0.67301  0.95944  1.0000
  C   C600      1.0  0.17520  0.61128  0.97436  1.0000
  C   C601      1.0  0.07044  0.64601  0.49433  1.0000
  C   C602      1.0  0.04798  0.51197  0.48621  1.0000
  C   C603      1.0  0.17794  0.67241  0.50207  1.0000
  C   C604      1.0  0.14585  0.59763  0.70556  1.0000
  H   H483      1.0  0.18705  0.64440  0.66554  1.0000
  C   C605      1.0  0.09776  0.58900  0.85636  1.0000
  C   C606      1.0  0.09484  0.61996  0.86890  1.0000
  H   H484      1.0  0.08512  0.57288  0.86008  1.0000
  C   C607      1.0  0.16596  0.56605  0.93150  1.0000
  C   C608      1.0  0.23183  0.66172  0.88268  1.0000
  H   H485      1.0  0.20905  0.69688  0.65519  1.0000
  S   S94       1.0  0.02262  0.57709  0.64733  1.0000
  C   C609      1.0  0.08142  0.61131  0.56131  1.0000
  C   C610      1.0  0.17376  0.58628  0.67952  1.0000
  P   P18       1.0  0.17383  0.59953  0.57994  1.0000
  H   H486      1.0  0.13532  0.62175  0.51034  1.0000
  C   C611      1.0  0.18216  0.60946  0.59589  1.0000
  H   H487      1.0  0.03538  0.58787  0.78185  1.0000
  C   C612      1.0  0.15799  0.64273  0.79543  1.0000
  C   C613      1.0  0.23415  0.65249  0.71382  1.0000
  C   C614      1.0  0.02160  0.51105  0.74484  1.0000
  H   H488      1.0  0.18650  0.55196  0.54868  1.0000
  C   C615      1.0  0.22374  0.69059  0.76740  1.0000
  S   S95       1.0  0.18899  0.57399  0.93235  1.0000
  C   C616      1.0  0.19514  0.60976  0.97065  1.0000
  C   C617      1.0  0.17610  0.58468  0.72730  1.0000
  H   H489      1.0  0.05484  0.58499  0.96057  1.0000
  P   P19       1.0  0.08721  0.59571  0.87351  1.0000
  H   H490      1.0  0.19044  0.65251  0.84996  1.0000
  S   S96       1.0  0.24476  0.65248  0.62212  1.0000
  C   C618      1.0  0.00736  0.53335  0.74798  1.0000
  C   C619      1.0  0.13873  0.60920  0.73649  1.0000
  C   C620      1.0  0.14932  0.57562  0.50922  1.0000
  H   H491      1.0  0.23954  0.69106  0.87707  1.0000
  H   H492      1.0  0.23003  0.65617  0.67328  1.0000
  H   H493      1.0  0.10103  0.50703  0.55909  1.0000
  P   P20       1.0  0.14272  0.55105  0.52160  1.0000
  H   H494      1.0  0.05051  0.60740  0.51700  1.0000
  H   H495      1.0  0.20036  0.62529  0.78578  1.0000
  H   H496      1.0  0.16825  0.53865  0.58219  1.0000
  C   C621      1.0  0.08082  0.57565  0.91950  1.0000
  H   H497      1.0  0.09061  0.62172  0.85197  1.0000
  H   H498      1.0  0.02438  0.56117  0.56720  1.0000
  C   C622      1.0  0.21878  0.68184  0.60789  1.0000
  H   H499      1.0  0.06881  0.62978  0.65911  1.0000
  H   H500      1.0  0.05977  0.59837  0.56816  1.0000
  H   H501      1.0  0.23729  0.65082  0.75520  1.0000
  C   C623      1.0  0.22954  0.65846  0.69340  1.0000
  C   C624      1.0  0.23370  0.65557  0.73957  1.0000
  C   C625      1.0  0.24027  0.68208  0.87961  1.0000
  H   H502      1.0  0.21103  0.62487  0.86214  1.0000
  C   C626      1.0  0.15974  0.62399  0.78686  1.0000
  H   H503      1.0  0.13024  0.57631  0.71092  1.0000
  S   S97       1.0  0.23768  0.59954  0.64757  1.0000
  H   H504      1.0  0.13424  0.58922  0.64535  1.0000
  C   C627      1.0  0.21427  0.63334  0.84666  1.0000
  H   H505      1.0  0.09848  0.65264  0.59453  1.0000
  C   C628      1.0  0.06770  0.63721  0.51971  1.0000
  C   C629      1.0  0.24290  0.67628  0.77878  1.0000
  C   C630      1.0  0.12503  0.55275  0.56556  1.0000
  H   H506      1.0  0.20865  0.67277  0.52833  1.0000
  H   H507      1.0  0.18382  0.69133  0.48764  1.0000
  C   C631      1.0  0.19795  0.62269  0.76779  1.0000
  P   P21       1.0  0.17565  0.61213  0.80366  1.0000
  C   C632      1.0  0.16565  0.59801  0.80994  1.0000
  C   C633      1.0  0.14730  0.58404  0.83739  1.0000
  C   C634      1.0  0.15421  0.59562  0.82709  1.0000
  H   H508      1.0  0.21508  0.63112  0.73990  1.0000
  H   H509      1.0  0.17924  0.63381  0.82284  1.0000
  H   H510      1.0  0.13872  0.58213  0.85189  1.0000
  C   C635      1.0  0.23400  0.68937  0.62947  1.0000
  H   H511      1.0  0.20622  0.65759  0.63773  1.0000
  C   C636      1.0  0.07922  0.59975  0.84762  1.0000
  C   C637      1.0  0.07800  0.58593  0.90686  1.0000
  H   H512      1.0  0.09468  0.61122  0.81625  1.0000
  C   C638      1.0  0.07421  0.56871  0.94639  1.0000
  C   C639      1.0  0.13779  0.56300  0.77394  1.0000
  H   H513      1.0  0.09960  0.56370  0.83683  1.0000
  H   H514      1.0  0.06355  0.61876  0.62513  1.0000
  C   C640      1.0  0.08106  0.63504  0.93186  1.0000
  C   C641      1.0  0.23111  0.64930  0.56891  1.0000
  C   C642      1.0  0.13493  0.59993  0.60446  1.0000
  H   H515      1.0  0.18970  0.69126  0.96628  1.0000
  H   H516      1.0  0.13494  0.61643  0.73968  1.0000
  C   C643      1.0  0.17224  0.63351  0.81226  1.0000
  C   C644      1.0  0.17006  0.58869  0.80336  1.0000
  C   C645      1.0  0.16313  0.57715  0.81370  1.0000
  C   C646      1.0  0.15180  0.57482  0.83081  1.0000
  H   H517      1.0  0.05296  0.63027  0.58670  1.0000
  H   H518      1.0  0.23756  0.71343  0.81060  1.0000
  C   C647      1.0  0.08530  0.60758  0.82113  1.0000
  H   H519      1.0  0.20221  0.68579  0.62243  1.0000
  H   H520      1.0  0.14774  0.55890  0.93343  1.0000
  C   C648      1.0  0.06281  0.52935  0.48347  1.0000
  C   C649      1.0  0.22446  0.66750  0.69872  1.0000
  C   C650      1.0  0.22874  0.66476  0.74494  1.0000
  C   C651      1.0  0.22291  0.65501  0.80563  1.0000
  C   C652      1.0  0.00034  0.51883  0.50472  1.0000
  C   C653      1.0  0.07597  0.61453  0.95777  1.0000
  H   H521      1.0  0.03925  0.51317  0.80126  1.0000
  C   C654      1.0  0.15716  0.55968  0.76411  1.0000
  C   C655      1.0  0.13065  0.54522  0.55303  1.0000
  H   H522      1.0  0.04635  0.51726  0.55151  1.0000
  C   C656      1.0  0.02668  0.55787  0.73612  1.0000
  C   C657      1.0  0.20630  0.62615  0.74167  1.0000
  C   C658      1.0  0.18671  0.61581  0.77058  1.0000
  H   H523      1.0  0.06236  0.58829  0.87235  1.0000
  H   H524      1.0  0.07656  0.56085  0.95592  1.0000
  H   H525      1.0  0.08134  0.64176  0.91332  1.0000
  S   S98       1.0  0.24102  0.72253  0.96678  1.0000
  C   C659      1.0  0.18612  0.61489  0.52684  1.0000
  C   C660      1.0  0.20765  0.63693  0.82819  1.0000
  H   H526      1.0  0.22091  0.67209  0.68281  1.0000
  C   C661      1.0  0.07659  0.63295  0.52938  1.0000
  C   C662      1.0  0.11681  0.52842  0.58808  1.0000
  H   H527      1.0  0.22951  0.69948  0.65912  1.0000
  Fe  Fe49      1.0  0.22580  0.60137  0.93141  1.0000
  C   C663      1.0  0.18231  0.59772  0.49710  1.0000
  C   C664      1.0  0.08758  0.63947  0.58112  1.0000
  H   H528      1.0  0.20271  0.70209  0.79949  1.0000
  C   C665      1.0  0.16848  0.62390  0.80156  1.0000
  C   C666      1.0  0.16701  0.64291  0.80911  1.0000
  C   C667      1.0  0.06719  0.59473  0.85269  1.0000
  H   H529      1.0  0.03840  0.52550  0.64031  1.0000
  C   C668      1.0  0.14257  0.56570  0.50396  1.0000
  C   C669      1.0  0.22413  0.67073  0.72429  1.0000
  P   P22       1.0  0.22850  0.66868  0.77817  1.0000
  C   C670      1.0  0.21199  0.64766  0.80750  1.0000
  H   H530      1.0  0.23462  0.62167  0.72456  1.0000
  H   H531      1.0  0.19920  0.63131  0.82991  1.0000
  H   H532      1.0  0.19896  0.61065  0.56815  1.0000
  C   C671      1.0  0.08381  0.64207  0.62882  1.0000
  H   H533      1.0  0.13891  0.60347  0.78023  1.0000
  H   H534      1.0  0.11342  0.51898  0.59650  1.0000
  C   C672      1.0  0.07937  0.61084  0.80065  1.0000
  H   H535      1.0  0.08418  0.61696  0.78034  1.0000
  H   H536      1.0  0.06314  0.53385  0.52305  1.0000
  C   C673      1.0  0.17539  0.58488  0.59310  1.0000
  C   C674      1.0  0.12889  0.56495  0.68327  1.0000
  P   P23       1.0  0.15317  0.57743  0.72362  1.0000
  C   C675      1.0  0.05089  0.56134  0.72206  1.0000
  H   H537      1.0  0.22030  0.67787  0.72773  1.0000
  C   C676      1.0  0.17924  0.65660  0.60652  1.0000
  H   H538      1.0  0.22262  0.67534  0.87783  1.0000
  H   H539      1.0  0.09717  0.58622  0.55833  1.0000
  C   C677      1.0  0.16922  0.63173  0.48785  1.0000
  C   C678      1.0  0.20344  0.62299  0.71799  1.0000
  C   C679      1.0  0.18376  0.61297  0.74649  1.0000
  H   H540      1.0  0.15577  0.59450  0.49622  1.0000
  H   H541      1.0  0.20685  0.65024  0.79295  1.0000
  C   C680      1.0  0.16619  0.57500  0.59663  1.0000
  H   H542      1.0  0.13939  0.61276  0.69192  1.0000
  H   H543      1.0  0.23489  0.64010  0.93454  1.0000
  H   H544      1.0  0.14674  0.56580  0.84003  1.0000
  H   H545      1.0  0.18148  0.65280  0.95381  1.0000
  C   C681      1.0  0.06735  0.60610  0.80618  1.0000
  C   C682      1.0  0.03151  0.54845  0.73206  1.0000
  H   H546      1.0  0.16584  0.56137  0.75042  1.0000
  C   C683      1.0  0.16297  0.63667  0.50727  1.0000
  H   H547      1.0  0.20622  0.66685  0.81922  1.0000
  H   H548      1.0  0.17502  0.60800  0.74797  1.0000
  H   H549      1.0  0.19348  0.59047  0.59475  1.0000
  H   H550      1.0  0.18476  0.67174  0.51298  1.0000
  P   P24       1.0  0.00304  0.52325  0.55646  1.0000
  C   C684      1.0  0.08819  0.63766  0.51311  1.0000
  H   H551      1.0  0.17897  0.63218  0.87483  1.0000
  H   H552      1.0  0.18765  0.62170  0.53779  1.0000
  C   C685      1.0  0.06864  0.58929  0.92202  1.0000
  C   C686      1.0  0.21965  0.67887  0.78366  1.0000
  H   H553      1.0  0.02101  0.53999  0.57082  1.0000
  H   H554      1.0  0.01837  0.55168  0.68517  1.0000
  C   C687      1.0  0.06128  0.59795  0.83204  1.0000
  H   H555      1.0  0.06278  0.60867  0.79023  1.0000
  H   H556      1.0  0.03020  0.57609  0.73668  1.0000
  H   H557      1.0  0.09522  0.63459  0.51996  1.0000
  C   C688      1.0  0.04606  0.57055  0.72685  1.0000
  H   H558      1.0  0.05173  0.57917  0.72377  1.0000
  C   C689      1.0  0.04188  0.59786  0.58532  1.0000
  C   C690      1.0  0.10817  0.59364  0.97200  1.0000
  C   C691      1.0  0.20937  0.67565  0.80575  1.0000
  H   H559      1.0  0.23187  0.69342  0.75083  1.0000
  H   H560      1.0  0.23356  0.63372  0.49994  1.0000
  C   C692      1.0  0.17814  0.64944  0.63339  1.0000
  H   H561      1.0  0.21040  0.62307  0.59149  1.0000
  H   H562      1.0  0.08953  0.58929  0.97993  1.0000
  C   C693      1.0  0.03342  0.58514  0.66142  1.0000
  H   H563      1.0  0.06661  0.59742  0.91319  1.0000
  C   C694      1.0  0.24359  0.59364  0.49518  1.0000
  C   C695      1.0  0.20937  0.64876  0.51083  1.0000
  C   C696      1.0  0.19533  0.62389  0.62216  1.0000
  C   C697      1.0  0.20093  0.62045  0.59900  1.0000
  H   H564      1.0  0.20047  0.62928  0.63253  1.0000
  H   H565      1.0  0.10910  0.58686  0.96098  1.0000
  C   C698      1.0  0.08565  0.60891  0.53518  1.0000
  C   C699      1.0  0.03937  0.59770  0.69178  1.0000
  C   C700      1.0  0.06481  0.57204  0.96111  1.0000
  H   H566      1.0  0.16039  0.55611  0.60833  1.0000
  H   H567      1.0  0.21635  0.71492  0.52802  1.0000
  H   H568      1.0  0.15980  0.56194  0.68837  1.0000
  C   C701      1.0  0.03051  0.59109  0.68226  1.0000
  H   H569      1.0  0.03689  0.60222  0.70783  1.0000
  H   H570      1.0  0.19532  0.68144  0.82854  1.0000
  H   H571      1.0  0.16884  0.61648  0.97413  1.0000
  C   C702      1.0  0.05383  0.60340  0.57537  1.0000
  C   C703      1.0  0.21763  0.69891  0.77302  1.0000
  C   C704      1.0  0.20736  0.69560  0.79490  1.0000
  C   C705      1.0  0.21144  0.70207  0.50539  1.0000
  H   H572      1.0  0.24788  0.74841  0.84331  1.0000
  H   H573      1.0  0.22107  0.70800  0.76078  1.0000
  H   H574      1.0  0.02143  0.59070  0.69087  1.0000
  C   C706      1.0  0.23392  0.67323  0.54579  1.0000
  C   C707      1.0  0.16785  0.54436  0.56266  1.0000
  H   H575      1.0  0.01777  0.50641  0.55301  1.0000
  C   C708      1.0  0.18726  0.57181  0.60774  1.0000
  C   C709      1.0  0.03394  0.56880  0.73408  1.0000
  C   C710      1.0  0.08587  0.62950  0.97688  1.0000
  C   C711      1.0  0.17799  0.56206  0.61166  1.0000
  C   C712      1.0  0.19311  0.59184  0.68705  1.0000
  H   H576      1.0  0.17903  0.55327  0.61874  1.0000
  C   C713      1.0  0.16880  0.58302  0.70906  1.0000
  H   H577      1.0  0.01739  0.55703  0.73946  1.0000
  C   C714      1.0  0.05796  0.61517  0.57556  1.0000
  H   H578      1.0  0.02479  0.59949  0.60423  1.0000
  H   H579      1.0  0.11078  0.55387  0.59828  1.0000
  C   C715      1.0  0.02328  0.50392  0.59164  1.0000
  C   C716      1.0  0.08068  0.61764  0.97952  1.0000
  C   C717      1.0  0.17961  0.60341  0.54172  1.0000
  H   H580      1.0  0.14767  0.59609  0.68458  1.0000
  C   C718      1.0  0.14103  0.54192  0.49721  1.0000
  H   H581      1.0  0.16392  0.56956  0.94971  1.0000
  H   H582      1.0  0.16966  0.64385  0.64582  1.0000
  H   H583      1.0  0.14716  0.58675  0.77360  1.0000
  H   H584      1.0  0.23032  0.64015  0.57857  1.0000
  C   C719      1.0  0.09281  0.59323  0.55909  1.0000
  S   S99       1.0  0.22099  0.58173  0.94364  1.0000
  C   C720      1.0  0.11811  0.60129  0.97419  1.0000
  C   C721      1.0  0.22422  0.66697  0.56852  1.0000
  H   H585      1.0  0.10342  0.53227  0.61783  1.0000
  H   H586      1.0  0.13996  0.54116  0.82684  1.0000
  C   C722      1.0  0.21489  0.69289  0.64306  1.0000
  H   H587      1.0  0.11186  0.56436  0.97716  1.0000
  H   H588      1.0  0.24047  0.71499  0.52654  1.0000
  C   C723      1.0  0.17814  0.55183  0.54379  1.0000
  C   C724      1.0  0.24676  0.71407  0.80877  1.0000
  H   H589      1.0  0.24552  0.55965  0.63637  1.0000
  C   C725      1.0  0.22289  0.65495  0.58010  1.0000
  S   S100      1.0  0.22938  0.61357  0.95929  1.0000
  C   C726      1.0  0.22638  0.69433  0.64540  1.0000
  C   C727      1.0  0.23076  0.67322  0.87996  1.0000
  C   C728      1.0  0.19214  0.63846  0.92622  1.0000
  C   C729      1.0  0.02028  0.52524  0.50778  1.0000
  H   H590      1.0  0.10353  0.51760  0.50885  1.0000
  H   H591      1.0  0.09319  0.64224  0.55982  1.0000
  C   C730      1.0  0.13477  0.57121  0.69913  1.0000
  H   H592      1.0  0.21574  0.64992  0.59806  1.0000
  H   H593      1.0  0.12559  0.55153  0.81214  1.0000
  C   C731      1.0  0.23029  0.68325  0.61048  1.0000
  H   H594      1.0  0.17161  0.65662  0.59833  1.0000
  H   H595      1.0  0.20253  0.59510  0.67870  1.0000
  C   C732      1.0  0.15017  0.58690  0.49304  1.0000
  H   H596      1.0  0.23954  0.62761  0.76646  1.0000
  C   C733      1.0  0.04995  0.62125  0.58594  1.0000
  C   C734      1.0  0.21005  0.68190  0.52884  1.0000
  Fe  Fe50      1.0  0.04952  0.50442  0.68494  1.0000
  C   C735      1.0  0.07401  0.63251  0.63726  1.0000
  S   S101      1.0  0.24840  0.71513  0.75245  1.0000
  C   C736      1.0  0.14550  0.59232  0.75555  1.0000
  C   C737      1.0  0.21437  0.70566  0.52854  1.0000
  P   P25       1.0  0.07341  0.62239  0.56349  1.0000
  H   H597      1.0  0.19551  0.57061  0.61163  1.0000
  H   H598      1.0  0.12669  0.60035  0.96517  1.0000
  C   C738      1.0  0.06203  0.58233  0.94894  1.0000
  S   S102      1.0  0.09349  0.53655  0.48374  1.0000
  C   C739      1.0  0.01511  0.51351  0.62623  1.0000
  H   H599      1.0  0.00058  0.52715  0.71547  1.0000
  H   H600      1.0  0.21190  0.60087  0.49873  1.0000
  C   C740      1.0  0.22694  0.67404  0.97695  1.0000
  H   H601      1.0  0.23820  0.72181  0.57068  1.0000
  H   H602      1.0  0.05867  0.63385  0.53164  1.0000
  C   C741      1.0  0.20640  0.63691  0.96765  1.0000
  C   C742      1.0  0.05869  0.52791  0.51268  1.0000
  H   H603      1.0  0.15463  0.65590  0.48697  1.0000
  H   H604      1.0  0.00361  0.52393  0.61416  1.0000
  C   C743      1.0  0.17985  0.59266  0.97411  1.0000
  H   H605      1.0  0.23778  0.64639  0.97735  1.0000
  H   H606      1.0  0.23992  0.56968  0.96371  1.0000
  H   H607      1.0  0.24520  0.71253  0.85353  1.0000
  C   C744      1.0  0.24556  0.71269  0.54132  1.0000
  H   H608      1.0  0.17721  0.58354  0.97388  1.0000
  H   H609      1.0  0.20137  0.66792  0.95785  1.0000
  C   C745      1.0  0.24075  0.65563  0.54631  1.0000
  C   C746      1.0  0.17736  0.68354  0.48808  1.0000
  H   H610      1.0  0.06174  0.59224  0.51711  1.0000
  C   C747      1.0  0.17857  0.64810  0.97611  1.0000
  H   H611      1.0  0.24731  0.65133  0.53832  1.0000
  C   C748      1.0  0.08602  0.63816  0.95315  1.0000
  H   H612      1.0  0.24309  0.65013  0.88688  1.0000
  S   S103      1.0  0.07424  0.50900  0.75959  1.0000
  C   C749      1.0  0.00091  0.55737  0.53913  1.0000
  C   C750      1.0  0.17170  0.59939  0.97512  1.0000
  C   C751      1.0  0.20518  0.65214  0.48702  1.0000
  S   S104      1.0  0.24601  0.72795  0.89832  1.0000
  H   H613      1.0  0.07469  0.50450  0.81894  1.0000
  H   H614      1.0  0.17861  0.63463  0.48039  1.0000
  H   H615      1.0  0.24891  0.64104  0.80178  1.0000
  H   H616      1.0  0.18089  0.59108  0.48545  1.0000
  C   C752      1.0  0.09093  0.64662  0.48816  1.0000
  C   C753      1.0  0.22906  0.64391  0.97450  1.0000
  H   H617      1.0  0.24795  0.57793  0.83379  1.0000
  C   C754      1.0  0.13599  0.56730  0.48395  1.0000
  H   H618      1.0  0.21100  0.70855  0.48719  1.0000
  H   H619      1.0  0.23737  0.59898  0.49483  1.0000
  C   C755      1.0  0.19150  0.59777  0.97247  1.0000
  C   C756      1.0  0.15108  0.61948  0.48533  1.0000
  C   C757      1.0  0.24503  0.56865  0.97921  1.0000
  C   C758      1.0  0.24296  0.58472  0.48105  1.0000
  C   C759      1.0  0.23224  0.74989  0.97742  1.0000
  C   C760      1.0  0.18918  0.60902  0.48271  1.0000
  H   H620      1.0  0.22654  0.74168  0.97745  1.0000
  H   H621      1.0  0.22939  0.76462  0.04594  1.0000
  H   H622      1.0  0.24778  0.77773  0.06255  1.0000
  C   C761      1.0  0.24133  0.75486  0.05979  1.0000
  C   C762      1.0  0.23069  0.75809  0.06279  1.0000
  C   C763      1.0  0.24563  0.76095  0.99870  1.0000
  H   H623      1.0  0.24623  0.75857  0.12836  1.0000
  C   C764      1.0  0.22161  0.75284  0.08745  1.0000
  H   H624      1.0  0.21340  0.75533  0.08958  1.0000
  H   H625      1.0  0.24305  0.77818  0.93775  1.0000
  C   C765      1.0  0.24152  0.77047  0.95508  1.0000
  C   C766      1.0  0.23404  0.75991  0.95540  1.0000
  H   H626      1.0  0.22979  0.75943  0.93833  1.0000
  C   C767      1.0  0.24732  0.77102  0.97662  1.0000
  C   C768      1.0  0.48176  0.15886  0.05238  1.0000
  H   H627      1.0  0.49044  0.03719  0.34064  1.0000
  H   H628      1.0  0.47192  0.03801  0.47088  1.0000
  S   S105      1.0  0.49497  0.08166  0.18073  1.0000
  H   H629      1.0  0.47594  0.06315  0.25417  1.0000
  H   H630      1.0  0.47343  0.15284  0.05462  1.0000
  H   H631      1.0  0.48090  0.07768  0.28154  1.0000
  H   H632      1.0  0.48123  0.03676  0.07663  1.0000
  C   C769      1.0  0.48468  0.07021  0.28297  1.0000
  C   C770      1.0  0.48147  0.02142  0.10734  1.0000
  H   H633      1.0  0.47403  0.17250  0.06336  1.0000
  C   C771      1.0  0.48656  0.03235  0.08790  1.0000
  S   S106      1.0  0.48948  0.04437  0.19471  1.0000
  H   H634      1.0  0.49025  0.01647  0.35966  1.0000
  H   H635      1.0  0.48804  0.01184  0.45576  1.0000
  C   C772      1.0  0.48196  0.06208  0.26739  1.0000
  C   C773      1.0  0.46362  0.01469  0.17368  1.0000
  C   C774      1.0  0.47142  0.01208  0.18997  1.0000
  C   C775      1.0  0.47930  0.02123  0.19579  1.0000
  C   C776      1.0  0.47974  0.03320  0.18510  1.0000
  C   C777      1.0  0.47207  0.03580  0.16845  1.0000
  C   C778      1.0  0.46402  0.02665  0.16316  1.0000
  H   H636      1.0  0.48538  0.04669  0.25536  1.0000
  H   H637      1.0  0.48517  0.01900  0.20856  1.0000
  H   H638      1.0  0.47214  0.04486  0.16012  1.0000
  H   H639      1.0  0.45808  0.02888  0.15058  1.0000
  C   C779      1.0  0.49833  0.05990  0.29979  1.0000
  C   C780      1.0  0.49859  0.03494  0.34202  1.0000
  C   C781      1.0  0.48818  0.01592  0.12279  1.0000
  C   C782      1.0  0.48209  0.16993  0.05735  1.0000
  H   H640      1.0  0.48413  0.00755  0.13828  1.0000
  H   H641      1.0  0.49307  0.18621  0.05866  1.0000
  C   C783      1.0  0.49843  0.02320  0.35304  1.0000
  H   H642      1.0  0.49514  0.07590  0.30977  1.0000
  C   C784      1.0  0.48730  0.05281  0.26808  1.0000
  C   C785      1.0  0.49286  0.06917  0.29901  1.0000
  H   H643      1.0  0.47224  0.01729  0.11104  1.0000
  C   C786      1.0  0.49282  0.17765  0.05466  1.0000
  C   C787      1.0  0.49545  0.05172  0.28416  1.0000
  H   H644      1.0  0.49161  0.14689  0.04100  1.0000
  H   H645      1.0  0.43978  0.00323  0.23770  1.0000
  C   C788      1.0  0.49214  0.15552  0.04454  1.0000
  S   S107      1.0  0.45313  0.00354  0.16600  1.0000
  H   H646      1.0  0.47137  0.00301  0.19819  1.0000
  C   C789      1.0  0.49729  0.01399  0.45479  1.0000
  C   C790      1.0  0.49846  0.03763  0.08326  1.0000
  H   H647      1.0  0.49672  0.05880  0.42068  1.0000
  H   H648      1.0  0.42070  0.00535  0.26333  1.0000
  H   H649      1.0  0.49432  0.10024  0.79547  1.0000
  C   C791      1.0  0.47082  0.02963  0.48565  1.0000
  H   H650      1.0  0.48760  0.04623  0.88291  1.0000
  H   H651      1.0  0.46900  0.01801  0.76338  1.0000
  C   C792      1.0  0.48020  0.02706  0.49588  1.0000
  C   C793      1.0  0.47417  0.05027  0.76888  1.0000
  C   C794      1.0  0.45419  0.04121  0.70418  1.0000
  C   C795      1.0  0.49622  0.06132  0.84699  1.0000
  H   H652      1.0  0.48610  0.01444  0.52287  1.0000
  C   C796      1.0  0.41721  0.03465  0.78786  1.0000
  H   H653      1.0  0.45471  0.00886  0.72828  1.0000
  C   C797      1.0  0.46142  0.03289  0.76343  1.0000
  S   S108      1.0  0.49027  0.03927  0.69652  1.0000
  C   C798      1.0  0.43603  0.02986  0.78024  1.0000
  C   C799      1.0  0.41813  0.03634  0.81437  1.0000
  H   H654      1.0  0.47110  0.01232  0.58072  1.0000
  C   C800      1.0  0.46604  0.01070  0.66868  1.0000
  C   C801      1.0  0.47261  0.00760  0.68794  1.0000
  C   C802      1.0  0.48007  0.01642  0.69581  1.0000
  C   C803      1.0  0.48145  0.02850  0.68391  1.0000
  C   C804      1.0  0.47545  0.03156  0.66336  1.0000
  C   C805      1.0  0.46772  0.02276  0.65615  1.0000
  C   C806      1.0  0.46779  0.00805  0.52472  1.0000
  H   H655      1.0  0.48475  0.01384  0.71142  1.0000
  H   H656      1.0  0.47645  0.04073  0.65367  1.0000
  H   H657      1.0  0.46287  0.02534  0.64096  1.0000
  H   H658      1.0  0.49100  0.04858  0.77445  1.0000
  H   H659      1.0  0.48862  0.03344  0.48897  1.0000
  C   C807      1.0  0.45350  0.04488  0.67612  1.0000
  H   H660      1.0  0.43441  0.01450  0.72340  1.0000
  H   H661      1.0  0.40959  0.03584  0.78046  1.0000
  C   C808      1.0  0.47433  0.05807  0.83438  1.0000
  S   S109      1.0  0.49586  0.07675  0.68010  1.0000
  C   C809      1.0  0.44999  0.00403  0.74981  1.0000
  C   C810      1.0  0.47873  0.01629  0.51522  1.0000
  C   C811      1.0  0.47651  0.00630  0.58446  1.0000
  C   C812      1.0  0.43981  0.02300  0.71046  1.0000
  C   C813      1.0  0.42794  0.03476  0.82395  1.0000
  C   C814      1.0  0.48272  0.04416  0.77172  1.0000
  C   C815      1.0  0.48371  0.06727  0.81712  1.0000
  H   H662      1.0  0.42517  0.03011  0.75046  1.0000
  C   C816      1.0  0.44607  0.03759  0.66515  1.0000
  H   H663      1.0  0.43578  0.00774  0.81272  1.0000
  H   H664      1.0  0.44993  0.00442  0.52094  1.0000
  H   H665      1.0  0.42862  0.03603  0.84457  1.0000
  C   C817      1.0  0.44729  0.03026  0.72167  1.0000
  P   P26       1.0  0.44761  0.02569  0.75848  1.0000
  C   C818      1.0  0.43685  0.03152  0.80700  1.0000
  C   C819      1.0  0.43929  0.02662  0.68226  1.0000
  H   H666      1.0  0.46024  0.04691  0.71184  1.0000
  C   C820      1.0  0.44532  0.00991  0.76920  1.0000
  H   H667      1.0  0.44576  0.04033  0.64321  1.0000
  C   C821      1.0  0.48074  0.03251  0.76996  1.0000
  C   C822      1.0  0.45843  0.01064  0.51411  1.0000
  C   C823      1.0  0.47584  0.05050  0.85798  1.0000
  C   C824      1.0  0.42610  0.03140  0.77085  1.0000
  H   H668      1.0  0.44436  0.03025  0.81483  1.0000
  H   H669      1.0  0.45701  0.04952  0.76266  1.0000
  C   C825      1.0  0.48672  0.05214  0.86440  1.0000
  H   H670      1.0  0.48262  0.07327  0.79888  1.0000
  C   C826      1.0  0.49459  0.06886  0.82334  1.0000
  C   C827      1.0  0.47017  0.02690  0.76566  1.0000
  H   H671      1.0  0.45896  0.05328  0.66268  1.0000
  C   C828      1.0  0.48385  0.00801  0.60241  1.0000
  H   H672      1.0  0.46590  0.05687  0.82950  1.0000
  H   H673      1.0  0.46853  0.04340  0.87147  1.0000
  H   H674      1.0  0.41122  0.03885  0.82751  1.0000
  H   H675      1.0  0.47592  0.05945  0.76900  1.0000
  C   C829      1.0  0.46352  0.04463  0.76501  1.0000
  H   H676      1.0  0.43376  0.02082  0.67356  1.0000
  H   H677      1.0  0.48393  0.01512  0.61273  1.0000
  H   H678      1.0  0.48760  0.02798  0.77068  1.0000
  C   C830      1.0  0.43936  0.00346  0.79718  1.0000
  H   H679      1.0  0.49902  0.09879  0.52985  1.0000
  C   C831      1.0  0.45995  0.02140  0.49468  1.0000
  H   H680      1.0  0.45265  0.02340  0.48685  1.0000
  C   C832      1.0  0.40801  0.44951  0.17492  1.0000
  H   H681      1.0  0.40147  0.44130  0.17907  1.0000
  H   H682      1.0  0.44925  0.49940  0.23355  1.0000
  H   H683      1.0  0.43302  0.46616  0.12633  1.0000
  C   C833      1.0  0.45208  0.47163  0.16908  1.0000
  C   C834      1.0  0.43467  0.49108  0.18607  1.0000
  H   H684      1.0  0.41805  0.44750  0.13590  1.0000
  H   H685      1.0  0.47519  0.48643  0.09722  1.0000
  C   C835      1.0  0.41735  0.45300  0.15060  1.0000
  H   H686      1.0  0.47904  0.47107  0.13319  1.0000
  C   C836      1.0  0.41560  0.46715  0.18866  1.0000
  H   H687      1.0  0.39995  0.45382  0.21290  1.0000
  H   H688      1.0  0.45688  0.49254  0.10705  1.0000
  H   H689      1.0  0.41868  0.49882  0.07829  1.0000
  C   C837      1.0  0.42580  0.46357  0.14525  1.0000
  C   C838      1.0  0.46865  0.48219  0.11710  1.0000
  C   C839      1.0  0.42403  0.50148  0.21500  1.0000
  C   C840      1.0  0.49276  0.49519  0.13704  1.0000
  C   C841      1.0  0.48897  0.48905  0.16576  1.0000
  C   C842      1.0  0.42495  0.47077  0.16411  1.0000
  C   C843      1.0  0.46257  0.46829  0.16334  1.0000
  H   H690      1.0  0.41482  0.47238  0.20388  1.0000
  P   P27       1.0  0.43609  0.48430  0.15672  1.0000
  C   C844      1.0  0.49173  0.42687  0.46386  1.0000
  H   H691      1.0  0.46445  0.46179  0.17921  1.0000
  H   H692      1.0  0.41843  0.49521  0.18131  1.0000
  H   H693      1.0  0.44574  0.46745  0.18933  1.0000
  C   C845      1.0  0.40716  0.45657  0.19395  1.0000
  C   C846      1.0  0.44988  0.48044  0.14902  1.0000
  C   C847      1.0  0.45825  0.48570  0.12293  1.0000
  C   C848      1.0  0.42504  0.49576  0.19314  1.0000
  C   C849      1.0  0.47081  0.47351  0.13730  1.0000
  C   C850      1.0  0.48056  0.49252  0.18408  1.0000
  C   C851      1.0  0.42637  0.49225  0.11189  1.0000
  C   C852      1.0  0.43483  0.49497  0.12681  1.0000
  C   C853      1.0  0.44337  0.49240  0.20091  1.0000
  H   H694      1.0  0.42049  0.48359  0.11750  1.0000
  H   H695      1.0  0.47757  0.48783  0.20633  1.0000
  C   C854      1.0  0.47586  0.50189  0.17375  1.0000
  C   C855      1.0  0.42526  0.50088  0.08965  1.0000
  S   S110      1.0  0.49364  0.47638  0.17911  1.0000
  C   C856      1.0  0.44239  0.49822  0.22259  1.0000
  H   H696      1.0  0.45107  0.48924  0.19542  1.0000
  H   H697      1.0  0.48809  0.43128  0.42278  1.0000
  C   C857      1.0  0.49420  0.43320  0.43540  1.0000
  H   H698      1.0  0.49914  0.49258  0.12265  1.0000
  H   H699      1.0  0.48363  0.42012  0.47286  1.0000
  H   H700      1.0  0.45502  0.40080  0.54436  1.0000
  C   C858      1.0  0.46381  0.39975  0.53828  1.0000
  C   C859      1.0  0.47343  0.40941  0.53205  1.0000
  C   C860      1.0  0.48485  0.40810  0.52431  1.0000
  H   H701      1.0  0.48944  0.48369  0.71469  1.0000
  H   H702      1.0  0.47818  0.37883  0.52747  1.0000
  H   H703      1.0  0.49428  0.46622  0.74120  1.0000
  H   H704      1.0  0.48038  0.48512  0.64832  1.0000
  C   C861      1.0  0.49421  0.42933  0.54137  1.0000
  C   C862      1.0  0.49805  0.44166  0.53308  1.0000
  H   H705      1.0  0.46174  0.49109  0.64990  1.0000
  C   C863      1.0  0.49020  0.44248  0.58132  1.0000
  H   H706      1.0  0.45806  0.38123  0.54154  1.0000
  C   C864      1.0  0.48031  0.49422  0.64644  1.0000
  C   C865      1.0  0.47685  0.38737  0.52878  1.0000
  H   H707      1.0  0.49518  0.39575  0.51642  1.0000
  H   H708      1.0  0.48545  0.41419  0.57700  1.0000
  C   C866      1.0  0.46552  0.38872  0.53668  1.0000
  H   H709      1.0  0.49166  0.46036  0.86702  1.0000
  C   C867      1.0  0.48650  0.39701  0.52256  1.0000
  C   C868      1.0  0.49773  0.47484  0.74399  1.0000
  C   C869      1.0  0.46973  0.49764  0.64730  1.0000
  H   H710      1.0  0.48910  0.44754  0.59693  1.0000
  C   C870      1.0  0.49502  0.48467  0.72907  1.0000
  C   C871      1.0  0.48829  0.42368  0.56990  1.0000
  C   C872      1.0  0.48632  0.43024  0.58976  1.0000
  H   H711      1.0  0.47197  0.41792  0.53323  1.0000
  H   H712      1.0  0.48209  0.42585  0.61191  1.0000
  H   H713      1.0  0.44431  0.49813  0.58118  1.0000
  P   P28       1.0  0.49719  0.42066  0.51631  1.0000
  C   C873      1.0  0.49601  0.44818  0.55299  1.0000
  H   H714      1.0  0.49800  0.47639  0.82301  1.0000
  Fe  Fe51      1.0  0.46079  0.52933  0.14710  1.0000
  S   S111      1.0  0.44130  0.52553  0.16563  1.0000
  Fe  Fe52      1.0  0.46353  0.55564  0.13811  1.0000
  S   S112      1.0  0.44445  0.55403  0.15604  1.0000
  C   C874      1.0  0.46606  0.61983  0.42185  1.0000
  Fe  Fe53      1.0  0.44557  0.53910  0.19022  1.0000
  S   S113      1.0  0.43750  0.53530  0.23839  1.0000
  Fe  Fe54      1.0  0.44149  0.54080  0.13033  1.0000
  S   S114      1.0  0.42755  0.54080  0.10537  1.0000
  S   S115      1.0  0.46503  0.54171  0.17395  1.0000
  S   S116      1.0  0.46045  0.54363  0.11030  1.0000
  H   H715      1.0  0.44148  0.60039  0.04030  1.0000
  Fe  Fe55      1.0  0.42003  0.56992  0.36322  1.0000
  S   S117      1.0  0.41802  0.58803  0.36487  1.0000
  S   S118      1.0  0.42221  0.56885  0.31668  1.0000
  Fe  Fe56      1.0  0.42056  0.56406  0.42634  1.0000
  S   S119      1.0  0.41880  0.58168  0.43144  1.0000
  C   C875      1.0  0.48349  0.71585  0.00111  1.0000
  Fe  Fe57      1.0  0.40506  0.57997  0.40706  1.0000
  S   S120      1.0  0.39189  0.59016  0.42130  1.0000
  Fe  Fe58      1.0  0.43161  0.58863  0.38909  1.0000
  S   S121      1.0  0.44439  0.60609  0.37888  1.0000
  S   S122      1.0  0.40575  0.56153  0.40446  1.0000
  S   S123      1.0  0.43472  0.57125  0.38507  1.0000
  H   H716      1.0  0.39619  0.58328  0.31718  1.0000
  S   S124      1.0  0.43194  0.72339  0.36600  1.0000
  C   C876      1.0  0.38048  0.62288  0.24463  1.0000
  C   C877      1.0  0.47887  0.70666  0.99019  1.0000
  S   S125      1.0  0.32312  0.61066  0.44628  1.0000
  Fe  Fe59      1.0  0.42163  0.72699  0.18393  1.0000
  S   S126      1.0  0.43938  0.72351  0.18033  1.0000
  Fe  Fe60      1.0  0.40926  0.70099  0.19814  1.0000
  S   S127      1.0  0.42606  0.69556  0.19573  1.0000
  S   S128      1.0  0.39191  0.68734  0.21050  1.0000
  Fe  Fe61      1.0  0.43058  0.70894  0.22013  1.0000
  S   S129      1.0  0.43947  0.70398  0.25550  1.0000
  Fe  Fe62      1.0  0.43325  0.71055  0.15638  1.0000
  S   S130      1.0  0.44567  0.70910  0.11703  1.0000
  S   S131      1.0  0.41316  0.71331  0.22545  1.0000
  S   S132      1.0  0.41608  0.71507  0.15711  1.0000
  Fe  Fe63      1.0  0.36001  0.65281  0.12284  1.0000
  S   S133      1.0  0.36119  0.63408  0.13315  1.0000
  S   S134      1.0  0.37635  0.66769  0.11129  1.0000
  Fe  Fe64      1.0  0.33376  0.64567  0.12927  1.0000
  S   S135      1.0  0.33298  0.62646  0.14074  1.0000
  S   S136      1.0  0.31750  0.65214  0.12855  1.0000
  Fe  Fe65      1.0  0.34495  0.63116  0.16797  1.0000
  S   S137      1.0  0.34108  0.61905  0.21192  1.0000
  Fe  Fe66      1.0  0.34912  0.63133  0.10465  1.0000
  S   S138      1.0  0.35176  0.61994  0.07385  1.0000
  S   S139      1.0  0.34453  0.65008  0.15939  1.0000
  S   S140      1.0  0.34925  0.65036  0.09148  1.0000
  Fe  Fe67      1.0  0.33496  0.62687  0.36562  1.0000
  S   S141      1.0  0.32223  0.60905  0.38084  1.0000
  S   S142      1.0  0.34197  0.63868  0.32073  1.0000
  Fe  Fe68      1.0  0.33579  0.62827  0.42630  1.0000
  H   H717      1.0  0.45032  0.61690  0.31825  1.0000
  C   C878      1.0  0.40095  0.58276  0.02521  1.0000
  Fe  Fe69      1.0  0.33361  0.60511  0.41075  1.0000
  S   S143      1.0  0.33920  0.58807  0.41684  1.0000
  Fe  Fe70      1.0  0.31289  0.61615  0.41485  1.0000
  S   S144      1.0  0.29385  0.61668  0.42766  1.0000
  S   S145      1.0  0.34699  0.62243  0.39291  1.0000
  S   S146      1.0  0.32491  0.63425  0.39747  1.0000
  C   C879      1.0  0.37935  0.62186  0.35236  1.0000
  Fe  Fe71      1.0  0.25671  0.61770  0.12562  1.0000
  S   S147      1.0  0.27499  0.61549  0.11347  1.0000
  H   H718      1.0  0.43727  0.67353  0.31071  1.0000
  H   H719      1.0  0.42508  0.68004  0.27933  1.0000
  C   C880      1.0  0.44207  0.50642  0.11923  1.0000
  C   C881      1.0  0.28152  0.60805  0.42080  1.0000
  C   C882      1.0  0.28205  0.59842  0.40930  1.0000
  C   C883      1.0  0.27182  0.59166  0.40520  1.0000
  C   C884      1.0  0.26109  0.59465  0.41193  1.0000
  C   C885      1.0  0.26066  0.60434  0.42316  1.0000
  C   C886      1.0  0.27077  0.61085  0.42800  1.0000
  H   H720      1.0  0.29026  0.59610  0.40397  1.0000
  H   H721      1.0  0.27221  0.58409  0.39685  1.0000
  H   H722      1.0  0.25244  0.60657  0.42912  1.0000
  H   H723      1.0  0.27020  0.61804  0.43770  1.0000
  C   C887      1.0  0.34747  0.62293  0.04164  1.0000
  C   C888      1.0  0.34279  0.63250  0.03408  1.0000
  C   C889      1.0  0.43698  0.60480  0.02635  1.0000
  H   H724      1.0  0.26097  0.59019  0.12722  1.0000
  C   C890      1.0  0.38393  0.65271  0.00564  1.0000
  C   C891      1.0  0.34895  0.61568  0.02303  1.0000
  H   H725      1.0  0.34155  0.63810  0.04825  1.0000
  H   H726      1.0  0.40461  0.64454  0.29745  1.0000
  C   C892      1.0  0.45825  0.74880  0.09432  1.0000
  H   H727      1.0  0.35257  0.60827  0.02870  1.0000
  C   C893      1.0  0.34088  0.62481  0.24181  1.0000
  C   C894      1.0  0.33566  0.61727  0.26906  1.0000
  C   C895      1.0  0.33575  0.62146  0.29342  1.0000
  C   C896      1.0  0.34125  0.63318  0.29067  1.0000
  C   C897      1.0  0.34637  0.64076  0.26341  1.0000
  C   C898      1.0  0.34615  0.63660  0.23902  1.0000
  H   H728      1.0  0.33156  0.60813  0.27133  1.0000
  H   H729      1.0  0.33171  0.61556  0.31428  1.0000
  H   H730      1.0  0.35065  0.64985  0.26110  1.0000
  H   H731      1.0  0.35028  0.64246  0.21811  1.0000
  C   C899      1.0  0.30561  0.64180  0.12510  1.0000
  C   C900      1.0  0.30713  0.63152  0.11766  1.0000
  C   C901      1.0  0.29761  0.62343  0.11477  1.0000
  C   C902      1.0  0.28651  0.62561  0.11888  1.0000
  C   C903      1.0  0.28493  0.63589  0.12630  1.0000
  C   C904      1.0  0.29452  0.64401  0.12916  1.0000
  H   H732      1.0  0.31569  0.62992  0.11333  1.0000
  H   H733      1.0  0.29889  0.61549  0.10918  1.0000
  H   H734      1.0  0.27643  0.63770  0.12919  1.0000
  H   H735      1.0  0.29341  0.65209  0.13411  1.0000
  C   C905      1.0  0.38790  0.68163  0.18295  1.0000
  C   C906      1.0  0.39504  0.68552  0.15514  1.0000
  C   C907      1.0  0.39149  0.68107  0.13337  1.0000
  C   C908      1.0  0.38088  0.67257  0.13936  1.0000
  C   C909      1.0  0.37386  0.66849  0.16729  1.0000
  C   C910      1.0  0.37732  0.67307  0.18897  1.0000
  H   H736      1.0  0.40325  0.69205  0.15033  1.0000
  H   H737      1.0  0.39695  0.68429  0.11181  1.0000
  H   H738      1.0  0.36566  0.66196  0.17214  1.0000
  H   H739      1.0  0.37176  0.67001  0.21043  1.0000
  C   C911      1.0  0.43481  0.71864  0.33443  1.0000
  C   C912      1.0  0.44283  0.71190  0.32966  1.0000
  C   C913      1.0  0.44414  0.70742  0.30545  1.0000
  C   C914      1.0  0.43762  0.70984  0.28554  1.0000
  C   C915      1.0  0.42964  0.71662  0.29028  1.0000
  C   C916      1.0  0.42816  0.72087  0.31478  1.0000
  C   C917      1.0  0.42515  0.62558  0.31834  1.0000
  C   C918      1.0  0.39796  0.61129  0.34533  1.0000
  H   H740      1.0  0.42453  0.71851  0.27520  1.0000
  H   H741      1.0  0.42184  0.72597  0.31846  1.0000
  C   C919      1.0  0.44257  0.71328  0.08376  1.0000
  C   C920      1.0  0.25847  0.56613  0.01892  1.0000
  C   C921      1.0  0.35457  0.59490  0.21180  1.0000
  C   C922      1.0  0.42322  0.62292  0.29321  1.0000
  H   H742      1.0  0.25471  0.68439  0.15063  1.0000
  H   H743      1.0  0.33872  0.59505  0.35877  1.0000
  H   H744      1.0  0.42472  0.71322  0.10102  1.0000
  H   H745      1.0  0.40891  0.66553  0.27239  1.0000
  C   C923      1.0  0.39877  0.67281  0.39674  1.0000
  C   C924      1.0  0.40025  0.62343  0.34292  1.0000
  C   C925      1.0  0.37723  0.58918  0.41962  1.0000
  C   C926      1.0  0.37202  0.59794  0.42695  1.0000
  C   C927      1.0  0.36048  0.59779  0.42564  1.0000
  C   C928      1.0  0.35390  0.58868  0.41757  1.0000
  C   C929      1.0  0.35902  0.57979  0.41060  1.0000
  C   C930      1.0  0.37069  0.58008  0.41136  1.0000
  H   H746      1.0  0.37697  0.60493  0.43358  1.0000
  H   H747      1.0  0.35664  0.60463  0.43133  1.0000
  H   H748      1.0  0.35397  0.57267  0.40448  1.0000
  H   H749      1.0  0.37459  0.57325  0.40580  1.0000
  H   H750      1.0  0.27064  0.65711  0.24058  1.0000
  C   C931      1.0  0.25688  0.62806  0.29976  1.0000
  C   C932      1.0  0.45458  0.59736  0.42037  1.0000
  C   C933      1.0  0.45304  0.60733  0.40282  1.0000
  C   C934      1.0  0.45861  0.61853  0.40393  1.0000
  H   H751      1.0  0.27458  0.57269  0.32565  1.0000
  C   C935      1.0  0.49198  0.61267  0.02844  1.0000
  H   H752      1.0  0.45015  0.58868  0.41982  1.0000
  H   H753      1.0  0.45729  0.62624  0.39065  1.0000
  H   H754      1.0  0.41561  0.62443  0.28615  1.0000
  C   C936      1.0  0.43052  0.54402  0.06764  1.0000
  C   C937      1.0  0.42158  0.54588  0.05436  1.0000
  C   C938      1.0  0.42367  0.54862  0.02444  1.0000
  C   C939      1.0  0.43468  0.54925  0.00750  1.0000
  C   C940      1.0  0.44352  0.54711  0.02088  1.0000
  C   C941      1.0  0.44151  0.54467  0.05069  1.0000
  H   H755      1.0  0.41303  0.54530  0.06732  1.0000
  H   H756      1.0  0.41675  0.55011  0.01448  1.0000
  H   H757      1.0  0.45202  0.54739  0.00811  1.0000
  H   H758      1.0  0.44841  0.54314  0.06057  1.0000
  C   C942      1.0  0.43388  0.54499  0.25980  1.0000
  C   C943      1.0  0.43391  0.55662  0.24797  1.0000
  C   C944      1.0  0.43047  0.56377  0.26573  1.0000
  C   C945      1.0  0.42714  0.55953  0.29560  1.0000
  C   C946      1.0  0.42740  0.54800  0.30747  1.0000
  C   C947      1.0  0.43063  0.54077  0.28967  1.0000
  H   H759      1.0  0.43633  0.56002  0.22511  1.0000
  H   H760      1.0  0.43030  0.57265  0.25619  1.0000
  H   H761      1.0  0.42479  0.54453  0.33032  1.0000
  H   H762      1.0  0.43044  0.53178  0.29914  1.0000
  H   H763      1.0  0.35997  0.58482  0.29281  1.0000
  H   H764      1.0  0.40497  0.60690  0.34373  1.0000
  H   H765      1.0  0.44810  0.57792  0.99654  1.0000
  P   P29       1.0  0.29144  0.62287  0.00964  1.0000
  H   H766      1.0  0.38477  0.59510  0.35428  1.0000
  H   H767      1.0  0.26189  0.63321  0.41451  1.0000
  H   H768      1.0  0.35371  0.60433  0.24403  1.0000
  H   H769      1.0  0.39198  0.62359  0.41645  1.0000
  C   C948      1.0  0.26777  0.67043  0.07474  1.0000
  H   H770      1.0  0.43328  0.65252  0.33566  1.0000
  C   C949      1.0  0.28957  0.56066  0.03652  1.0000
  C   C950      1.0  0.25699  0.70687  0.03315  1.0000
  H   H771      1.0  0.28194  0.58509  0.05275  1.0000
  C   C951      1.0  0.47997  0.59294  0.01481  1.0000
  C   C952      1.0  0.39523  0.60474  0.03220  1.0000
  P   P30       1.0  0.38442  0.66298  0.40396  1.0000
  H   H772      1.0  0.26641  0.61988  0.27185  1.0000
  C   C953      1.0  0.42081  0.68841  0.38608  1.0000
  C   C954      1.0  0.30137  0.61012  0.25725  1.0000
  C   C955      1.0  0.30928  0.61151  0.23124  1.0000
  H   H773      1.0  0.32444  0.64502  0.25032  1.0000
  H   H774      1.0  0.38249  0.64929  0.07602  1.0000
  C   C956      1.0  0.25274  0.71761  0.33202  1.0000
  C   C957      1.0  0.26089  0.70177  0.05633  1.0000
  H   H775      1.0  0.27682  0.70808  0.31017  1.0000
  H   H776      1.0  0.44093  0.65887  0.99699  1.0000
  C   C958      1.0  0.26847  0.61176  0.04157  1.0000
  H   H777      1.0  0.31948  0.60313  0.20497  1.0000
  P   P31       1.0  0.47547  0.55554  0.26457  1.0000
  H   H778      1.0  0.43713  0.62598  0.34553  1.0000
  S   S148      1.0  0.25052  0.71903  0.25109  1.0000
  C   C959      1.0  0.38252  0.69774  0.06099  1.0000
  C   C960      1.0  0.44494  0.57281  0.07763  1.0000
  H   H779      1.0  0.27903  0.68558  0.99407  1.0000
  C   C961      1.0  0.47921  0.50759  0.14476  1.0000
  H   H780      1.0  0.46361  0.57582  0.06795  1.0000
  H   H781      1.0  0.45564  0.71933  0.01275  1.0000
  C   C962      1.0  0.38350  0.62619  0.45636  1.0000
  H   H782      1.0  0.32498  0.66645  0.03638  1.0000
  H   H783      1.0  0.26180  0.59331  0.98867  1.0000
  H   H784      1.0  0.25564  0.54220  0.03153  1.0000
  H   H785      1.0  0.32016  0.71293  0.27821  1.0000
  C   C963      1.0  0.36274  0.66804  0.41996  1.0000
  C   C964      1.0  0.37903  0.64507  0.45424  1.0000
  C   C965      1.0  0.38642  0.69065  0.04405  1.0000
  S   S149      1.0  0.43448  0.72361  0.99722  1.0000
  C   C966      1.0  0.31811  0.74192  0.16684  1.0000
  H   H786      1.0  0.28714  0.63787  0.27661  1.0000
  P   P32       1.0  0.28733  0.59753  0.31100  1.0000
  C   C967      1.0  0.36397  0.73533  0.20220  1.0000
  C   C968      1.0  0.40359  0.70651  0.01892  1.0000
  Fe  Fe72      1.0  0.26061  0.71492  0.14931  1.0000
  H   H787      1.0  0.29843  0.58102  0.28590  1.0000
  H   H788      1.0  0.45720  0.74228  0.04156  1.0000
  H   H789      1.0  0.37323  0.65741  0.30055  1.0000
  C   C969      1.0  0.25063  0.67507  0.15692  1.0000
  C   C970      1.0  0.26788  0.64077  0.39869  1.0000
  H   H790      1.0  0.43570  0.60337  0.45476  1.0000
  H   H791      1.0  0.45613  0.64948  0.01094  1.0000
  C   C971      1.0  0.37390  0.70165  0.14835  1.0000
  C   C972      1.0  0.36500  0.69310  0.14475  1.0000
  C   C973      1.0  0.35382  0.69006  0.16306  1.0000
  C   C974      1.0  0.35150  0.69560  0.18493  1.0000
  C   C975      1.0  0.36035  0.70434  0.18844  1.0000
  C   C976      1.0  0.37163  0.70720  0.17022  1.0000
  P   P33       1.0  0.35750  0.71065  0.21836  1.0000
  C   C977      1.0  0.34270  0.71236  0.22485  1.0000
  C   C978      1.0  0.35975  0.70121  0.24908  1.0000
  C   C979      1.0  0.36115  0.70550  0.27272  1.0000
  C   C980      1.0  0.36317  0.69835  0.29630  1.0000
  C   C981      1.0  0.36391  0.68690  0.29635  1.0000
  C   C982      1.0  0.36268  0.68261  0.27278  1.0000
  C   C983      1.0  0.36061  0.68971  0.24924  1.0000
  C   C984      1.0  0.33780  0.71534  0.20185  1.0000
  C   C985      1.0  0.32657  0.71716  0.20649  1.0000
  C   C986      1.0  0.32021  0.71624  0.23400  1.0000
  C   C987      1.0  0.32501  0.71335  0.25699  1.0000
  C   C988      1.0  0.33619  0.71137  0.25249  1.0000
  C   C989      1.0  0.36749  0.72499  0.21083  1.0000
  C   C990      1.0  0.37889  0.72589  0.21415  1.0000
  C   C991      1.0  0.37173  0.74635  0.19707  1.0000
  C   C992      1.0  0.26192  0.58537  0.11111  1.0000
  C   C993      1.0  0.25690  0.53995  0.05271  1.0000
  H   H792      1.0  0.46942  0.50447  0.18801  1.0000
  H   H793      1.0  0.38268  0.70366  0.13480  1.0000
  H   H794      1.0  0.36685  0.68855  0.12837  1.0000
  H   H795      1.0  0.34703  0.68321  0.16062  1.0000
  H   H796      1.0  0.34286  0.69288  0.19942  1.0000
  H   H797      1.0  0.37876  0.71350  0.17315  1.0000
  H   H798      1.0  0.36085  0.71445  0.27276  1.0000
  H   H799      1.0  0.36436  0.70177  0.31433  1.0000
  H   H800      1.0  0.36563  0.68141  0.31445  1.0000
  H   H801      1.0  0.36356  0.67384  0.27243  1.0000
  H   H802      1.0  0.35998  0.68623  0.23104  1.0000
  H   H803      1.0  0.34273  0.71648  0.18024  1.0000
  H   H804      1.0  0.32286  0.71953  0.18867  1.0000
  C   C994      1.0  0.25684  0.68001  0.40469  1.0000
  C   C995      1.0  0.39081  0.66430  0.99514  1.0000
  H   H805      1.0  0.33978  0.70933  0.27056  1.0000
  H   H806      1.0  0.38187  0.71807  0.22065  1.0000
  C   C996      1.0  0.30792  0.74522  0.08344  1.0000
  C   C997      1.0  0.40610  0.74639  0.99648  1.0000
  C   C998      1.0  0.26213  0.54864  0.06454  1.0000
  C   C999      1.0  0.28720  0.57747  0.00387  1.0000
  C   C1000     1.0  0.28918  0.67383  0.25125  1.0000
  C   C1001     1.0  0.28018  0.67944  0.25002  1.0000
  C   C1002     1.0  0.27513  0.68309  0.27342  1.0000
  C   C1003     1.0  0.27915  0.68122  0.29798  1.0000
  C   C1004     1.0  0.28822  0.67558  0.29936  1.0000
  C   C1005     1.0  0.29312  0.67177  0.27588  1.0000
  P   P34       1.0  0.29330  0.67309  0.33128  1.0000
  C   C1006     1.0  0.30785  0.67083  0.32264  1.0000
  C   C1007     1.0  0.29384  0.68598  0.34476  1.0000
  C   C1008     1.0  0.29105  0.68494  0.37417  1.0000
  C   C1009     1.0  0.35788  0.67811  0.45650  1.0000
  H   H807      1.0  0.36677  0.59933  0.06949  1.0000
  C   C1010     1.0  0.29681  0.70715  0.33607  1.0000
  C   C1011     1.0  0.29685  0.69719  0.32578  1.0000
  C   C1012     1.0  0.30927  0.65965  0.32112  1.0000
  C   C1013     1.0  0.32046  0.65782  0.31426  1.0000
  C   C1014     1.0  0.33033  0.66714  0.30852  1.0000
  C   C1015     1.0  0.32901  0.67835  0.30945  1.0000
  C   C1016     1.0  0.31782  0.68021  0.31649  1.0000
  C   C1017     1.0  0.28334  0.66037  0.35750  1.0000
  C   C1018     1.0  0.27149  0.65709  0.35749  1.0000
  C   C1019     1.0  0.26381  0.64733  0.37800  1.0000
  H   H808      1.0  0.37436  0.69426  0.07730  1.0000
  C   C1020     1.0  0.40841  0.66853  0.40122  1.0000
  C   C1021     1.0  0.28733  0.65377  0.37857  1.0000
  H   H809      1.0  0.29312  0.67110  0.23305  1.0000
  H   H810      1.0  0.27713  0.68093  0.23087  1.0000
  H   H811      1.0  0.26817  0.68750  0.27241  1.0000
  H   H812      1.0  0.27522  0.68424  0.31577  1.0000
  H   H813      1.0  0.30004  0.66734  0.27624  1.0000
  H   H814      1.0  0.28869  0.67643  0.38929  1.0000
  C   C1022     1.0  0.29981  0.73353  0.20292  1.0000
  H   H815      1.0  0.27024  0.61649  0.05718  1.0000
  C   C1023     1.0  0.25161  0.58943  0.32929  1.0000
  H   H816      1.0  0.29903  0.69824  0.30300  1.0000
  H   H817      1.0  0.30171  0.65238  0.32509  1.0000
  H   H818      1.0  0.32158  0.64917  0.31343  1.0000
  H   H819      1.0  0.33897  0.66563  0.30340  1.0000
  H   H820      1.0  0.33669  0.68559  0.30483  1.0000
  H   H821      1.0  0.31704  0.68896  0.31706  1.0000
  H   H822      1.0  0.26807  0.66203  0.34186  1.0000
  C   C1024     1.0  0.30406  0.74023  0.22041  1.0000
  P   P35       1.0  0.40463  0.59847  0.00985  1.0000
  S   S150      1.0  0.42216  0.55028  0.46371  1.0000
  H   H823      1.0  0.29637  0.65619  0.37939  1.0000
  Fe  Fe73      1.0  0.28271  0.71677  0.16970  1.0000
  H   H824      1.0  0.44713  0.64615  0.27674  1.0000
  C   C1025     1.0  0.27602  0.68139  0.01661  1.0000
  C   C1026     1.0  0.48774  0.50424  0.12659  1.0000
  C   C1027     1.0  0.25470  0.71546  0.08232  1.0000
  Fe  Fe74      1.0  0.25066  0.71126  0.46626  1.0000
  H   H825      1.0  0.26471  0.69445  0.05545  1.0000
  H   H826      1.0  0.48685  0.55527  0.14371  1.0000
  C   C1028     1.0  0.30340  0.61522  0.32140  1.0000
  H   H827      1.0  0.27383  0.61112  0.34244  1.0000
  H   H828      1.0  0.38616  0.71461  0.07036  1.0000
  C   C1029     1.0  0.26534  0.71261  0.28405  1.0000
  C   C1030     1.0  0.25482  0.59805  0.02694  1.0000
  C   C1031     1.0  0.29919  0.58061  0.99089  1.0000
  C   C1032     1.0  0.30174  0.73409  0.40679  1.0000
  C   C1033     1.0  0.43505  0.69156  0.01632  1.0000
  C   C1034     1.0  0.42308  0.69042  0.01933  1.0000
  H   H829      1.0  0.44643  0.52385  0.09163  1.0000
  H   H830      1.0  0.28167  0.60598  0.98039  1.0000
  C   C1035     1.0  0.46346  0.74978  0.99638  1.0000
  S   S151      1.0  0.26617  0.72350  0.43313  1.0000
  C   C1036     1.0  0.42554  0.59940  0.02673  1.0000
  C   C1037     1.0  0.28019  0.74784  0.04066  1.0000
  H   H831      1.0  0.42059  0.71868  0.05414  1.0000
  C   C1038     1.0  0.38915  0.70918  0.05702  1.0000
  H   H832      1.0  0.39268  0.64341  0.38865  1.0000
  C   C1039     1.0  0.30674  0.62383  0.33529  1.0000
  C   C1040     1.0  0.45278  0.51815  0.27797  1.0000
  C   C1041     1.0  0.31320  0.60195  0.22499  1.0000
  H   H833      1.0  0.27985  0.62641  0.36595  1.0000
  C   C1042     1.0  0.47410  0.55864  0.03534  1.0000
  C   C1043     1.0  0.26276  0.71365  0.33338  1.0000
  H   H834      1.0  0.32778  0.71219  0.06215  1.0000
  C   C1044     1.0  0.48960  0.55271  0.26357  1.0000
  H   H835      1.0  0.43925  0.69498  0.03123  1.0000
  H   H836      1.0  0.41819  0.69294  0.03685  1.0000
  C   C1045     1.0  0.47537  0.72226  0.32448  1.0000
  H   H837      1.0  0.31327  0.67996  0.04948  1.0000
  H   H838      1.0  0.27416  0.73462  0.98923  1.0000
  H   H839      1.0  0.42928  0.69450  0.38204  1.0000
  H   H840      1.0  0.26786  0.55184  0.10146  1.0000
  P   P36       1.0  0.41501  0.63174  0.33884  1.0000
  C   C1046     1.0  0.41660  0.62951  0.37483  1.0000
  C   C1047     1.0  0.41676  0.61830  0.38978  1.0000
  C   C1048     1.0  0.41786  0.61631  0.41767  1.0000
  C   C1049     1.0  0.41870  0.62545  0.43108  1.0000
  C   C1050     1.0  0.41830  0.63659  0.41664  1.0000
  C   C1051     1.0  0.41714  0.63860  0.38870  1.0000
  C   C1052     1.0  0.39083  0.62865  0.34674  1.0000
  C   C1053     1.0  0.41811  0.64705  0.32004  1.0000
  C   C1054     1.0  0.41155  0.65077  0.30123  1.0000
  C   C1055     1.0  0.41402  0.66264  0.28676  1.0000
  C   C1056     1.0  0.42317  0.67083  0.29053  1.0000
  C   C1057     1.0  0.43004  0.66714  0.30830  1.0000
  C   C1058     1.0  0.42766  0.65527  0.32261  1.0000
  H   H841      1.0  0.41612  0.61105  0.37990  1.0000
  H   H842      1.0  0.41811  0.60764  0.42872  1.0000
  H   H843      1.0  0.41965  0.62387  0.45264  1.0000
  H   H844      1.0  0.41885  0.64364  0.42717  1.0000
  H   H845      1.0  0.41653  0.64718  0.37823  1.0000
  H   H846      1.0  0.39227  0.63789  0.34596  1.0000
  H   H847      1.0  0.37209  0.62586  0.35566  1.0000
  C   C1059     1.0  0.30636  0.57379  0.00051  1.0000
  H   H848      1.0  0.36829  0.60442  0.36027  1.0000
  C   C1060     1.0  0.36137  0.61213  0.30355  1.0000
  P   P37       1.0  0.40254  0.68597  0.00115  1.0000
  C   C1061     1.0  0.25537  0.71671  0.28258  1.0000
  H   H849      1.0  0.26834  0.68727  0.36279  1.0000
  C   C1062     1.0  0.29743  0.59917  0.27736  1.0000
  C   C1063     1.0  0.39937  0.57827  0.05455  1.0000
  C   C1064     1.0  0.26696  0.64897  0.25704  1.0000
  C   C1065     1.0  0.39690  0.56614  0.06631  1.0000
  H   H850      1.0  0.39592  0.56271  0.08884  1.0000
  C   C1066     1.0  0.43521  0.62377  0.32664  1.0000
  H   H851      1.0  0.36598  0.62129  0.29469  1.0000
  H   H852      1.0  0.25791  0.74381  0.12847  1.0000
  P   P38       1.0  0.37610  0.60708  0.25888  1.0000
  C   C1067     1.0  0.37718  0.60980  0.35476  1.0000
  C   C1068     1.0  0.47558  0.60291  0.01368  1.0000
  C   C1069     1.0  0.38694  0.64748  0.22395  1.0000
  C   C1070     1.0  0.38775  0.66892  0.34459  1.0000
  C   C1071     1.0  0.44284  0.61872  0.31097  1.0000
  C   C1072     1.0  0.38648  0.60454  0.35123  1.0000
  H   H853      1.0  0.37414  0.64491  0.19986  1.0000
  C   C1073     1.0  0.38404  0.64862  0.42475  1.0000
  C   C1074     1.0  0.43102  0.61809  0.27727  1.0000
  C   C1075     1.0  0.44073  0.61584  0.28637  1.0000
  H   H854      1.0  0.42948  0.61595  0.25805  1.0000
  C   C1076     1.0  0.36128  0.58944  0.19505  1.0000
  C   C1077     1.0  0.32229  0.74874  0.18421  1.0000
  H   H855      1.0  0.29643  0.66264  0.19594  1.0000
  H   H856      1.0  0.45024  0.70208  0.30210  1.0000
  H   H857      1.0  0.28057  0.67680  0.13180  1.0000
  C   C1078     1.0  0.27110  0.60544  0.19045  1.0000
  C   C1079     1.0  0.39963  0.71360  0.03575  1.0000
  H   H858      1.0  0.38945  0.65697  0.21585  1.0000
  S   S152      1.0  0.26977  0.72776  0.16989  1.0000
  H   H859      1.0  0.44661  0.61179  0.27449  1.0000
  H   H860      1.0  0.29602  0.67907  0.15775  1.0000
  S   S153      1.0  0.25851  0.70139  0.00254  1.0000
  H   H861      1.0  0.39893  0.64734  0.25043  1.0000
  S   S154      1.0  0.27363  0.70479  0.21292  1.0000
  C   C1080     1.0  0.43153  0.71470  0.08192  1.0000
  C   C1081     1.0  0.40762  0.59321  0.27654  1.0000
  C   C1082     1.0  0.37834  0.64069  0.21488  1.0000
  C   C1083     1.0  0.47461  0.68635  0.39948  1.0000
  H   H862      1.0  0.41788  0.67247  0.08759  1.0000
  C   C1084     1.0  0.29438  0.72450  0.42830  1.0000
  C   C1085     1.0  0.42727  0.67360  0.08217  1.0000
  H   H863      1.0  0.42677  0.66075  0.05775  1.0000
  C   C1086     1.0  0.48453  0.67960  0.08955  1.0000
  H   H864      1.0  0.44772  0.70983  0.34509  1.0000
  C   C1087     1.0  0.39953  0.61568  0.03720  1.0000
  C   C1088     1.0  0.39228  0.64203  0.24348  1.0000
  H   H865      1.0  0.36829  0.62348  0.21799  1.0000
  C   C1089     1.0  0.37508  0.62845  0.22519  1.0000
  Fe  Fe75      1.0  0.44490  0.72801  0.39185  1.0000
  C   C1090     1.0  0.43229  0.66697  0.06546  1.0000
  C   C1091     1.0  0.45122  0.71491  0.05869  1.0000
  C   C1092     1.0  0.29494  0.70386  0.06302  1.0000
  H   H866      1.0  0.37935  0.59077  0.30877  1.0000
  H   H867      1.0  0.41490  0.58964  0.28033  1.0000
  C   C1093     1.0  0.39702  0.58959  0.29735  1.0000
  C   C1094     1.0  0.38747  0.59387  0.29239  1.0000
  C   C1095     1.0  0.43440  0.68192  0.09132  1.0000
  H   H868      1.0  0.43058  0.68726  0.10380  1.0000
  C   C1096     1.0  0.43786  0.71955  0.03015  1.0000
  C   C1097     1.0  0.38903  0.62978  0.25394  1.0000
  C   C1098     1.0  0.28944  0.67081  0.16323  1.0000
  C   C1099     1.0  0.28081  0.66951  0.14839  1.0000
  H   H869      1.0  0.39310  0.62571  0.26945  1.0000
  C   C1100     1.0  0.44443  0.66850  0.05834  1.0000
  S   S155      1.0  0.44628  0.71635  0.43209  1.0000
  C   C1101     1.0  0.40874  0.60126  0.25083  1.0000
  C   C1102     1.0  0.38852  0.60197  0.26660  1.0000
  C   C1103     1.0  0.44653  0.68348  0.08421  1.0000
  C   C1104     1.0  0.29573  0.58551  0.35387  1.0000
  C   C1105     1.0  0.48308  0.71375  0.03003  1.0000
  C   C1106     1.0  0.39929  0.60572  0.24599  1.0000
  H   H870      1.0  0.41691  0.60387  0.23449  1.0000
  C   C1107     1.0  0.45161  0.67655  0.06838  1.0000
  H   H871      1.0  0.45193  0.69005  0.09134  1.0000
  H   H872      1.0  0.44816  0.66347  0.04491  1.0000
  H   H873      1.0  0.45531  0.67073  0.12204  1.0000
  Fe  Fe76      1.0  0.44459  0.73138  0.45170  1.0000
  H   H874      1.0  0.40027  0.61188  0.22585  1.0000
  C   C1108     1.0  0.35904  0.60006  0.23137  1.0000
  C   C1109     1.0  0.41127  0.69273  0.38156  1.0000
  C   C1110     1.0  0.37038  0.59998  0.23406  1.0000
  C   C1111     1.0  0.35789  0.59167  0.30256  1.0000
  C   C1112     1.0  0.36436  0.60341  0.29075  1.0000
  H   H875      1.0  0.34593  0.59533  0.20937  1.0000
  C   C1113     1.0  0.34874  0.58867  0.32715  1.0000
  H   H876      1.0  0.40734  0.73569  0.09987  1.0000
  H   H877      1.0  0.46292  0.66890  0.16450  1.0000
  H   H878      1.0  0.34385  0.57959  0.33644  1.0000
  C   C1114     1.0  0.27964  0.64398  0.39894  1.0000
  S   S156      1.0  0.24979  0.62639  0.15881  1.0000
  H   H879      1.0  0.48296  0.64227  0.01818  1.0000
  H   H880      1.0  0.28341  0.59387  0.47057  1.0000
  Fe  Fe77      1.0  0.25542  0.73657  0.43208  1.0000
  H   H881      1.0  0.26567  0.65777  0.14398  1.0000
  C   C1115     1.0  0.34586  0.59739  0.33983  1.0000
  C   C1116     1.0  0.35216  0.60910  0.32804  1.0000
  C   C1117     1.0  0.49652  0.54672  0.09545  1.0000
  H   H882      1.0  0.25054  0.60374  0.06519  1.0000
  P   P39       1.0  0.46727  0.67852  0.06023  1.0000
  C   C1118     1.0  0.27356  0.74013  0.00384  1.0000
  H   H883      1.0  0.37508  0.65074  0.46521  1.0000
  C   C1119     1.0  0.46467  0.67305  0.11930  1.0000
  H   H884      1.0  0.48559  0.67889  0.00959  1.0000
  H   H885      1.0  0.45975  0.71379  0.06000  1.0000
  H   H886      1.0  0.28876  0.65764  0.07108  1.0000
  C   C1120     1.0  0.27238  0.65884  0.15535  1.0000
  H   H887      1.0  0.34982  0.61587  0.33764  1.0000
  C   C1121     1.0  0.47369  0.69311  0.03702  1.0000
  C   C1122     1.0  0.46896  0.67188  0.14356  1.0000
  C   C1123     1.0  0.27487  0.60577  0.99862  1.0000
  S   S157      1.0  0.46414  0.73662  0.37563  1.0000
  C   C1124     1.0  0.44890  0.71806  0.03192  1.0000
  C   C1125     1.0  0.28956  0.66147  0.18515  1.0000
  H   H888      1.0  0.32361  0.64708  0.20019  1.0000
  H   H889      1.0  0.38568  0.59389  0.21921  1.0000
  C   C1126     1.0  0.34136  0.62771  0.98922  1.0000
  C   C1127     1.0  0.38081  0.64734  0.03479  1.0000
  C   C1128     1.0  0.40029  0.68498  0.38690  1.0000
  H   H890      1.0  0.30715  0.55855  0.03081  1.0000
  C   C1129     1.0  0.37702  0.59433  0.21739  1.0000
  C   C1130     1.0  0.29870  0.71045  0.08109  1.0000
  H   H891      1.0  0.48832  0.74733  0.34811  1.0000
  H   H892      1.0  0.30756  0.60201  0.08245  1.0000
  H   H893      1.0  0.30582  0.64915  0.06636  1.0000
  C   C1131     1.0  0.28280  0.61083  0.18761  1.0000
  C   C1132     1.0  0.43251  0.51226  0.08230  1.0000
  C   C1133     1.0  0.47244  0.67710  0.09208  1.0000
  S   S158      1.0  0.34303  0.64117  0.44952  1.0000
  C   C1134     1.0  0.28946  0.65140  0.05838  1.0000
  H   H894      1.0  0.38850  0.56824  0.46304  1.0000
  C   C1135     1.0  0.47380  0.69537  0.00810  1.0000
  C   C1136     1.0  0.47976  0.64918  0.02559  1.0000
  H   H895      1.0  0.29338  0.71373  0.37317  1.0000
  H   H896      1.0  0.27325  0.65171  0.04705  1.0000
  H   H897      1.0  0.39545  0.62896  0.05802  1.0000
  C   C1137     1.0  0.47173  0.66716  0.04519  1.0000
  H   H898      1.0  0.49018  0.50845  0.10412  1.0000
  H   H899      1.0  0.29406  0.61312  0.06576  1.0000
  C   C1138     1.0  0.31861  0.70981  0.06246  1.0000
  H   H900      1.0  0.32140  0.70120  0.02888  1.0000
  C   C1139     1.0  0.28072  0.64799  0.04501  1.0000
  C   C1140     1.0  0.29907  0.64655  0.05587  1.0000
  C   C1141     1.0  0.31563  0.64507  0.21679  1.0000
  H   H901      1.0  0.48997  0.59222  0.18775  1.0000
  H   H902      1.0  0.47370  0.53986  0.22755  1.0000
  C   C1142     1.0  0.48104  0.66989  0.02077  1.0000
  H   H903      1.0  0.49112  0.57803  0.23001  1.0000
  C   C1143     1.0  0.37247  0.58908  0.19798  1.0000
  H   H904      1.0  0.25062  0.57116  0.46964  1.0000
  C   C1144     1.0  0.25457  0.63858  0.30400  1.0000
  H   H905      1.0  0.38494  0.60347  0.98659  1.0000
  C   C1145     1.0  0.27021  0.59693  0.28031  1.0000
  C   C1146     1.0  0.31609  0.64396  0.24501  1.0000
  C   C1147     1.0  0.30780  0.60429  0.06005  1.0000
  C   C1148     1.0  0.41590  0.74576  0.05672  1.0000
  H   H906      1.0  0.49374  0.58514  0.02540  1.0000
  C   C1149     1.0  0.45737  0.57691  0.02980  1.0000
  C   C1150     1.0  0.30020  0.61060  0.05055  1.0000
  H   H907      1.0  0.41756  0.73816  0.04975  1.0000
  C   C1151     1.0  0.26312  0.59160  0.33163  1.0000
  H   H908      1.0  0.45888  0.55502  0.22862  1.0000
  C   C1152     1.0  0.28107  0.74073  0.02176  1.0000
  H   H909      1.0  0.28290  0.70717  0.00724  1.0000
  C   C1153     1.0  0.28571  0.62074  0.19780  1.0000
  H   H910      1.0  0.35781  0.58551  0.17975  1.0000
  C   C1154     1.0  0.44092  0.51500  0.09706  1.0000
  C   C1155     1.0  0.28145  0.63952  0.02968  1.0000
  C   C1156     1.0  0.30489  0.64355  0.20984  1.0000
  H   H911      1.0  0.48731  0.72460  0.98712  1.0000
  H   H912      1.0  0.30476  0.64458  0.18774  1.0000
  H   H913      1.0  0.32212  0.59667  0.04774  1.0000
  C   C1157     1.0  0.30079  0.61402  0.02146  1.0000
  C   C1158     1.0  0.29150  0.61028  0.32424  1.0000
  H   H914      1.0  0.37765  0.58477  0.18510  1.0000
  Fe  Fe78      1.0  0.46541  0.72584  0.41735  1.0000
  H   H915      1.0  0.46682  0.63726  0.06187  1.0000
  S   S159      1.0  0.49360  0.63995  0.39492  1.0000
  H   H916      1.0  0.47015  0.68842  0.99918  1.0000
  C   C1159     1.0  0.31492  0.70341  0.04394  1.0000
  C   C1160     1.0  0.31048  0.71322  0.08125  1.0000
  P   P40       1.0  0.28054  0.63881  0.22194  1.0000
  C   C1161     1.0  0.42919  0.71777  0.05525  1.0000
  C   C1162     1.0  0.29084  0.63424  0.02816  1.0000
  C   C1163     1.0  0.29986  0.63813  0.04051  1.0000
  C   C1164     1.0  0.31595  0.60123  0.04056  1.0000
  H   H917      1.0  0.40749  0.65924  0.40904  1.0000
  H   H918      1.0  0.25815  0.62316  0.22396  1.0000
  C   C1165     1.0  0.27926  0.67737  0.06378  1.0000
  C   C1166     1.0  0.47880  0.56843  0.01183  1.0000
  H   H919      1.0  0.47604  0.74901  0.31129  1.0000
  H   H920      1.0  0.37515  0.63849  0.04298  1.0000
  C   C1167     1.0  0.30576  0.64147  0.26632  1.0000
  S   S160      1.0  0.46372  0.74022  0.43985  1.0000
  C   C1168     1.0  0.41973  0.60494  0.00829  1.0000
  C   C1169     1.0  0.47065  0.64638  0.05018  1.0000
  C   C1170     1.0  0.48042  0.70279  0.41937  1.0000
  H   H921      1.0  0.34715  0.61247  0.98263  1.0000
  C   C1171     1.0  0.25074  0.67995  0.36122  1.0000
  H   H922      1.0  0.46797  0.71617  0.34045  1.0000
  C   C1172     1.0  0.47853  0.61726  0.34602  1.0000
  H   H923      1.0  0.29484  0.62496  0.19415  1.0000
  H   H924      1.0  0.45727  0.53913  0.31379  1.0000
  C   C1173     1.0  0.46667  0.65532  0.06001  1.0000
  H   H925      1.0  0.34585  0.67120  0.43381  1.0000
  C   C1174     1.0  0.44769  0.53716  0.46381  1.0000
  C   C1175     1.0  0.29443  0.64080  0.23116  1.0000
  H   H926      1.0  0.47361  0.58775  0.16537  1.0000
  H   H927      1.0  0.30611  0.64063  0.28816  1.0000
  H   H928      1.0  0.47833  0.62055  0.01838  1.0000
  C   C1176     1.0  0.29384  0.70602  0.36533  1.0000
  C   C1177     1.0  0.28091  0.65081  0.19277  1.0000
  H   H929      1.0  0.42871  0.57330  0.02919  1.0000
  C   C1178     1.0  0.35469  0.67248  0.43629  1.0000
  H   H930      1.0  0.28965  0.60761  0.17643  1.0000
  H   H931      1.0  0.26281  0.70205  0.09851  1.0000
  C   C1179     1.0  0.29497  0.63989  0.25953  1.0000
  C   C1180     1.0  0.30673  0.68193  0.01167  1.0000
  C   C1181     1.0  0.48921  0.56900  0.99220  1.0000
  H   H932      1.0  0.45270  0.55869  0.28916  1.0000
  H   H933      1.0  0.45982  0.65302  0.07955  1.0000
  H   H934      1.0  0.44396  0.57112  0.10036  1.0000
  H   H935      1.0  0.28578  0.70193  0.06305  1.0000
  H   H936      1.0  0.27457  0.63689  0.01963  1.0000
  C   C1182     1.0  0.39212  0.62053  0.05416  1.0000
  C   C1183     1.0  0.27226  0.64963  0.17781  1.0000
  C   C1184     1.0  0.30923  0.59099  0.24477  1.0000
  C   C1185     1.0  0.28868  0.56461  0.37603  1.0000
  H   H937      1.0  0.48599  0.72352  0.35397  1.0000
  C   C1186     1.0  0.46490  0.64603  0.27718  1.0000
  C   C1187     1.0  0.27691  0.62526  0.21141  1.0000
  H   H938      1.0  0.48649  0.72092  0.03860  1.0000
  H   H939      1.0  0.46303  0.63657  0.28210  1.0000
  H   H940      1.0  0.30210  0.57626  0.38694  1.0000
  C   C1188     1.0  0.45158  0.52364  0.30020  1.0000
  H   H941      1.0  0.31237  0.58362  0.23991  1.0000
  H   H942      1.0  0.27038  0.71089  0.26555  1.0000
  H   H943      1.0  0.49574  0.55797  0.21764  1.0000
  H   H944      1.0  0.28892  0.55689  0.39140  1.0000
  C   C1189     1.0  0.45517  0.56904  0.31885  1.0000
  S   S161      1.0  0.47825  0.61168  0.45875  1.0000
  H   H945      1.0  0.29113  0.72768  0.21031  1.0000
  C   C1190     1.0  0.47347  0.60816  0.33544  1.0000
  C   C1191     1.0  0.46616  0.54111  0.26986  1.0000
  H   H946      1.0  0.46984  0.59942  0.34946  1.0000
  H   H947      1.0  0.26538  0.64164  0.18344  1.0000
  C   C1192     1.0  0.37406  0.66917  0.42381  1.0000
  C   C1193     1.0  0.46214  0.59867  0.43819  1.0000
  H   H948      1.0  0.25870  0.67370  0.01386  1.0000
  C   C1194     1.0  0.29273  0.72477  0.45682  1.0000
  S   S162      1.0  0.47262  0.51841  0.12952  1.0000
  C   C1195     1.0  0.38492  0.65341  0.05337  1.0000
  C   C1196     1.0  0.25970  0.64904  0.28275  1.0000
  C   C1197     1.0  0.27253  0.59548  0.30722  1.0000
  C   C1198     1.0  0.26515  0.61972  0.21430  1.0000
  C   C1199     1.0  0.43635  0.57409  0.03757  1.0000
  S   S163      1.0  0.27426  0.70478  0.14631  1.0000
  C   C1200     1.0  0.45829  0.53507  0.29625  1.0000
  C   C1201     1.0  0.26954  0.63850  0.25288  1.0000
  H   H949      1.0  0.28489  0.67830  0.07799  1.0000
  C   C1202     1.0  0.45605  0.57531  0.05919  1.0000
  C   C1203     1.0  0.38337  0.59884  0.04400  1.0000
  C   C1204     1.0  0.46752  0.53542  0.24789  1.0000
  C   C1205     1.0  0.48958  0.68634  0.42511  1.0000
  C   C1206     1.0  0.30299  0.70001  0.04483  1.0000
  C   C1207     1.0  0.30688  0.73426  0.17623  1.0000
  C   C1208     1.0  0.26445  0.62803  0.27444  1.0000
  C   C1209     1.0  0.39957  0.57489  0.00811  1.0000
  C   C1210     1.0  0.41770  0.68640  0.99941  1.0000
  C   C1211     1.0  0.31986  0.66976  0.02247  1.0000
  H   H950      1.0  0.27521  0.55520  0.36062  1.0000
  C   C1212     1.0  0.44445  0.74953  0.02438  1.0000
  C   C1213     1.0  0.29609  0.57552  0.37353  1.0000
  C   C1214     1.0  0.47395  0.58161  0.18431  1.0000
  S   S164      1.0  0.47668  0.57301  0.11730  1.0000
  C   C1215     1.0  0.42565  0.61591  0.98923  1.0000
  H   H951      1.0  0.47901  0.61549  0.36798  1.0000
  H   H952      1.0  0.31334  0.75136  0.39716  1.0000
  C   C1216     1.0  0.47528  0.56528  0.23198  1.0000
  H   H953      1.0  0.44606  0.56922  0.32440  1.0000
  H   H954      1.0  0.30747  0.73659  0.09605  1.0000
  C   C1217     1.0  0.25864  0.59456  0.27808  1.0000
  S   S165      1.0  0.26788  0.71222  0.36445  1.0000
  H   H955      1.0  0.31257  0.62003  0.21601  1.0000
  C   C1218     1.0  0.28784  0.58469  0.33671  1.0000
  C   C1219     1.0  0.25730  0.60446  0.04635  1.0000
  C   C1220     1.0  0.30137  0.58958  0.27088  1.0000
  H   H956      1.0  0.48353  0.73684  0.25444  1.0000
  H   H957      1.0  0.48120  0.57994  0.33205  1.0000
  H   H958      1.0  0.40213  0.75051  0.01197  1.0000
  H   H959      1.0  0.46163  0.51986  0.23445  1.0000
  P   P41       1.0  0.47185  0.58038  0.00636  1.0000
  H   H960      1.0  0.46356  0.59099  0.45134  1.0000
  H   H961      1.0  0.27723  0.59972  0.26102  1.0000
  H   H962      1.0  0.26468  0.59014  0.35260  1.0000
  H   H963      1.0  0.29838  0.61757  0.26176  1.0000
  C   C1221     1.0  0.38843  0.62963  0.42702  1.0000
  H   H964      1.0  0.46019  0.57972  0.34629  1.0000
  H   H965      1.0  0.45814  0.56918  0.18599  1.0000
  H   H966      1.0  0.30155  0.59381  0.35251  1.0000
  C   C1222     1.0  0.28340  0.68308  0.03468  1.0000
  H   H967      1.0  0.30080  0.63407  0.36341  1.0000
  H   H968      1.0  0.37462  0.61833  0.07907  1.0000
  H   H969      1.0  0.31329  0.71811  0.09578  1.0000
  H   H970      1.0  0.44738  0.50941  0.28085  1.0000
  H   H971      1.0  0.43939  0.74581  0.19306  1.0000
  H   H972      1.0  0.44531  0.51913  0.32035  1.0000
  C   C1223     1.0  0.30156  0.56382  0.02333  1.0000
  C   C1224     1.0  0.47626  0.65280  0.27377  1.0000
  H   H973      1.0  0.31590  0.62720  0.33412  1.0000
  H   H974      1.0  0.31008  0.61199  0.30958  1.0000
  H   H975      1.0  0.43836  0.74706  0.04502  1.0000
  C   C1225     1.0  0.26506  0.74647  0.00503  1.0000
  C   C1226     1.0  0.28059  0.57363  0.33898  1.0000
  C   C1227     1.0  0.46080  0.52401  0.25187  1.0000
  C   C1228     1.0  0.27721  0.61284  0.01701  1.0000
  C   C1229     1.0  0.46812  0.60993  0.43833  1.0000
  C   C1230     1.0  0.39185  0.66497  0.04293  1.0000
  C   C1231     1.0  0.46528  0.57108  0.19577  1.0000
  H   H976      1.0  0.46724  0.70141  0.39611  1.0000
  C   C1232     1.0  0.29825  0.62782  0.35149  1.0000
  C   C1233     1.0  0.48493  0.66093  0.01089  1.0000
  C   C1234     1.0  0.26229  0.60987  0.20386  1.0000
  H   H977      1.0  0.25078  0.74359  0.08015  1.0000
  C   C1235     1.0  0.28645  0.62346  0.35306  1.0000
  C   C1236     1.0  0.47068  0.56264  0.29175  1.0000
  C   C1237     1.0  0.46585  0.56299  0.21972  1.0000
  H   H978      1.0  0.43153  0.51901  0.06541  1.0000
  C   C1238     1.0  0.28306  0.61468  0.33965  1.0000
  H   H979      1.0  0.28855  0.69411  0.40705  1.0000
  H   H980      1.0  0.26887  0.59804  0.18157  1.0000
  H   H981      1.0  0.42645  0.56969  0.08129  1.0000
  C   C1239     1.0  0.28096  0.56366  0.35870  1.0000
  C   C1240     1.0  0.44744  0.57653  0.01906  1.0000
  H   H982      1.0  0.27931  0.75012  0.11382  1.0000
  C   C1241     1.0  0.43509  0.57213  0.06685  1.0000
  Fe  Fe79      1.0  0.26371  0.69402  0.18972  1.0000
  C   C1242     1.0  0.39718  0.69488  0.02339  1.0000
  H   H983      1.0  0.47608  0.54202  0.05742  1.0000
  S   S166      1.0  0.30205  0.72523  0.15499  1.0000
  H   H984      1.0  0.48710  0.54404  0.10397  1.0000
  S   S167      1.0  0.25847  0.67442  0.20503  1.0000
  H   H985      1.0  0.35525  0.73501  0.19959  1.0000
  H   H986      1.0  0.46524  0.74441  0.09467  1.0000
  H   H987      1.0  0.25944  0.74588  0.99073  1.0000
  H   H988      1.0  0.47019  0.62851  0.42291  1.0000
  C   C1243     1.0  0.49552  0.64530  0.24201  1.0000
  H   H989      1.0  0.47112  0.68003  0.25866  1.0000
  H   H990      1.0  0.38318  0.61748  0.46848  1.0000
  H   H991      1.0  0.40856  0.62051  0.02815  1.0000
  C   C1244     1.0  0.49532  0.73436  0.31157  1.0000
  P   P42       1.0  0.29821  0.69205  0.02041  1.0000
  H   H992      1.0  0.27682  0.74005  0.37405  1.0000
  C   C1245     1.0  0.46315  0.57500  0.33105  1.0000
  C   C1246     1.0  0.47341  0.69723  0.40439  1.0000
  C   C1247     1.0  0.47018  0.54772  0.46623  1.0000
  H   H993      1.0  0.46922  0.60329  0.29877  1.0000
  H   H994      1.0  0.30159  0.58936  0.44856  1.0000
  H   H995      1.0  0.38581  0.67563  0.44801  1.0000
  S   S168      1.0  0.41817  0.74500  0.17390  1.0000
  H   H996      1.0  0.49440  0.59288  0.11777  1.0000
  C   C1248     1.0  0.48418  0.73392  0.27607  1.0000
  H   H997      1.0  0.36135  0.64400  0.34666  1.0000
  C   C1249     1.0  0.29861  0.58734  0.47153  1.0000
  C   C1250     1.0  0.31947  0.66584  0.99801  1.0000
  C   C1251     1.0  0.48321  0.58408  0.19682  1.0000
  C   C1252     1.0  0.31330  0.67755  0.02966  1.0000
  H   H998      1.0  0.39298  0.68850  0.38328  1.0000
  H   H999      1.0  0.44466  0.73284  0.11411  1.0000
  C   C1253     1.0  0.48162  0.61279  0.02016  1.0000
  C   C1254     1.0  0.45893  0.56298  0.29907  1.0000
  Fe  Fe80      1.0  0.25996  0.71481  0.21177  1.0000
  C   C1255     1.0  0.31632  0.60425  0.01167  1.0000
  C   C1256     1.0  0.39700  0.56279  0.01995  1.0000
  C   C1257     1.0  0.48922  0.57395  0.13020  1.0000
  C   C1258     1.0  0.48388  0.57596  0.22058  1.0000
  H   H1000     1.0  0.28124  0.73455  0.32835  1.0000
  H   H1001     1.0  0.27928  0.59581  0.08967  1.0000
  H   H1002     1.0  0.35990  0.66346  0.40504  1.0000
  C   C1259     1.0  0.37598  0.60377  0.06075  1.0000
  H   H1003     1.0  0.48676  0.63551  0.33737  1.0000
  C   C1260     1.0  0.47874  0.56891  0.30347  1.0000
  H   H1004     1.0  0.28960  0.71699  0.42290  1.0000
  C   C1261     1.0  0.48291  0.62868  0.32846  1.0000
  H   H1005     1.0  0.27618  0.73665  0.47510  1.0000
  C   C1262     1.0  0.26901  0.71106  0.30938  1.0000
  S   S169      1.0  0.47987  0.71686  0.42426  1.0000
  H   H1006     1.0  0.32359  0.74255  0.14619  1.0000
  C   C1263     1.0  0.44269  0.61580  0.00777  1.0000
  C   C1264     1.0  0.47304  0.61040  0.30701  1.0000
  H   H1007     1.0  0.29251  0.71351  0.09490  1.0000
  H   H1008     1.0  0.45101  0.68985  0.99095  1.0000
  C   C1265     1.0  0.38660  0.73692  0.20903  1.0000
  H   H1009     1.0  0.45159  0.61993  0.00738  1.0000
  H   H1010     1.0  0.46192  0.68743  0.47659  1.0000
  C   C1266     1.0  0.49487  0.55997  0.99623  1.0000
  C   C1267     1.0  0.26036  0.66911  0.05677  1.0000
  H   H1011     1.0  0.49587  0.68223  0.43302  1.0000
  C   C1268     1.0  0.37548  0.65847  0.32008  1.0000
  C   C1269     1.0  0.45528  0.74689  0.02261  1.0000
  C   C1270     1.0  0.26451  0.67452  0.02769  1.0000
  C   C1271     1.0  0.49812  0.65424  0.29221  1.0000
  H   H1012     1.0  0.47280  0.55668  0.42223  1.0000
  C   C1272     1.0  0.49629  0.58496  0.12851  1.0000
  H   H1013     1.0  0.38098  0.68191  0.04736  1.0000
  H   H1014     1.0  0.41673  0.50533  0.21991  1.0000
  H   H1015     1.0  0.37980  0.59050  0.03999  1.0000
  C   C1273     1.0  0.27233  0.58854  0.08984  1.0000
  C   C1274     1.0  0.43707  0.62131  0.98908  1.0000
  C   C1275     1.0  0.26216  0.56407  0.99213  1.0000
  C   C1276     1.0  0.28493  0.74338  0.32941  1.0000
  C   C1277     1.0  0.38037  0.61456  0.06600  1.0000
  H   H1016     1.0  0.26450  0.66612  0.09721  1.0000
  H   H1017     1.0  0.49664  0.56412  0.07321  1.0000
  C   C1278     1.0  0.25429  0.56966  0.09112  1.0000
  C   C1279     1.0  0.29916  0.70334  0.98923  1.0000
  H   H1018     1.0  0.40038  0.57796  0.98561  1.0000
  C   C1280     1.0  0.29102  0.69494  0.38438  1.0000
  C   C1281     1.0  0.47496  0.57502  0.32320  1.0000
  C   C1282     1.0  0.47976  0.54958  0.03926  1.0000
  H   H1019     1.0  0.28609  0.55297  0.05430  1.0000
  C   C1283     1.0  0.26365  0.59852  0.00335  1.0000
  C   C1284     1.0  0.49205  0.54744  0.28886  1.0000
  C   C1285     1.0  0.41004  0.74432  0.08503  1.0000
  H   H1020     1.0  0.40479  0.72248  0.03234  1.0000
  C   C1286     1.0  0.38496  0.66749  0.31932  1.0000
  C   C1287     1.0  0.26477  0.57279  0.06962  1.0000
  H   H1021     1.0  0.39514  0.67598  0.34330  1.0000
  C   C1288     1.0  0.48879  0.67834  0.11384  1.0000
  H   H1022     1.0  0.45277  0.54736  0.42028  1.0000
  C   C1289     1.0  0.25982  0.70608  0.08078  1.0000
  H   H1023     1.0  0.31829  0.74307  0.04505  1.0000
  H   H1024     1.0  0.46608  0.55793  0.05062  1.0000
  C   C1290     1.0  0.49187  0.56376  0.14357  1.0000
  C   C1291     1.0  0.45811  0.66370  0.26735  1.0000
  C   C1292     1.0  0.37158  0.65222  0.37142  1.0000
  H   H1025     1.0  0.46663  0.65957  0.46288  1.0000
  H   H1026     1.0  0.41172  0.71006  0.00251  1.0000
  C   C1293     1.0  0.25283  0.57602  0.11160  1.0000
  H   H1027     1.0  0.43216  0.50765  0.24573  1.0000
  H   H1028     1.0  0.39009  0.67347  0.29910  1.0000
  C   C1294     1.0  0.25075  0.66822  0.18324  1.0000
  C   C1295     1.0  0.29865  0.73456  0.46407  1.0000
  H   H1029     1.0  0.42685  0.67304  0.39926  1.0000
  H   H1030     1.0  0.40020  0.58415  0.06825  1.0000
  C   C1296     1.0  0.43758  0.74782  0.10542  1.0000
  C   C1297     1.0  0.33981  0.63489  0.00795  1.0000
  H   H1031     1.0  0.41242  0.70212  0.37390  1.0000
  C   C1298     1.0  0.49754  0.55416  0.23746  1.0000
  H   H1032     1.0  0.39486  0.66957  0.05774  1.0000
  H   H1033     1.0  0.47869  0.55236  0.46725  1.0000
  C   C1299     1.0  0.44664  0.74224  0.10525  1.0000
  H   H1034     1.0  0.48581  0.54587  0.30915  1.0000
  C   C1300     1.0  0.47752  0.62180  0.28925  1.0000
  C   C1301     1.0  0.47844  0.66511  0.26698  1.0000
  C   C1302     1.0  0.39438  0.67071  0.01392  1.0000
  H   H1035     1.0  0.42861  0.74275  0.11486  1.0000
  H   H1036     1.0  0.29859  0.73953  0.24114  1.0000
  H   H1037     1.0  0.25467  0.64484  0.37796  1.0000
  C   C1303     1.0  0.48275  0.68090  0.40959  1.0000
  C   C1304     1.0  0.28228  0.56741  0.02671  1.0000
  H   H1038     1.0  0.45114  0.66793  0.26470  1.0000
  H   H1039     1.0  0.48456  0.65850  0.32129  1.0000
  H   H1040     1.0  0.25321  0.60577  0.20573  1.0000
  S   S170      1.0  0.44144  0.74213  0.41308  1.0000
  S   S171      1.0  0.25304  0.72118  0.11255  1.0000
  C   C1305     1.0  0.38105  0.66130  0.37091  1.0000
  C   C1306     1.0  0.45561  0.65132  0.98907  1.0000
  H   H1041     1.0  0.39600  0.55682  0.00641  1.0000
  H   H1042     1.0  0.49067  0.68249  0.06874  1.0000
  H   H1043     1.0  0.30745  0.63456  0.03878  1.0000
  C   C1307     1.0  0.36880  0.65087  0.34611  1.0000
  C   C1308     1.0  0.41940  0.67632  0.39583  1.0000
  H   H1044     1.0  0.30271  0.73405  0.38466  1.0000
  H   H1045     1.0  0.46659  0.72290  0.29075  1.0000
  C   C1309     1.0  0.46683  0.55029  0.44079  1.0000
  H   H1046     1.0  0.36622  0.64627  0.39147  1.0000
  C   C1310     1.0  0.27376  0.58238  0.06897  1.0000
  H   H1047     1.0  0.38082  0.64791  0.99127  1.0000
  C   C1311     1.0  0.30626  0.74407  0.44235  1.0000
  H   H1048     1.0  0.29873  0.71575  0.32142  1.0000
  C   C1312     1.0  0.25322  0.52817  0.06826  1.0000
  H   H1049     1.0  0.39536  0.73755  0.21173  1.0000
  C   C1313     1.0  0.26002  0.53353  0.10749  1.0000
  C   C1314     1.0  0.26372  0.54532  0.09201  1.0000
  C   C1315     1.0  0.45556  0.54506  0.43963  1.0000
  C   C1316     1.0  0.47817  0.70243  0.04797  1.0000
  H   H1050     1.0  0.48431  0.67361  0.15966  1.0000
  H   H1051     1.0  0.49217  0.66313  0.99208  1.0000
  C   C1317     1.0  0.31401  0.74888  0.05477  1.0000
  H   H1052     1.0  0.41073  0.71467  0.46253  1.0000
  P   P43       1.0  0.26693  0.56391  0.04473  1.0000
  H   H1053     1.0  0.47716  0.62339  0.26724  1.0000
  C   C1318     1.0  0.48565  0.72643  0.33204  1.0000
  C   C1319     1.0  0.25476  0.52496  0.09564  1.0000
  H   H1054     1.0  0.26360  0.68250  0.41525  1.0000
  C   C1320     1.0  0.49452  0.73808  0.28349  1.0000
  H   H1055     1.0  0.42135  0.59093  0.04143  1.0000
  C   C1321     1.0  0.48242  0.63107  0.29990  1.0000
  C   C1322     1.0  0.39574  0.55841  0.04899  1.0000
  H   H1056     1.0  0.25680  0.59546  0.25746  1.0000
  Fe  Fe81      1.0  0.25741  0.71702  0.40154  1.0000
  H   H1057     1.0  0.31565  0.57625  0.99024  1.0000
  C   C1323     1.0  0.30772  0.74385  0.41383  1.0000
  C   C1324     1.0  0.44168  0.68858  0.99373  1.0000
  H   H1058     1.0  0.47175  0.74750  0.99490  1.0000
  C   C1325     1.0  0.47461  0.72603  0.29654  1.0000
  Fe  Fe82      1.0  0.49160  0.62902  0.43886  1.0000
  S   S172      1.0  0.48410  0.66743  0.40181  1.0000
  C   C1326     1.0  0.44706  0.65659  0.98121  1.0000
  C   C1327     1.0  0.48838  0.69722  0.43003  1.0000
  H   H1059     1.0  0.35156  0.68138  0.46940  1.0000
  H   H1060     1.0  0.28282  0.63883  0.41491  1.0000
  H   H1061     1.0  0.33632  0.64239  0.00216  1.0000
  H   H1062     1.0  0.48716  0.67054  0.26393  1.0000
  H   H1063     1.0  0.46752  0.60308  0.00741  1.0000
  C   C1328     1.0  0.30871  0.61054  0.00207  1.0000
  H   H1064     1.0  0.32276  0.60200  0.99662  1.0000
  H   H1065     1.0  0.39385  0.54901  0.05801  1.0000
  H   H1066     1.0  0.48796  0.56933  0.29692  1.0000
  H   H1067     1.0  0.49056  0.66004  0.21880  1.0000
  C   C1329     1.0  0.38874  0.64082  0.41129  1.0000
  C   C1330     1.0  0.48101  0.67453  0.14084  1.0000
  C   C1331     1.0  0.45586  0.65145  0.27406  1.0000
  C   C1332     1.0  0.36913  0.67929  0.46049  1.0000
  H   H1068     1.0  0.47773  0.70107  0.07042  1.0000
  C   C1333     1.0  0.25953  0.68259  0.37505  1.0000
  C   C1334     1.0  0.34587  0.61803  0.99694  1.0000
  S   S173      1.0  0.49202  0.64393  0.45955  1.0000
  C   C1335     1.0  0.49030  0.59281  0.02351  1.0000
  C   C1336     1.0  0.37885  0.63393  0.46995  1.0000
  H   H1069     1.0  0.26125  0.53104  0.12869  1.0000
  C   C1337     1.0  0.31531  0.74786  0.21112  1.0000
  C   C1338     1.0  0.29044  0.70946  0.98917  1.0000
  H   H1070     1.0  0.49453  0.54326  0.02301  1.0000
  P   P44       1.0  0.48805  0.64585  0.27702  1.0000
  C   C1339     1.0  0.41833  0.74862  0.98734  1.0000
  H   H1071     1.0  0.28601  0.74832  0.05456  1.0000
  H   H1072     1.0  0.43880  0.53348  0.46318  1.0000
  H   H1073     1.0  0.25801  0.65721  0.28609  1.0000
  C   C1340     1.0  0.46939  0.67052  0.26386  1.0000
  C   C1341     1.0  0.49016  0.55027  0.01980  1.0000
  H   H1074     1.0  0.25137  0.66398  0.06543  1.0000
  C   C1342     1.0  0.38304  0.74714  0.20045  1.0000
  H   H1075     1.0  0.46928  0.68220  0.38747  1.0000
  C   C1343     1.0  0.37719  0.67482  0.44427  1.0000
  H   H1076     1.0  0.31163  0.71800  0.23736  1.0000
  H   H1077     1.0  0.25297  0.68255  0.33827  1.0000
  C   C1344     1.0  0.49383  0.65926  0.31406  1.0000
  C   C1345     1.0  0.28244  0.74650  0.35513  1.0000
  H   H1078     1.0  0.32435  0.65957  0.99285  1.0000
  Fe  Fe83      1.0  0.49537  0.65520  0.41504  1.0000
  H   H1079     1.0  0.28754  0.73567  0.02107  1.0000
  H   H1080     1.0  0.28183  0.58294  0.99609  1.0000
  Fe  Fe84      1.0  0.46075  0.75015  0.39963  1.0000
  H   H1081     1.0  0.28663  0.71745  0.47321  1.0000
  H   H1082     1.0  0.49804  0.66843  0.34506  1.0000
  H   H1083     1.0  0.49814  0.68029  0.11169  1.0000
  H   H1084     1.0  0.25271  0.61991  0.31607  1.0000
  H   H1085     1.0  0.27019  0.56141  0.98640  1.0000
  H   H1086     1.0  0.49381  0.70147  0.44168  1.0000
  H   H1087     1.0  0.38945  0.73689  0.99324  1.0000
  H   H1088     1.0  0.49888  0.53028  0.11657  1.0000
  C   C1346     1.0  0.30619  0.67776  0.98743  1.0000
  C   C1347     1.0  0.39887  0.73872  0.98579  1.0000
  H   H1089     1.0  0.26050  0.63620  0.98477  1.0000
  C   C1348     1.0  0.24937  0.59085  0.30253  1.0000
  C   C1349     1.0  0.25063  0.72039  0.05932  1.0000
  C   C1350     1.0  0.25189  0.71622  0.03478  1.0000
  C   C1351     1.0  0.43275  0.50279  0.22959  1.0000
  H   H1090     1.0  0.25189  0.51582  0.10765  1.0000
  H   H1091     1.0  0.29825  0.74987  0.11873  1.0000
  H   H1092     1.0  0.49670  0.62033  0.03335  1.0000
  C   C1352     1.0  0.49628  0.60267  0.03025  1.0000
  C   C1353     1.0  0.49519  0.65331  0.21737  1.0000
  H   H1093     1.0  0.44856  0.50872  0.13064  1.0000
  S   S174      1.0  0.24936  0.70318  0.19122  1.0000
  C   C1354     1.0  0.43269  0.60135  0.47772  1.0000
  H   H1094     1.0  0.37158  0.68354  0.47639  1.0000
  H   H1095     1.0  0.31092  0.75177  0.44717  1.0000
  C   C1355     1.0  0.29224  0.75164  0.30501  1.0000
  H   H1096     1.0  0.29439  0.74916  0.28517  1.0000
  H   H1097     1.0  0.39185  0.54861  0.47969  1.0000
  H   H1098     1.0  0.41536  0.59232  0.47875  1.0000
  H   H1099     1.0  0.33742  0.59571  0.47694  1.0000
  H   H1100     1.0  0.34591  0.61881  0.47974  1.0000
  H   H1101     1.0  0.31333  0.58072  0.47871  1.0000
  C   C1356     1.0  0.31254  0.66974  0.98067  1.0000
  Fe  Fe85      1.0  0.45214  0.53119  0.64713  1.0000
  S   S175      1.0  0.43381  0.53395  0.65279  1.0000
  Fe  Fe86      1.0  0.46279  0.55695  0.63855  1.0000
  S   S176      1.0  0.44563  0.56159  0.64341  1.0000
  H   H1102     1.0  0.29072  0.62333  0.68500  1.0000
  Fe  Fe87      1.0  0.43921  0.54567  0.68061  1.0000
  S   S177      1.0  0.42597  0.54674  0.71972  1.0000
  Fe  Fe88      1.0  0.44160  0.54978  0.61497  1.0000
  S   S178      1.0  0.43449  0.55889  0.57877  1.0000
  S   S179      1.0  0.45685  0.54177  0.67759  1.0000
  S   S180      1.0  0.45940  0.54622  0.60804  1.0000
  H   H1103     1.0  0.32569  0.60342  0.51148  1.0000
  Fe  Fe89      1.0  0.42482  0.56206  0.87744  1.0000
  S   S181      1.0  0.41693  0.57754  0.87785  1.0000
  S   S182      1.0  0.43310  0.55667  0.83774  1.0000
  Fe  Fe90      1.0  0.42802  0.56033  0.93901  1.0000
  S   S183      1.0  0.42062  0.57573  0.94284  1.0000
  H   H1104     1.0  0.36353  0.60704  0.68427  1.0000
  Fe  Fe91      1.0  0.40695  0.56778  0.92268  1.0000
  S   S184      1.0  0.38879  0.56883  0.94436  1.0000
  Fe  Fe92      1.0  0.43100  0.58425  0.89798  1.0000
  S   S185      1.0  0.44166  0.60299  0.88021  1.0000
  S   S186      1.0  0.41374  0.55153  0.92150  1.0000
  S   S187      1.0  0.43949  0.56963  0.89516  1.0000
  C   C1357     1.0  0.41483  0.57937  0.72297  1.0000
  S   S188      1.0  0.43748  0.72901  0.86223  1.0000
  H   H1105     1.0  0.27277  0.60492  0.93808  1.0000
  H   H1106     1.0  0.41669  0.57153  0.56837  1.0000
  H   H1107     1.0  0.25724  0.64549  0.66453  1.0000
  Fe  Fe93      1.0  0.42201  0.73204  0.68291  1.0000
  S   S189      1.0  0.44077  0.73123  0.67473  1.0000
  Fe  Fe94      1.0  0.41307  0.70545  0.69344  1.0000
  S   S190      1.0  0.43125  0.70294  0.68693  1.0000
  S   S191      1.0  0.39819  0.68895  0.70503  1.0000
  Fe  Fe95      1.0  0.43440  0.71586  0.71336  1.0000
  S   S192      1.0  0.44539  0.71370  0.74552  1.0000
  Fe  Fe96      1.0  0.43571  0.71854  0.64930  1.0000
  S   S193      1.0  0.44784  0.71896  0.60749  1.0000
  S   S194      1.0  0.41580  0.71722  0.72284  1.0000
  S   S195      1.0  0.41734  0.72044  0.65450  1.0000
  Fe  Fe97      1.0  0.35858  0.65602  0.62503  1.0000
  S   S196      1.0  0.36313  0.63861  0.63089  1.0000
  S   S197      1.0  0.37216  0.67336  0.61477  1.0000
  Fe  Fe98      1.0  0.33312  0.64508  0.62738  1.0000
  S   S198      1.0  0.33578  0.62697  0.63407  1.0000
  S   S199      1.0  0.31608  0.64927  0.62269  1.0000
  Fe  Fe99      1.0  0.34602  0.63210  0.66454  1.0000
  S   S200      1.0  0.34361  0.61858  0.70596  1.0000
  Fe  Fe100     1.0  0.35245  0.63519  0.59988  1.0000
  S   S201      1.0  0.35753  0.62621  0.56496  1.0000
  S   S202      1.0  0.34209  0.64978  0.66051  1.0000
  S   S203      1.0  0.34921  0.65307  0.59136  1.0000
  Fe  Fe101     1.0  0.33535  0.62158  0.86328  1.0000
  S   S204      1.0  0.32682  0.60242  0.87221  1.0000
  S   S205      1.0  0.33866  0.63481  0.82094  1.0000
  Fe  Fe102     1.0  0.33600  0.61961  0.92628  1.0000
  H   H1108     1.0  0.33175  0.57881  0.58013  1.0000
  C   C1358     1.0  0.44461  0.50739  0.57754  1.0000
  Fe  Fe103     1.0  0.34015  0.60022  0.89782  1.0000
  S   S206      1.0  0.35182  0.58832  0.88601  1.0000
  Fe  Fe104     1.0  0.31543  0.60432  0.91208  1.0000
  S   S207      1.0  0.29586  0.60184  0.92998  1.0000
  S   S208      1.0  0.34906  0.61949  0.88700  1.0000
  S   S209      1.0  0.32326  0.62368  0.90121  1.0000
  C   C1359     1.0  0.40460  0.57631  0.74512  1.0000
  Fe  Fe105     1.0  0.25469  0.61337  0.63518  1.0000
  S   S210      1.0  0.27193  0.60844  0.63118  1.0000
  H   H1109     1.0  0.44679  0.61038  0.68176  1.0000
  H   H1110     1.0  0.34755  0.67477  0.66564  1.0000
  C   C1360     1.0  0.44323  0.72179  0.57586  1.0000
  C   C1361     1.0  0.28374  0.59509  0.91894  1.0000
  S   S211      1.0  0.44508  0.71312  0.93049  1.0000
  C   C1362     1.0  0.30370  0.63022  0.84942  1.0000
  C   C1363     1.0  0.26326  0.58353  0.90655  1.0000
  C   C1364     1.0  0.26299  0.59243  0.92069  1.0000
  C   C1365     1.0  0.27315  0.59815  0.92686  1.0000
  H   H1111     1.0  0.27624  0.58719  0.61789  1.0000
  C   C1366     1.0  0.33963  0.57831  0.53776  1.0000
  H   H1112     1.0  0.25483  0.59461  0.92787  1.0000
  H   H1113     1.0  0.25305  0.67720  0.61470  1.0000
  C   C1367     1.0  0.35275  0.63011  0.53383  1.0000
  C   C1368     1.0  0.35171  0.64150  0.52393  1.0000
  H   H1114     1.0  0.46133  0.56611  0.97282  1.0000
  C   C1369     1.0  0.40792  0.56662  0.61270  1.0000
  C   C1370     1.0  0.38100  0.58936  0.53668  1.0000
  C   C1371     1.0  0.35060  0.62191  0.51783  1.0000
  H   H1115     1.0  0.35350  0.64794  0.53576  1.0000
  H   H1116     1.0  0.35868  0.67387  0.70203  1.0000
  H   H1117     1.0  0.49826  0.56279  0.76572  1.0000
  H   H1118     1.0  0.35147  0.61310  0.52518  1.0000
  C   C1372     1.0  0.34201  0.62313  0.73789  1.0000
  C   C1373     1.0  0.33962  0.61475  0.76399  1.0000
  C   C1374     1.0  0.33851  0.61819  0.78963  1.0000
  C   C1375     1.0  0.33972  0.63004  0.78936  1.0000
  C   C1376     1.0  0.34201  0.63839  0.76328  1.0000
  C   C1377     1.0  0.34318  0.63496  0.73766  1.0000
  H   H1119     1.0  0.33865  0.60557  0.76446  1.0000
  H   H1120     1.0  0.33683  0.61169  0.80953  1.0000
  H   H1121     1.0  0.34303  0.64757  0.76286  1.0000
  H   H1122     1.0  0.34512  0.64152  0.71774  1.0000
  C   C1378     1.0  0.30387  0.63781  0.62524  1.0000
  C   C1379     1.0  0.30473  0.62624  0.62768  1.0000
  C   C1380     1.0  0.29484  0.61727  0.63005  1.0000
  C   C1381     1.0  0.28404  0.61981  0.62957  1.0000
  C   C1382     1.0  0.28316  0.63137  0.62715  1.0000
  C   C1383     1.0  0.29304  0.64034  0.62501  1.0000
  H   H1123     1.0  0.31297  0.62415  0.62779  1.0000
  H   H1124     1.0  0.29555  0.60833  0.63257  1.0000
  H   H1125     1.0  0.27488  0.63345  0.62672  1.0000
  H   H1126     1.0  0.29229  0.64926  0.62312  1.0000
  C   C1384     1.0  0.39149  0.68451  0.67915  1.0000
  C   C1385     1.0  0.39326  0.69212  0.65238  1.0000
  C   C1386     1.0  0.38727  0.68857  0.63288  1.0000
  C   C1387     1.0  0.37955  0.67737  0.63986  1.0000
  C   C1388     1.0  0.37785  0.66971  0.66649  1.0000
  C   C1389     1.0  0.38375  0.67331  0.68613  1.0000
  H   H1127     1.0  0.39912  0.70078  0.64685  1.0000
  H   H1128     1.0  0.38858  0.69456  0.61240  1.0000
  H   H1129     1.0  0.37191  0.66107  0.67209  1.0000
  H   H1130     1.0  0.38227  0.66742  0.70689  1.0000
  C   C1390     1.0  0.43998  0.72493  0.82955  1.0000
  C   C1391     1.0  0.45018  0.72176  0.81877  1.0000
  C   C1392     1.0  0.45172  0.71838  0.79300  1.0000
  C   C1393     1.0  0.44318  0.71830  0.77751  1.0000
  C   C1394     1.0  0.43308  0.72167  0.78807  1.0000
  C   C1395     1.0  0.43145  0.72484  0.81409  1.0000
  C   C1396     1.0  0.30435  0.58709  0.58867  1.0000
  C   C1397     1.0  0.32762  0.59161  0.54873  1.0000
  H   H1131     1.0  0.42643  0.72164  0.77641  1.0000
  H   H1132     1.0  0.42348  0.72718  0.82229  1.0000
  C   C1398     1.0  0.32936  0.59633  0.51939  1.0000
  H   H1133     1.0  0.41640  0.68177  0.65350  1.0000
  H   H1134     1.0  0.37166  0.61970  0.84934  1.0000
  H   H1135     1.0  0.26444  0.68877  0.64038  1.0000
  P   P45       1.0  0.28155  0.62214  0.78715  1.0000
  H   H1136     1.0  0.41206  0.60760  0.73924  1.0000
  H   H1137     1.0  0.42580  0.72211  0.59607  1.0000
  C   C1399     1.0  0.26027  0.74224  0.53294  1.0000
  C   C1400     1.0  0.30910  0.70690  0.96609  1.0000
  H   H1138     1.0  0.30670  0.57662  0.53126  1.0000
  C   C1401     1.0  0.37938  0.57550  0.92714  1.0000
  C   C1402     1.0  0.37026  0.57885  0.94342  1.0000
  C   C1403     1.0  0.36212  0.58344  0.93085  1.0000
  C   C1404     1.0  0.36282  0.58439  0.90200  1.0000
  C   C1405     1.0  0.37205  0.58122  0.88567  1.0000
  C   C1406     1.0  0.38039  0.57696  0.89803  1.0000
  H   H1139     1.0  0.49723  0.60311  0.86585  1.0000
  H   H1140     1.0  0.35500  0.58574  0.94374  1.0000
  H   H1141     1.0  0.37260  0.58182  0.86345  1.0000
  H   H1142     1.0  0.38729  0.57432  0.88536  1.0000
  H   H1143     1.0  0.36807  0.70455  0.66382  1.0000
  C   C1407     1.0  0.43194  0.72305  0.57619  1.0000
  C   C1408     1.0  0.45929  0.61835  0.89088  1.0000
  C   C1409     1.0  0.45016  0.60807  0.90208  1.0000
  C   C1410     1.0  0.44753  0.60230  0.93091  1.0000
  C   C1411     1.0  0.40903  0.60107  0.92488  1.0000
  C   C1412     1.0  0.29815  0.65527  0.68167  1.0000
  H   H1144     1.0  0.43248  0.74495  0.95928  1.0000
  H   H1145     1.0  0.44060  0.59433  0.93970  1.0000
  S   S212      1.0  0.25030  0.57547  0.90089  1.0000
  C   C1413     1.0  0.43139  0.55629  0.54654  1.0000
  C   C1414     1.0  0.43244  0.56596  0.52377  1.0000
  C   C1415     1.0  0.42975  0.56434  0.49824  1.0000
  H   H1146     1.0  0.45601  0.74300  0.75036  1.0000
  C   C1416     1.0  0.42471  0.54335  0.51800  1.0000
  C   C1417     1.0  0.42726  0.54499  0.54359  1.0000
  H   H1147     1.0  0.43542  0.57478  0.52579  1.0000
  C   C1418     1.0  0.47155  0.58358  0.96941  1.0000
  C   C1419     1.0  0.31295  0.74447  0.79149  1.0000
  H   H1148     1.0  0.42564  0.53747  0.56131  1.0000
  C   C1420     1.0  0.42810  0.54943  0.75250  1.0000
  C   C1421     1.0  0.43899  0.55071  0.75877  1.0000
  C   C1422     1.0  0.44026  0.55281  0.78503  1.0000
  C   C1423     1.0  0.43075  0.55385  0.80523  1.0000
  C   C1424     1.0  0.41986  0.55263  0.79894  1.0000
  C   C1425     1.0  0.41857  0.55043  0.77275  1.0000
  H   H1149     1.0  0.44640  0.54992  0.74355  1.0000
  H   H1150     1.0  0.44869  0.55361  0.78978  1.0000
  H   H1151     1.0  0.41244  0.55329  0.81431  1.0000
  H   H1152     1.0  0.41009  0.54937  0.76825  1.0000
  H   H1153     1.0  0.34362  0.57132  0.54483  1.0000
  C   C1426     1.0  0.28240  0.57163  0.61742  1.0000
  C   C1427     1.0  0.42384  0.60726  0.67104  1.0000
  Fe  Fe106     1.0  0.25985  0.71450  0.71086  1.0000
  H   H1154     1.0  0.39024  0.55145  0.73176  1.0000
  C   C1428     1.0  0.26737  0.67362  0.66685  1.0000
  H   H1155     1.0  0.40969  0.62899  0.66121  1.0000
  C   C1429     1.0  0.49724  0.52234  0.53160  1.0000
  H   H1156     1.0  0.39823  0.72708  0.95807  1.0000
  C   C1430     1.0  0.25077  0.67942  0.88257  1.0000
  H   H1157     1.0  0.31478  0.63656  0.97669  1.0000
  C   C1431     1.0  0.41725  0.59207  0.52117  1.0000
  C   C1432     1.0  0.39852  0.57251  0.52054  1.0000
  H   H1158     1.0  0.41449  0.56240  0.61881  1.0000
  C   C1433     1.0  0.48983  0.61601  0.84414  1.0000
  H   H1159     1.0  0.47501  0.52956  0.57245  1.0000
  C   C1434     1.0  0.48074  0.52887  0.55327  1.0000
  H   H1160     1.0  0.38220  0.57218  0.64131  1.0000
  C   C1435     1.0  0.46928  0.69685  0.56607  1.0000
  H   H1161     1.0  0.48419  0.53354  0.48166  1.0000
  C   C1436     1.0  0.45343  0.51565  0.55574  1.0000
  C   C1437     1.0  0.46939  0.50944  0.64507  1.0000
  C   C1438     1.0  0.46572  0.57476  0.95891  1.0000
  C   C1439     1.0  0.25426  0.71527  0.78216  1.0000
  C   C1440     1.0  0.25107  0.71352  0.83312  1.0000
  C   C1441     1.0  0.25732  0.75014  0.83694  1.0000
  H   H1162     1.0  0.49483  0.68874  0.56175  1.0000
  C   C1442     1.0  0.39822  0.56677  0.63333  1.0000
  C   C1443     1.0  0.49607  0.63529  0.69134  1.0000
  C   C1444     1.0  0.30713  0.74695  0.50373  1.0000
  H   H1163     1.0  0.43029  0.52589  0.60412  1.0000
  Fe  Fe107     1.0  0.48964  0.63182  0.94073  1.0000
  H   H1164     1.0  0.25617  0.62089  0.91579  1.0000
  C   C1445     1.0  0.25182  0.59536  0.80622  1.0000
  C   C1446     1.0  0.49277  0.58597  0.64681  1.0000
  H   H1165     1.0  0.38149  0.60483  0.93911  1.0000
  H   H1166     1.0  0.25617  0.69068  0.82060  1.0000
  C   C1447     1.0  0.26052  0.58899  0.50951  1.0000
  C   C1448     1.0  0.46461  0.74403  0.70737  1.0000
  H   H1167     1.0  0.39671  0.73892  0.63401  1.0000
  H   H1168     1.0  0.45981  0.51262  0.54239  1.0000
  H   H1169     1.0  0.25804  0.68653  0.88179  1.0000
  C   C1449     1.0  0.44039  0.59160  0.70040  1.0000
  C   C1450     1.0  0.44346  0.58084  0.70388  1.0000
  C   C1451     1.0  0.45447  0.58029  0.68946  1.0000
  C   C1452     1.0  0.46259  0.59052  0.67211  1.0000
  C   C1453     1.0  0.45980  0.60134  0.66948  1.0000
  C   C1454     1.0  0.44875  0.60191  0.68369  1.0000
  C   C1455     1.0  0.39568  0.56636  0.74810  1.0000
  C   C1456     1.0  0.43175  0.59692  0.80563  1.0000
  C   C1457     1.0  0.42747  0.58573  0.80228  1.0000
  C   C1458     1.0  0.42573  0.58437  0.77611  1.0000
  H   H1170     1.0  0.43737  0.57283  0.71766  1.0000
  H   H1171     1.0  0.45673  0.57191  0.69178  1.0000
  H   H1172     1.0  0.47109  0.59007  0.66090  1.0000
  H   H1173     1.0  0.46625  0.60926  0.65646  1.0000
  H   H1174     1.0  0.40359  0.58152  0.76032  1.0000
  H   H1175     1.0  0.38796  0.56384  0.76572  1.0000
  H   H1176     1.0  0.43331  0.59791  0.82587  1.0000
  H   H1177     1.0  0.42585  0.57801  0.81964  1.0000
  H   H1178     1.0  0.42280  0.57561  0.77368  1.0000
  C   C1459     1.0  0.30297  0.57487  0.59505  1.0000
  P   P46       1.0  0.31881  0.59697  0.57489  1.0000
  C   C1460     1.0  0.31763  0.61150  0.55912  1.0000
  C   C1461     1.0  0.32518  0.59731  0.60471  1.0000
  C   C1462     1.0  0.31804  0.59536  0.63225  1.0000
  C   C1463     1.0  0.32303  0.59582  0.65516  1.0000
  C   C1464     1.0  0.33517  0.59833  0.65076  1.0000
  C   C1465     1.0  0.34233  0.60044  0.62338  1.0000
  C   C1466     1.0  0.33737  0.59995  0.60044  1.0000
  C   C1467     1.0  0.31096  0.61305  0.53921  1.0000
  C   C1468     1.0  0.31018  0.62429  0.52665  1.0000
  C   C1469     1.0  0.31568  0.63401  0.53466  1.0000
  C   C1470     1.0  0.32207  0.63251  0.55498  1.0000
  C   C1471     1.0  0.32318  0.62133  0.56692  1.0000
  H   H1179     1.0  0.29104  0.55778  0.61430  1.0000
  H   H1180     1.0  0.31036  0.57124  0.58979  1.0000
  H   H1181     1.0  0.30864  0.59366  0.63611  1.0000
  H   H1182     1.0  0.31751  0.59452  0.67627  1.0000
  H   H1183     1.0  0.33903  0.59908  0.66841  1.0000
  H   H1184     1.0  0.35176  0.60288  0.61969  1.0000
  H   H1185     1.0  0.34306  0.60196  0.57927  1.0000
  H   H1186     1.0  0.30647  0.60560  0.53308  1.0000
  H   H1187     1.0  0.35795  0.74723  0.71394  1.0000
  H   H1188     1.0  0.31502  0.64271  0.52507  1.0000
  H   H1189     1.0  0.32627  0.64003  0.56138  1.0000
  H   H1190     1.0  0.32840  0.62047  0.58213  1.0000
  H   H1191     1.0  0.26378  0.70453  0.59486  1.0000
  C   C1472     1.0  0.37836  0.58774  0.79692  1.0000
  C   C1473     1.0  0.27412  0.65235  0.74906  1.0000
  C   C1474     1.0  0.37786  0.60877  0.53395  1.0000
  C   C1475     1.0  0.29449  0.63764  0.92546  1.0000
  C   C1476     1.0  0.40379  0.73324  0.96588  1.0000
  H   H1192     1.0  0.41913  0.70357  0.95169  1.0000
  H   H1193     1.0  0.41479  0.74934  0.80134  1.0000
  C   C1477     1.0  0.48586  0.53113  0.50234  1.0000
  C   C1478     1.0  0.29768  0.66583  0.66445  1.0000
  C   C1479     1.0  0.28926  0.69077  0.90506  1.0000
  C   C1480     1.0  0.28272  0.69376  0.92782  1.0000
  H   H1194     1.0  0.47847  0.67395  0.48138  1.0000
  H   H1195     1.0  0.34648  0.57977  0.49312  1.0000
  C   C1481     1.0  0.48775  0.61242  0.52373  1.0000
  C   C1482     1.0  0.29717  0.72115  0.52164  1.0000
  H   H1196     1.0  0.48830  0.54280  0.79672  1.0000
  C   C1483     1.0  0.45415  0.52772  0.55176  1.0000
  C   C1484     1.0  0.37779  0.73073  0.67879  1.0000
  C   C1485     1.0  0.37230  0.72265  0.66577  1.0000
  C   C1486     1.0  0.37234  0.71081  0.67373  1.0000
  C   C1487     1.0  0.37798  0.70702  0.69439  1.0000
  C   C1488     1.0  0.38388  0.71506  0.70654  1.0000
  C   C1489     1.0  0.38384  0.72690  0.69872  1.0000
  C   C1490     1.0  0.25876  0.65486  0.65914  1.0000
  H   H1197     1.0  0.39858  0.57162  0.83282  1.0000
  H   H1198     1.0  0.25729  0.55248  0.59973  1.0000
  C   C1491     1.0  0.25061  0.56569  0.61626  1.0000
  H   H1199     1.0  0.47277  0.58467  0.54008  1.0000
  H   H1200     1.0  0.27663  0.61517  0.84984  1.0000
  H   H1201     1.0  0.41762  0.69738  0.48086  1.0000
  C   C1492     1.0  0.25404  0.66050  0.63841  1.0000
  H   H1202     1.0  0.46212  0.70314  0.86369  1.0000
  S   S213      1.0  0.29811  0.74121  0.64834  1.0000
  C   C1493     1.0  0.34124  0.58304  0.50869  1.0000
  C   C1494     1.0  0.26589  0.67851  0.92970  1.0000
  C   C1495     1.0  0.30122  0.63335  0.80158  1.0000
  H   H1203     1.0  0.37793  0.69784  0.70076  1.0000
  H   H1204     1.0  0.38862  0.71211  0.72179  1.0000
  H   H1205     1.0  0.38866  0.73305  0.70799  1.0000
  C   C1496     1.0  0.33018  0.72184  0.62204  1.0000
  C   C1497     1.0  0.31973  0.72283  0.63838  1.0000
  C   C1498     1.0  0.31241  0.71315  0.65967  1.0000
  C   C1499     1.0  0.31548  0.70244  0.66455  1.0000
  C   C1500     1.0  0.32582  0.70127  0.64765  1.0000
  C   C1501     1.0  0.33324  0.71113  0.62669  1.0000
  P   P47       1.0  0.32996  0.68750  0.65408  1.0000
  C   C1502     1.0  0.31720  0.67512  0.66657  1.0000
  C   C1503     1.0  0.33854  0.68627  0.62096  1.0000
  C   C1504     1.0  0.33328  0.67992  0.60412  1.0000
  C   C1505     1.0  0.33996  0.67894  0.57864  1.0000
  C   C1506     1.0  0.35193  0.68435  0.56964  1.0000
  C   C1507     1.0  0.35721  0.69082  0.58605  1.0000
  C   C1508     1.0  0.35057  0.69173  0.61168  1.0000
  C   C1509     1.0  0.30715  0.67570  0.65683  1.0000
  H   H1206     1.0  0.31701  0.64090  0.81219  1.0000
  C   C1510     1.0  0.26010  0.60617  0.79442  1.0000
  H   H1207     1.0  0.29096  0.64754  0.68658  1.0000
  C   C1511     1.0  0.31758  0.66449  0.68406  1.0000
  C   C1512     1.0  0.33854  0.68720  0.67994  1.0000
  C   C1513     1.0  0.33731  0.69397  0.69976  1.0000
  C   C1514     1.0  0.34379  0.69350  0.72013  1.0000
  C   C1515     1.0  0.35144  0.68621  0.72103  1.0000
  C   C1516     1.0  0.35274  0.67950  0.70134  1.0000
  C   C1517     1.0  0.34638  0.68003  0.68077  1.0000
  H   H1208     1.0  0.33589  0.72940  0.60575  1.0000
  H   H1209     1.0  0.31733  0.73111  0.63460  1.0000
  H   H1210     1.0  0.30431  0.71398  0.67230  1.0000
  H   H1211     1.0  0.30972  0.69508  0.68135  1.0000
  H   H1212     1.0  0.34139  0.71061  0.61380  1.0000
  H   H1213     1.0  0.32406  0.67548  0.61071  1.0000
  C   C1518     1.0  0.46080  0.59564  0.78268  1.0000
  H   H1214     1.0  0.35718  0.68329  0.55036  1.0000
  H   H1215     1.0  0.36656  0.69469  0.57953  1.0000
  H   H1216     1.0  0.35490  0.69654  0.62441  1.0000
  H   H1217     1.0  0.30671  0.68364  0.64262  1.0000
  C   C1519     1.0  0.30809  0.65462  0.69156  1.0000
  H   H1218     1.0  0.25823  0.56351  0.95199  1.0000
  H   H1219     1.0  0.29009  0.66629  0.65627  1.0000
  H   H1220     1.0  0.32532  0.66364  0.69118  1.0000
  H   H1221     1.0  0.33134  0.69956  0.69966  1.0000
  H   H1222     1.0  0.34287  0.69877  0.73529  1.0000
  H   H1223     1.0  0.35644  0.68581  0.73686  1.0000
  C   C1520     1.0  0.41113  0.60043  0.95172  1.0000
  C   C1521     1.0  0.29202  0.56719  0.60915  1.0000
  C   C1522     1.0  0.39691  0.55943  0.72886  1.0000
  C   C1523     1.0  0.42810  0.59421  0.75313  1.0000
  C   C1524     1.0  0.40067  0.57721  0.57566  1.0000
  P   P48       1.0  0.42620  0.59232  0.71918  1.0000
  C   C1525     1.0  0.43443  0.60676  0.78258  1.0000
  C   C1526     1.0  0.43272  0.60541  0.75631  1.0000
  C   C1527     1.0  0.29458  0.59146  0.59678  1.0000
  H   H1224     1.0  0.27399  0.56571  0.62910  1.0000
  C   C1528     1.0  0.28969  0.71567  0.54888  1.0000
  C   C1529     1.0  0.42492  0.59608  0.53694  1.0000
  C   C1530     1.0  0.39302  0.57610  0.82251  1.0000
  H   H1225     1.0  0.47971  0.52691  0.63985  1.0000
  C   C1531     1.0  0.40693  0.56260  0.70632  1.0000
  C   C1532     1.0  0.41579  0.57262  0.70310  1.0000
  C   C1533     1.0  0.28367  0.58375  0.61111  1.0000
  H   H1226     1.0  0.28297  0.71945  0.55819  1.0000
  H   H1227     1.0  0.29537  0.60082  0.59277  1.0000
  P   P49       1.0  0.41542  0.68373  0.53842  1.0000
  S   S214      1.0  0.45581  0.51326  0.64622  1.0000
  H   H1228     1.0  0.40812  0.55698  0.69206  1.0000
  H   H1229     1.0  0.42351  0.57481  0.68556  1.0000
  H   H1230     1.0  0.43803  0.61540  0.78497  1.0000
  C   C1534     1.0  0.33286  0.58257  0.55769  1.0000
  C   C1535     1.0  0.36982  0.60906  0.79147  1.0000
  C   C1536     1.0  0.43018  0.68487  0.51890  1.0000
  H   H1231     1.0  0.42881  0.60257  0.65886  1.0000
  C   C1537     1.0  0.38385  0.59609  0.72915  1.0000
  C   C1538     1.0  0.42154  0.60438  0.70082  1.0000
  H   H1232     1.0  0.43513  0.61309  0.73846  1.0000
  C   C1539     1.0  0.25674  0.58530  0.58466  1.0000
  C   C1540     1.0  0.41648  0.68188  0.63157  1.0000
  H   H1233     1.0  0.42850  0.69895  0.61472  1.0000
  H   H1234     1.0  0.28838  0.58104  0.55350  1.0000
  C   C1541     1.0  0.30487  0.62012  0.70320  1.0000
  C   C1542     1.0  0.42323  0.69162  0.60968  1.0000
  C   C1543     1.0  0.40965  0.67241  0.62524  1.0000
  H   H1235     1.0  0.40425  0.66497  0.64235  1.0000
  C   C1544     1.0  0.47982  0.51781  0.64162  1.0000
  C   C1545     1.0  0.47577  0.66478  0.49301  1.0000
  H   H1236     1.0  0.24976  0.67265  0.51771  1.0000
  H   H1237     1.0  0.43540  0.70396  0.50717  1.0000
  H   H1238     1.0  0.41733  0.71273  0.90430  1.0000
  C   C1546     1.0  0.42301  0.69202  0.58148  1.0000
  C   C1547     1.0  0.40951  0.67270  0.59702  1.0000
  Fe  Fe108     1.0  0.44951  0.72820  0.89196  1.0000
  H   H1239     1.0  0.44456  0.52877  0.50792  1.0000
  Fe  Fe109     1.0  0.46937  0.74183  0.91051  1.0000
  C   C1548     1.0  0.25541  0.56523  0.97253  1.0000
  H   H1240     1.0  0.42818  0.69974  0.56484  1.0000
  C   C1549     1.0  0.46560  0.64475  0.49703  1.0000
  C   C1550     1.0  0.40266  0.71611  0.50410  1.0000
  C   C1551     1.0  0.41447  0.61009  0.71621  1.0000
  C   C1552     1.0  0.41599  0.68265  0.57495  1.0000
  C   C1553     1.0  0.43803  0.69595  0.50583  1.0000
  H   H1241     1.0  0.45824  0.57762  0.51475  1.0000
  H   H1242     1.0  0.40422  0.66521  0.59280  1.0000
  Fe  Fe110     1.0  0.44782  0.72636  0.95563  1.0000
  C   C1554     1.0  0.46774  0.65307  0.85214  1.0000
  C   C1555     1.0  0.38961  0.61319  0.53278  1.0000
  C   C1556     1.0  0.41965  0.61617  0.65680  1.0000
  H   H1243     1.0  0.42156  0.61844  0.63380  1.0000
  H   H1244     1.0  0.31370  0.73288  0.73217  1.0000
  H   H1245     1.0  0.39576  0.71551  0.54807  1.0000
  H   H1246     1.0  0.39088  0.67361  0.56847  1.0000
  H   H1247     1.0  0.26391  0.67053  0.83235  1.0000
  C   C1557     1.0  0.25338  0.70585  0.53554  1.0000
  C   C1558     1.0  0.28414  0.58636  0.90427  1.0000
  C   C1559     1.0  0.41296  0.62210  0.67223  1.0000
  H   H1248     1.0  0.40261  0.69828  0.56675  1.0000
  C   C1560     1.0  0.30156  0.61851  0.75376  1.0000
  C   C1561     1.0  0.41032  0.61902  0.70192  1.0000
  H   H1249     1.0  0.45978  0.72188  0.54935  1.0000
  P   P50       1.0  0.37765  0.74600  0.66890  1.0000
  C   C1562     1.0  0.36596  0.60186  0.72628  1.0000
  H   H1250     1.0  0.37924  0.56037  0.83123  1.0000
  C   C1563     1.0  0.39038  0.69064  0.95976  1.0000
  H   H1251     1.0  0.44611  0.54057  0.56654  1.0000
  C   C1564     1.0  0.45104  0.72285  0.54980  1.0000
  C   C1565     1.0  0.41092  0.69675  0.52518  1.0000
  C   C1566     1.0  0.40449  0.70179  0.54398  1.0000
  C   C1567     1.0  0.39299  0.66904  0.55223  1.0000
  S   S215      1.0  0.26468  0.72952  0.67183  1.0000
  H   H1252     1.0  0.48038  0.59570  0.59200  1.0000
  H   H1253     1.0  0.28490  0.63955  0.52781  1.0000
  H   H1254     1.0  0.37550  0.65794  0.56330  1.0000
  H   H1255     1.0  0.47785  0.66021  0.58960  1.0000
  H   H1256     1.0  0.37203  0.61452  0.53376  1.0000
  C   C1568     1.0  0.40046  0.71149  0.53344  1.0000
  C   C1569     1.0  0.40437  0.67195  0.53456  1.0000
  C   C1570     1.0  0.38418  0.66025  0.54910  1.0000
  S   S216      1.0  0.27829  0.71345  0.63754  1.0000
  H   H1257     1.0  0.40492  0.62345  0.71388  1.0000
  H   H1258     1.0  0.28641  0.65622  0.87914  1.0000
  C   C1571     1.0  0.25872  0.70684  0.58000  1.0000
  H   H1259     1.0  0.45686  0.72184  0.83032  1.0000
  C   C1572     1.0  0.29720  0.63061  0.97255  1.0000
  C   C1573     1.0  0.34418  0.74084  0.65944  1.0000
  C   C1574     1.0  0.25631  0.67276  0.63139  1.0000
  C   C1575     1.0  0.31428  0.73912  0.71254  1.0000
  C   C1576     1.0  0.33472  0.58127  0.82633  1.0000
  H   H1260     1.0  0.36444  0.59350  0.53658  1.0000
  C   C1577     1.0  0.30650  0.70495  0.52594  1.0000
  H   H1261     1.0  0.39724  0.56263  0.65548  1.0000
  C   C1578     1.0  0.44574  0.53134  0.56927  1.0000
  C   C1579     1.0  0.43413  0.67472  0.51796  1.0000
  H   H1262     1.0  0.42842  0.66612  0.52906  1.0000
  C   C1580     1.0  0.39095  0.57733  0.59659  1.0000
  Fe  Fe111     1.0  0.25352  0.71111  0.96453  1.0000
  C   C1581     1.0  0.38655  0.65452  0.52766  1.0000
  H   H1263     1.0  0.49838  0.52101  0.63775  1.0000
  H   H1264     1.0  0.39657  0.60277  0.89983  1.0000
  C   C1582     1.0  0.40659  0.66648  0.51232  1.0000
  H   H1265     1.0  0.49295  0.57648  0.97385  1.0000
  C   C1583     1.0  0.25765  0.64191  0.78924  1.0000
  H   H1266     1.0  0.42154  0.53454  0.51614  1.0000
  H   H1267     1.0  0.27957  0.71578  0.80254  1.0000
  S   S217      1.0  0.46873  0.72917  0.88228  1.0000
  H   H1268     1.0  0.36902  0.63732  0.81765  1.0000
  C   C1584     1.0  0.34519  0.74998  0.63589  1.0000
  H   H1269     1.0  0.32299  0.74788  0.57628  1.0000
  C   C1585     1.0  0.37095  0.61963  0.82800  1.0000
  H   H1270     1.0  0.49027  0.70654  0.89430  1.0000
  C   C1586     1.0  0.37096  0.60940  0.81888  1.0000
  C   C1587     1.0  0.39772  0.65772  0.50908  1.0000
  C   C1588     1.0  0.48624  0.68891  0.55861  1.0000
  H   H1271     1.0  0.27623  0.61274  0.48490  1.0000
  H   H1272     1.0  0.30483  0.63746  0.77906  1.0000
  H   H1273     1.0  0.28895  0.61896  0.88255  1.0000
  H   H1274     1.0  0.32180  0.56758  0.81991  1.0000
  H   H1275     1.0  0.45789  0.64860  0.75700  1.0000
  C   C1589     1.0  0.36953  0.62955  0.81014  1.0000
  C   C1590     1.0  0.39838  0.60271  0.92032  1.0000
  C   C1591     1.0  0.27146  0.66710  0.83312  1.0000
  H   H1276     1.0  0.44845  0.66776  0.50134  1.0000
  H   H1277     1.0  0.37148  0.60164  0.83365  1.0000
  C   C1592     1.0  0.31785  0.74525  0.50820  1.0000
  C   C1593     1.0  0.34641  0.63653  0.48227  1.0000
  H   H1278     1.0  0.41504  0.66910  0.49714  1.0000
  C   C1594     1.0  0.33074  0.57290  0.81241  1.0000
  C   C1595     1.0  0.27446  0.63385  0.77942  1.0000
  P   P51       1.0  0.26520  0.66431  0.89198  1.0000
  C   C1596     1.0  0.39768  0.55269  0.51546  1.0000
  C   C1597     1.0  0.25728  0.56168  0.59568  1.0000
  H   H1279     1.0  0.32890  0.58238  0.84473  1.0000
  C   C1598     1.0  0.36835  0.62930  0.78290  1.0000
  H   H1280     1.0  0.44824  0.57887  0.79244  1.0000
  H   H1281     1.0  0.49861  0.59037  0.57414  1.0000
  H   H1282     1.0  0.48770  0.75095  0.84372  1.0000
  H   H1283     1.0  0.36692  0.63690  0.76936  1.0000
  H   H1284     1.0  0.39511  0.59632  0.68926  1.0000
  C   C1599     1.0  0.34991  0.57819  0.77951  1.0000
  C   C1600     1.0  0.27997  0.64371  0.75635  1.0000
  H   H1285     1.0  0.29356  0.71471  0.84148  1.0000
  H   H1286     1.0  0.26867  0.56619  0.55372  1.0000
  S   S218      1.0  0.25010  0.62442  0.59882  1.0000
  C   C1601     1.0  0.34625  0.58816  0.81680  1.0000
  C   C1602     1.0  0.42860  0.72563  0.55065  1.0000
  H   H1287     1.0  0.27696  0.60334  0.57300  1.0000
  C   C1603     1.0  0.35394  0.58668  0.79331  1.0000
  H   H1288     1.0  0.34908  0.59457  0.82802  1.0000
  C   C1604     1.0  0.36846  0.61911  0.77356  1.0000
  C   C1605     1.0  0.26381  0.56951  0.56972  1.0000
  C   C1606     1.0  0.29111  0.58271  0.53067  1.0000
  C   C1607     1.0  0.37333  0.59812  0.74274  1.0000
  C   C1608     1.0  0.29065  0.70497  0.56448  1.0000
  C   C1609     1.0  0.29230  0.62306  0.85995  1.0000
  H   H1289     1.0  0.38104  0.69410  0.92763  1.0000
  C   C1610     1.0  0.27782  0.60982  0.55358  1.0000
  P   P52       1.0  0.36891  0.59542  0.78103  1.0000
  C   C1611     1.0  0.36610  0.75084  0.71845  1.0000
  H   H1290     1.0  0.39226  0.60347  0.78898  1.0000
  C   C1612     1.0  0.48918  0.62620  0.74226  1.0000
  H   H1291     1.0  0.49561  0.59071  0.83200  1.0000
  C   C1613     1.0  0.43495  0.68461  0.89006  1.0000
  H   H1292     1.0  0.47188  0.63747  0.74207  1.0000
  H   H1293     1.0  0.25599  0.59429  0.58042  1.0000
  S   S219      1.0  0.32784  0.60015  0.93890  1.0000
  C   C1614     1.0  0.43250  0.62742  0.90341  1.0000
  C   C1615     1.0  0.28104  0.62173  0.55300  1.0000
  C   C1616     1.0  0.43646  0.72683  0.52462  1.0000
  H   H1294     1.0  0.43115  0.66586  0.90418  1.0000
  C   C1617     1.0  0.45162  0.62725  0.81846  1.0000
  H   H1295     1.0  0.36717  0.61913  0.75272  1.0000
  H   H1296     1.0  0.48773  0.66531  0.94316  1.0000
  H   H1297     1.0  0.30863  0.64633  0.70409  1.0000
  H   H1298     1.0  0.30462  0.61677  0.77283  1.0000
  H   H1299     1.0  0.28251  0.62429  0.57190  1.0000
  C   C1618     1.0  0.49094  0.65393  0.60724  1.0000
  H   H1300     1.0  0.25789  0.61303  0.78032  1.0000
  C   C1619     1.0  0.47728  0.59465  0.95077  1.0000
  H   H1301     1.0  0.45804  0.57320  0.75051  1.0000
  C   C1620     1.0  0.38212  0.56975  0.82151  1.0000
  C   C1621     1.0  0.27566  0.60645  0.52935  1.0000
  H   H1302     1.0  0.41555  0.59992  0.90785  1.0000
  C   C1622     1.0  0.44550  0.67562  0.50253  1.0000
  C   C1623     1.0  0.45608  0.58485  0.77773  1.0000
  P   P53       1.0  0.46595  0.53831  0.52451  1.0000
  C   C1624     1.0  0.47684  0.59696  0.92231  1.0000
  H   H1303     1.0  0.33525  0.56484  0.77826  1.0000
  H   H1304     1.0  0.46137  0.62287  0.86863  1.0000
  H   H1305     1.0  0.31725  0.61656  0.72738  1.0000
  C   C1625     1.0  0.26351  0.63332  0.79668  1.0000
  C   C1626     1.0  0.29905  0.69961  0.55305  1.0000
  C   C1627     1.0  0.38937  0.59404  0.79783  1.0000
  H   H1306     1.0  0.46064  0.63841  0.48843  1.0000
  C   C1628     1.0  0.26284  0.67931  0.64578  1.0000
  C   C1629     1.0  0.46168  0.58154  0.75435  1.0000
  P   P54       1.0  0.27125  0.59117  0.52961  1.0000
  H   H1307     1.0  0.39947  0.65348  0.49201  1.0000
  H   H1308     1.0  0.40499  0.59317  0.81200  1.0000
  H   H1309     1.0  0.38962  0.59302  0.74122  1.0000
  H   H1310     1.0  0.45487  0.55747  0.50911  1.0000
  H   H1311     1.0  0.33586  0.67367  0.56637  1.0000
  H   H1312     1.0  0.35769  0.60329  0.73626  1.0000
  H   H1313     1.0  0.48104  0.60563  0.90830  1.0000
  H   H1314     1.0  0.30176  0.72904  0.92428  1.0000
  C   C1630     1.0  0.37973  0.60193  0.68334  1.0000
  C   C1631     1.0  0.26379  0.58144  0.56424  1.0000
  C   C1632     1.0  0.39662  0.58824  0.81076  1.0000
  H   H1315     1.0  0.40389  0.55916  0.54787  1.0000
  H   H1316     1.0  0.25248  0.60252  0.52092  1.0000
  C   C1633     1.0  0.38699  0.59794  0.69958  1.0000
  C   C1634     1.0  0.37480  0.57553  0.80881  1.0000
  H   H1317     1.0  0.48393  0.57137  0.56023  1.0000
  H   H1318     1.0  0.45646  0.59786  0.80135  1.0000
  C   C1635     1.0  0.44767  0.72534  0.52422  1.0000
  C   C1636     1.0  0.30149  0.58023  0.51812  1.0000
  C   C1637     1.0  0.36921  0.60390  0.69671  1.0000
  H   H1319     1.0  0.37966  0.64772  0.52537  1.0000
  C   C1638     1.0  0.33834  0.57136  0.78899  1.0000
  H   H1320     1.0  0.27822  0.65977  0.73063  1.0000
  C   C1639     1.0  0.38937  0.69604  0.93291  1.0000
  H   H1321     1.0  0.38423  0.58136  0.59093  1.0000
  S   S220      1.0  0.47917  0.57162  0.62419  1.0000
  H   H1322     1.0  0.36629  0.57048  0.80890  1.0000
  H   H1323     1.0  0.35570  0.57681  0.76150  1.0000
  C   C1640     1.0  0.29380  0.62207  0.70414  1.0000
  H   H1324     1.0  0.38221  0.60350  0.66041  1.0000
  H   H1325     1.0  0.41981  0.73122  0.94122  1.0000
  H   H1326     1.0  0.28476  0.70077  0.58538  1.0000
  H   H1327     1.0  0.47122  0.67423  0.95603  1.0000
  C   C1641     1.0  0.26545  0.58783  0.82967  1.0000
  C   C1642     1.0  0.49598  0.54408  0.77958  1.0000
  H   H1328     1.0  0.32282  0.64761  0.92654  1.0000
  C   C1643     1.0  0.26810  0.74202  0.55008  1.0000
  C   C1644     1.0  0.26287  0.65130  0.76517  1.0000
  S   S221      1.0  0.46687  0.72752  0.95030  1.0000
  C   C1645     1.0  0.27371  0.59866  0.81819  1.0000
  C   C1646     1.0  0.46916  0.64094  0.52164  1.0000
  C   C1647     1.0  0.39344  0.55518  0.49142  1.0000
  H   H1329     1.0  0.28888  0.63773  0.91102  1.0000
  C   C1648     1.0  0.46295  0.65084  0.94027  1.0000
  Fe  Fe112     1.0  0.28232  0.72579  0.66465  1.0000
  H   H1330     1.0  0.49679  0.67167  0.85886  1.0000
  C   C1649     1.0  0.40025  0.56129  0.52993  1.0000
  C   C1650     1.0  0.27390  0.58053  0.89836  1.0000
  H   H1331     1.0  0.44600  0.62454  0.83989  1.0000
  C   C1651     1.0  0.32296  0.74975  0.70344  1.0000
  H   H1332     1.0  0.25925  0.62603  0.81526  1.0000
  C   C1652     1.0  0.45453  0.65636  0.93204  1.0000
  H   H1333     1.0  0.31766  0.71881  0.92479  1.0000
  C   C1653     1.0  0.47222  0.58881  0.73648  1.0000
  H   H1334     1.0  0.30999  0.64827  0.89338  1.0000
  C   C1654     1.0  0.27436  0.66369  0.85898  1.0000
  H   H1335     1.0  0.45957  0.71580  0.78498  1.0000
  C   C1655     1.0  0.45385  0.60689  0.94859  1.0000
  C   C1656     1.0  0.47127  0.60316  0.76436  1.0000
  H   H1336     1.0  0.41990  0.72671  0.55106  1.0000
  Fe  Fe113     1.0  0.46443  0.71484  0.92300  1.0000
  C   C1657     1.0  0.30633  0.64360  0.91558  1.0000
  C   C1658     1.0  0.28790  0.66121  0.80854  1.0000
  C   C1659     1.0  0.28668  0.62247  0.72972  1.0000
  H   H1337     1.0  0.46998  0.59019  0.89047  1.0000
  H   H1338     1.0  0.48439  0.70214  0.58148  1.0000
  H   H1339     1.0  0.29830  0.65412  0.83465  1.0000
  C   C1660     1.0  0.28541  0.62084  0.84125  1.0000
  C   C1661     1.0  0.46894  0.65666  0.48266  1.0000
  H   H1340     1.0  0.37488  0.63124  0.49261  1.0000
  C   C1662     1.0  0.31355  0.64327  0.93423  1.0000
  H   H1341     1.0  0.30919  0.63159  0.86375  1.0000
  C   C1663     1.0  0.49040  0.51442  0.64049  1.0000
  H   H1342     1.0  0.27810  0.62393  0.73003  1.0000
  H   H1343     1.0  0.45996  0.61315  0.82548  1.0000
  H   H1344     1.0  0.47924  0.70830  0.96773  1.0000
  C   C1664     1.0  0.46300  0.61711  0.93740  1.0000
  S   S222      1.0  0.41645  0.74908  0.68050  1.0000
  C   C1665     1.0  0.26259  0.74475  0.81730  1.0000
  C   C1666     1.0  0.47784  0.56838  0.54836  1.0000
  C   C1667     1.0  0.39911  0.70389  0.91282  1.0000
  H   H1345     1.0  0.37749  0.58011  0.53863  1.0000
  H   H1346     1.0  0.29222  0.58386  0.89829  1.0000
  H   H1347     1.0  0.44167  0.62972  0.97429  1.0000
  S   S223      1.0  0.26828  0.71196  0.86159  1.0000
  H   H1348     1.0  0.25725  0.73894  0.80824  1.0000
  C   C1668     1.0  0.27825  0.66591  0.80799  1.0000
  C   C1669     1.0  0.45953  0.62079  0.81013  1.0000
  C   C1670     1.0  0.30811  0.63545  0.82031  1.0000
  C   C1671     1.0  0.29064  0.62104  0.75457  1.0000
  C   C1672     1.0  0.46700  0.62435  0.78254  1.0000
  H   H1349     1.0  0.28926  0.67976  0.87628  1.0000
  C   C1673     1.0  0.27741  0.61515  0.50415  1.0000
  C   C1674     1.0  0.44247  0.64812  0.89170  1.0000
  H   H1350     1.0  0.47417  0.74750  0.66373  1.0000
  C   C1675     1.0  0.47606  0.64905  0.53195  1.0000
  C   C1676     1.0  0.48838  0.67432  0.93271  1.0000
  H   H1351     1.0  0.43991  0.74332  0.59040  1.0000
  H   H1352     1.0  0.46026  0.57037  0.92302  1.0000
  S   S224      1.0  0.27789  0.71169  0.70529  1.0000
  C   C1677     1.0  0.28998  0.62566  0.81178  1.0000
  C   C1678     1.0  0.49258  0.59865  0.82911  1.0000
  H   H1353     1.0  0.31045  0.61998  0.68327  1.0000
  C   C1679     1.0  0.30871  0.61824  0.72805  1.0000
  H   H1354     1.0  0.28865  0.64460  0.74362  1.0000
  H   H1355     1.0  0.42039  0.67996  0.96158  1.0000
  C   C1680     1.0  0.45102  0.63725  0.79936  1.0000
  H   H1356     1.0  0.44495  0.64228  0.80598  1.0000
  S   S225      1.0  0.46711  0.69639  0.93465  1.0000
  H   H1357     1.0  0.41930  0.59880  0.95508  1.0000
  C   C1681     1.0  0.37357  0.59688  0.53572  1.0000
  C   C1682     1.0  0.43650  0.60230  0.52319  1.0000
  C   C1683     1.0  0.46577  0.62281  0.90847  1.0000
  C   C1684     1.0  0.47065  0.58827  0.91228  1.0000
  H   H1358     1.0  0.33567  0.73500  0.67073  1.0000
  C   C1685     1.0  0.27097  0.60804  0.80119  1.0000
  C   C1686     1.0  0.45830  0.64079  0.77180  1.0000
  H   H1359     1.0  0.28217  0.59970  0.82290  1.0000
  C   C1687     1.0  0.46515  0.57714  0.93057  1.0000
  C   C1688     1.0  0.27410  0.73808  0.49610  1.0000
  C   C1689     1.0  0.46353  0.64845  0.96863  1.0000
  H   H1360     1.0  0.43975  0.66304  0.94729  1.0000
  H   H1361     1.0  0.27344  0.69373  0.78064  1.0000
  H   H1362     1.0  0.49083  0.62154  0.85862  1.0000
  H   H1363     1.0  0.34788  0.65355  0.49069  1.0000
  P   P55       1.0  0.40228  0.58388  0.53842  1.0000
  H   H1364     1.0  0.40410  0.74402  0.52915  1.0000
  C   C1690     1.0  0.30719  0.74450  0.67060  1.0000
  H   H1365     1.0  0.42584  0.68480  0.89516  1.0000
  H   H1366     1.0  0.29970  0.72832  0.70332  1.0000
  P   P56       1.0  0.29607  0.73498  0.50093  1.0000
  S   S226      1.0  0.47064  0.62271  0.96016  1.0000
  C   C1691     1.0  0.48537  0.59965  0.57012  1.0000
  P   P57       1.0  0.47791  0.61654  0.77256  1.0000
  C   C1692     1.0  0.47842  0.65296  0.83492  1.0000
  C   C1693     1.0  0.42436  0.68306  0.97722  1.0000
  H   H1367     1.0  0.27117  0.68604  0.73907  1.0000
  C   C1694     1.0  0.49072  0.50260  0.64303  1.0000
  C   C1695     1.0  0.29901  0.72301  0.82750  1.0000
  H   H1368     1.0  0.25179  0.74370  0.54078  1.0000
  H   H1369     1.0  0.27417  0.57353  0.88784  1.0000
  C   C1696     1.0  0.48108  0.68161  0.54342  1.0000
  C   C1697     1.0  0.40122  0.69288  0.96646  1.0000
  H   H1370     1.0  0.44251  0.60500  0.53547  1.0000
  C   C1698     1.0  0.44647  0.65904  0.95286  1.0000
  H   H1371     1.0  0.43126  0.61848  0.91552  1.0000
  C   C1699     1.0  0.28072  0.62705  0.50358  1.0000
  C   C1700     1.0  0.46625  0.63439  0.76339  1.0000
  C   C1701     1.0  0.49916  0.69257  0.89813  1.0000
  H   H1372     1.0  0.26746  0.58069  0.84341  1.0000
  H   H1373     1.0  0.47275  0.63076  0.89973  1.0000
  H   H1374     1.0  0.31259  0.71551  0.80943  1.0000
  C   C1702     1.0  0.45538  0.69496  0.87208  1.0000
  C   C1703     1.0  0.42634  0.62976  0.88288  1.0000
  H   H1375     1.0  0.39985  0.72382  0.49591  1.0000
  C   C1704     1.0  0.47718  0.59941  0.74184  1.0000
  C   C1705     1.0  0.43680  0.52304  0.59072  1.0000
  Fe  Fe114     1.0  0.27207  0.69962  0.67909  1.0000
  C   C1706     1.0  0.47957  0.69096  0.92592  1.0000
  C   C1707     1.0  0.47901  0.67937  0.93986  1.0000
  H   H1376     1.0  0.49447  0.59250  0.62689  1.0000
  H   H1377     1.0  0.26431  0.65599  0.95336  1.0000
  H   H1378     1.0  0.39838  0.70800  0.89191  1.0000
  C   C1708     1.0  0.43802  0.67390  0.89489  1.0000
  C   C1709     1.0  0.48139  0.60756  0.55206  1.0000
  C   C1710     1.0  0.28828  0.58987  0.48406  1.0000
  H   H1379     1.0  0.36939  0.57772  0.96597  1.0000
  H   H1380     1.0  0.47950  0.62284  0.71131  1.0000
  C   C1711     1.0  0.46235  0.53971  0.49062  1.0000
  C   C1712     1.0  0.30900  0.63685  0.96262  1.0000
  C   C1713     1.0  0.44040  0.60488  0.49361  1.0000
  C   C1714     1.0  0.47149  0.57586  0.53726  1.0000
  S   S227      1.0  0.45045  0.74151  0.91784  1.0000
  H   H1381     1.0  0.48698  0.56278  0.71841  1.0000
  H   H1382     1.0  0.29970  0.69128  0.56516  1.0000
  H   H1383     1.0  0.25634  0.61863  0.96618  1.0000
  C   C1715     1.0  0.26616  0.71621  0.77995  1.0000
  H   H1384     1.0  0.44940  0.60958  0.48300  1.0000
  C   C1716     1.0  0.30109  0.72192  0.94243  1.0000
  H   H1385     1.0  0.32504  0.73463  0.77775  1.0000
  C   C1717     1.0  0.30634  0.73654  0.69625  1.0000
  H   H1386     1.0  0.47806  0.67179  0.88948  1.0000
  C   C1718     1.0  0.26331  0.74036  0.50592  1.0000
  H   H1387     1.0  0.28072  0.62689  0.96118  1.0000
  H   H1388     1.0  0.31621  0.70269  0.96621  1.0000
  H   H1389     1.0  0.29308  0.66018  0.78908  1.0000
  H   H1390     1.0  0.42019  0.62263  0.87938  1.0000
  H   H1391     1.0  0.31949  0.73664  0.51148  1.0000
  C   C1719     1.0  0.47864  0.53270  0.52649  1.0000
  H   H1392     1.0  0.30532  0.62546  0.51068  1.0000
  H   H1393     1.0  0.48265  0.62759  0.81800  1.0000
  H   H1394     1.0  0.36804  0.72546  0.64939  1.0000
  C   C1720     1.0  0.27042  0.71537  0.80438  1.0000
  C   C1721     1.0  0.25819  0.62736  0.95215  1.0000
  C   C1722     1.0  0.44060  0.63653  0.90766  1.0000
  C   C1723     1.0  0.46330  0.57187  0.52297  1.0000
  H   H1395     1.0  0.40615  0.60925  0.53301  1.0000
  H   H1396     1.0  0.25982  0.64058  0.88374  1.0000
  H   H1397     1.0  0.44565  0.63442  0.92277  1.0000
  C   C1724     1.0  0.49618  0.58035  0.69350  1.0000
  H   H1398     1.0  0.45377  0.72622  0.50423  1.0000
  H   H1399     1.0  0.47673  0.58606  0.71889  1.0000
  C   C1725     1.0  0.33611  0.59203  0.49954  1.0000
  C   C1726     1.0  0.48685  0.65964  0.58526  1.0000
  H   H1400     1.0  0.27868  0.74254  0.79417  1.0000
  H   H1401     1.0  0.46471  0.70273  0.57484  1.0000
  H   H1402     1.0  0.45543  0.68986  0.54834  1.0000
  C   C1727     1.0  0.47614  0.55697  0.54481  1.0000
  C   C1728     1.0  0.31671  0.73421  0.79167  1.0000
  H   H1403     1.0  0.27204  0.71734  0.75952  1.0000
  C   C1729     1.0  0.48745  0.62768  0.71473  1.0000
  C   C1730     1.0  0.36502  0.74741  0.65540  1.0000
  C   C1731     1.0  0.42117  0.59500  0.49142  1.0000
  C   C1732     1.0  0.44983  0.67359  0.88805  1.0000
  C   C1733     1.0  0.30971  0.72346  0.80952  1.0000
  H   H1404     1.0  0.26891  0.65693  0.68954  1.0000
  H   H1405     1.0  0.47332  0.60979  0.55993  1.0000
  C   C1734     1.0  0.45849  0.68426  0.87676  1.0000
  C   C1735     1.0  0.26288  0.71394  0.83105  1.0000
  H   H1406     1.0  0.44127  0.70346  0.87488  1.0000
  H   H1407     1.0  0.46766  0.68449  0.87184  1.0000
  H   H1408     1.0  0.42726  0.74863  0.83531  1.0000
  C   C1736     1.0  0.46145  0.56042  0.51978  1.0000
  C   C1737     1.0  0.48850  0.56929  0.69856  1.0000
  C   C1738     1.0  0.26496  0.68872  0.78030  1.0000
  C   C1739     1.0  0.30206  0.74402  0.80883  1.0000
  C   C1740     1.0  0.26540  0.66139  0.67335  1.0000
  C   C1741     1.0  0.48973  0.69760  0.90517  1.0000
  H   H1409     1.0  0.46690  0.63166  0.53218  1.0000
  C   C1742     1.0  0.27238  0.67544  0.90675  1.0000
  C   C1743     1.0  0.29083  0.65779  0.83421  1.0000
  C   C1744     1.0  0.25805  0.62864  0.92370  1.0000
  H   H1410     1.0  0.39286  0.62241  0.53162  1.0000
  C   C1745     1.0  0.25973  0.57994  0.49556  1.0000
  S   S228      1.0  0.26747  0.72410  0.92856  1.0000
  Fe  Fe115     1.0  0.26017  0.71597  0.64801  1.0000
  C   C1746     1.0  0.28412  0.68166  0.89446  1.0000
  C   C1747     1.0  0.28199  0.73776  0.51326  1.0000
  C   C1748     1.0  0.26366  0.68442  0.75682  1.0000
  H   H1411     1.0  0.41570  0.75036  0.60164  1.0000
  C   C1749     1.0  0.39164  0.56627  0.48195  1.0000
  S   S229      1.0  0.27548  0.68171  0.68510  1.0000
  H   H1412     1.0  0.26569  0.69727  0.55117  1.0000
  C   C1750     1.0  0.46793  0.55287  0.53047  1.0000
  C   C1751     1.0  0.49815  0.60949  0.51349  1.0000
  C   C1752     1.0  0.30556  0.71565  0.51027  1.0000
  H   H1413     1.0  0.28442  0.72308  0.96562  1.0000
  H   H1414     1.0  0.48514  0.65008  0.62831  1.0000
  C   C1753     1.0  0.48524  0.61942  0.82103  1.0000
  C   C1754     1.0  0.25104  0.71387  0.58548  1.0000
  C   C1755     1.0  0.48415  0.61236  0.80198  1.0000
  C   C1756     1.0  0.39710  0.60571  0.53356  1.0000
  C   C1757     1.0  0.48037  0.69651  0.56981  1.0000
  C   C1758     1.0  0.49793  0.58880  0.66806  1.0000
  C   C1759     1.0  0.26000  0.63983  0.90573  1.0000
  H   H1415     1.0  0.30079  0.68063  0.97389  1.0000
  H   H1416     1.0  0.48576  0.60441  0.72875  1.0000
  C   C1760     1.0  0.27105  0.68763  0.94015  1.0000
  H   H1417     1.0  0.39316  0.58359  0.48781  1.0000
  H   H1418     1.0  0.47719  0.55800  0.68139  1.0000
  H   H1419     1.0  0.48104  0.55135  0.55402  1.0000
  H   H1420     1.0  0.45982  0.64765  0.85008  1.0000
  C   C1761     1.0  0.28410  0.65902  0.85935  1.0000
  C   C1762     1.0  0.40914  0.57180  0.58403  1.0000
  H   H1421     1.0  0.25822  0.65776  0.75890  1.0000
  Fe  Fe116     1.0  0.25801  0.71598  0.90005  1.0000
  H   H1422     1.0  0.47858  0.64759  0.81991  1.0000
  C   C1763     1.0  0.29523  0.73327  0.82729  1.0000
  H   H1423     1.0  0.28697  0.73279  0.84155  1.0000
  C   C1764     1.0  0.28990  0.63131  0.95394  1.0000
  C   C1765     1.0  0.38975  0.57214  0.62529  1.0000
  C   C1766     1.0  0.28241  0.63034  0.52811  1.0000
  C   C1767     1.0  0.39284  0.59373  0.53552  1.0000
  H   H1424     1.0  0.49718  0.65950  0.82420  1.0000
  C   C1768     1.0  0.27900  0.74002  0.54007  1.0000
  H   H1425     1.0  0.25724  0.74055  0.49261  1.0000
  C   C1769     1.0  0.26217  0.64988  0.91607  1.0000
  H   H1426     1.0  0.42369  0.64302  0.85020  1.0000
  C   C1770     1.0  0.34860  0.64470  0.49823  1.0000
  C   C1771     1.0  0.47802  0.66662  0.87410  1.0000
  C   C1772     1.0  0.41593  0.73560  0.95628  1.0000
  C   C1773     1.0  0.42835  0.64123  0.86639  1.0000
  C   C1774     1.0  0.28431  0.58733  0.51373  1.0000
  H   H1427     1.0  0.25183  0.67556  0.73676  1.0000
  C   C1775     1.0  0.26043  0.63727  0.96263  1.0000
  H   H1428     1.0  0.49768  0.50340  0.72027  1.0000
  C   C1776     1.0  0.44363  0.69514  0.87860  1.0000
  H   H1429     1.0  0.46910  0.64836  0.92496  1.0000
  H   H1430     1.0  0.27600  0.66857  0.78806  1.0000
  C   C1777     1.0  0.48527  0.57488  0.65154  1.0000
  H   H1431     1.0  0.39941  0.54419  0.52225  1.0000
  C   C1778     1.0  0.48800  0.60202  0.80597  1.0000
  H   H1432     1.0  0.42208  0.59430  0.55983  1.0000
  C   C1779     1.0  0.43650  0.65037  0.87051  1.0000
  H   H1433     1.0  0.43075  0.74818  0.89523  1.0000
  H   H1434     1.0  0.35303  0.73256  0.68781  1.0000
  C   C1780     1.0  0.46225  0.74857  0.73102  1.0000
  H   H1435     1.0  0.43825  0.65915  0.85691  1.0000
  C   C1781     1.0  0.46989  0.68195  0.53994  1.0000
  S   S230      1.0  0.33796  0.63151  0.95609  1.0000
  C   C1782     1.0  0.49516  0.52602  0.50491  1.0000
  P   P58       1.0  0.45373  0.65966  0.89540  1.0000
  H   H1436     1.0  0.46028  0.73506  0.70863  1.0000
  S   S231      1.0  0.49891  0.64437  0.96156  1.0000
  C   C1783     1.0  0.46745  0.65994  0.87190  1.0000
  C   C1784     1.0  0.42315  0.74338  0.96668  1.0000
  H   H1437     1.0  0.25674  0.67406  0.93904  1.0000
  C   C1785     1.0  0.35404  0.73954  0.66913  1.0000
  C   C1786     1.0  0.43634  0.68430  0.97423  1.0000
  C   C1787     1.0  0.43632  0.51109  0.59511  1.0000
  H   H1438     1.0  0.45181  0.60232  0.97084  1.0000
  C   C1788     1.0  0.26247  0.64850  0.94469  1.0000
  C   C1789     1.0  0.31000  0.71610  0.94266  1.0000
  S   S232      1.0  0.43199  0.73023  0.49306  1.0000
  C   C1790     1.0  0.48867  0.66655  0.85677  1.0000
  C   C1791     1.0  0.48888  0.65969  0.83725  1.0000
  C   C1792     1.0  0.41083  0.70116  0.94656  1.0000
  C   C1793     1.0  0.48294  0.56659  0.67765  1.0000
  H   H1439     1.0  0.31297  0.70075  0.51702  1.0000
  C   C1794     1.0  0.34740  0.62510  0.49216  1.0000
  H   H1440     1.0  0.39318  0.66824  0.97248  1.0000
  H   H1441     1.0  0.28659  0.70099  0.93556  1.0000
  H   H1442     1.0  0.42960  0.50472  0.61237  1.0000
  S   S233      1.0  0.43780  0.55234  0.96977  1.0000
  H   H1443     1.0  0.47903  0.64585  0.55047  1.0000
  C   C1795     1.0  0.40980  0.70652  0.91976  1.0000
  C   C1796     1.0  0.25977  0.70273  0.55525  1.0000
  C   C1797     1.0  0.25264  0.67839  0.75575  1.0000
  H   H1444     1.0  0.31205  0.66647  0.96208  1.0000
  H   H1445     1.0  0.29824  0.69571  0.89518  1.0000
  C   C1798     1.0  0.41284  0.70124  0.49575  1.0000
  C   C1799     1.0  0.46404  0.68957  0.55114  1.0000
  H   H1446     1.0  0.28501  0.74001  0.55349  1.0000
  C   C1800     1.0  0.40879  0.71094  0.48527  1.0000
  H   H1447     1.0  0.47329  0.74506  0.77427  1.0000
  C   C1801     1.0  0.47934  0.66106  0.51780  1.0000
  H   H1448     1.0  0.49575  0.52574  0.78792  1.0000
  C   C1802     1.0  0.49345  0.60561  0.84824  1.0000
  C   C1803     1.0  0.45312  0.68667  0.48871  1.0000
  H   H1449     1.0  0.49136  0.52060  0.57664  1.0000
  H   H1450     1.0  0.48459  0.61840  0.50949  1.0000
  C   C1804     1.0  0.42590  0.55299  0.49514  1.0000
  H   H1451     1.0  0.48192  0.60160  0.95810  1.0000
  H   H1452     1.0  0.33748  0.75117  0.62887  1.0000
  C   C1805     1.0  0.25228  0.59573  0.50959  1.0000
  H   H1453     1.0  0.30174  0.74157  0.58070  1.0000
  C   C1806     1.0  0.39425  0.57494  0.49625  1.0000
  S   S234      1.0  0.25357  0.70119  0.68787  1.0000
  H   H1454     1.0  0.48755  0.59656  0.79120  1.0000
  H   H1455     1.0  0.44165  0.68245  0.95613  1.0000
  S   S235      1.0  0.25505  0.70081  0.50429  1.0000
  S   S236      1.0  0.49708  0.64292  0.89604  1.0000
  Fe  Fe117     1.0  0.25488  0.73541  0.92942  1.0000
  P   P59       1.0  0.48874  0.67168  0.52963  1.0000
  C   C1807     1.0  0.47247  0.75105  0.68205  1.0000
  H   H1456     1.0  0.48362  0.73881  0.81028  1.0000
  C   C1808     1.0  0.48080  0.74686  0.80911  1.0000
  C   C1809     1.0  0.25523  0.68696  0.80288  1.0000
  H   H1457     1.0  0.49493  0.63599  0.67005  1.0000
  C   C1810     1.0  0.25033  0.57748  0.61070  1.0000
  C   C1811     1.0  0.49000  0.52374  0.55577  1.0000
  H   H1458     1.0  0.31138  0.71964  0.48925  1.0000
  H   H1459     1.0  0.38271  0.68471  0.97526  1.0000
  C   C1812     1.0  0.38986  0.60383  0.94254  1.0000
  H   H1460     1.0  0.26564  0.74329  0.57125  1.0000
  C   C1813     1.0  0.39885  0.74841  0.62956  1.0000
  C   C1814     1.0  0.30523  0.58251  0.48854  1.0000
  C   C1815     1.0  0.25104  0.57790  0.48116  1.0000
  C   C1816     1.0  0.49431  0.66452  0.55779  1.0000
  H   H1461     1.0  0.42141  0.62034  0.97468  1.0000
  H   H1462     1.0  0.26592  0.69016  0.95738  1.0000
  C   C1817     1.0  0.27475  0.74679  0.80946  1.0000
  H   H1463     1.0  0.26579  0.57444  0.49577  1.0000
  C   C1818     1.0  0.44945  0.69681  0.49085  1.0000
  C   C1819     1.0  0.25177  0.66778  0.88658  1.0000
  H   H1464     1.0  0.46559  0.67632  0.52882  1.0000
  C   C1820     1.0  0.25444  0.58624  0.82411  1.0000
  C   C1821     1.0  0.29134  0.71861  0.96571  1.0000
  S   S237      1.0  0.24953  0.71943  0.61597  1.0000
  H   H1465     1.0  0.49871  0.62683  0.57663  1.0000
  C   C1822     1.0  0.30596  0.75079  0.57702  1.0000
  C   C1823     1.0  0.45103  0.53449  0.48922  1.0000
  H   H1466     1.0  0.47019  0.64440  0.97467  1.0000
  H   H1467     1.0  0.43064  0.57187  0.48099  1.0000
  C   C1824     1.0  0.47492  0.75044  0.78871  1.0000
  C   C1825     1.0  0.39186  0.60303  0.96953  1.0000
  H   H1468     1.0  0.30923  0.61286  0.97951  1.0000
  C   C1826     1.0  0.49573  0.59664  0.55990  1.0000
  C   C1827     1.0  0.49847  0.68087  0.91163  1.0000
  H   H1469     1.0  0.30293  0.58837  0.97332  1.0000
  C   C1828     1.0  0.37692  0.75148  0.70035  1.0000
  H   H1470     1.0  0.28201  0.63369  0.48404  1.0000
  C   C1829     1.0  0.40250  0.60123  0.97437  1.0000
  H   H1471     1.0  0.45548  0.70538  0.48072  1.0000
  H   H1472     1.0  0.49740  0.56542  0.48162  1.0000
  S   S238      1.0  0.44667  0.95061  0.16697  1.0000
  C   C1830     1.0  0.48828  0.95190  0.07135  1.0000
  H   H1473     1.0  0.27385  0.77772  0.98887  1.0000
  C   C1831     1.0  0.28864  0.80198  0.38206  1.0000
  C   C1832     1.0  0.46486  0.78884  0.09032  1.0000
  C   C1833     1.0  0.31534  0.80801  0.26082  1.0000
  H   H1474     1.0  0.45974  0.96658  0.44008  1.0000
  H   H1475     1.0  0.49219  0.78571  0.27301  1.0000
  C   C1834     1.0  0.43609  0.81257  0.40459  1.0000
  H   H1476     1.0  0.31090  0.82032  0.02528  1.0000
  S   S239      1.0  0.48581  0.95492  0.43940  1.0000
  H   H1477     1.0  0.49253  0.95857  0.20302  1.0000
  C   C1835     1.0  0.35067  0.85013  0.06205  1.0000
  S   S240      1.0  0.48097  0.96266  0.14692  1.0000
  S   S241      1.0  0.41395  0.92255  0.03015  1.0000
  Fe  Fe118     1.0  0.41483  0.92398  0.41904  1.0000
  S   S242      1.0  0.41952  0.90707  0.41602  1.0000
  S   S243      1.0  0.41647  0.93902  0.37989  1.0000
  Fe  Fe119     1.0  0.40494  0.89826  0.45587  1.0000
  S   S244      1.0  0.39541  0.87875  0.46030  1.0000
  Fe  Fe120     1.0  0.43088  0.91121  0.44504  1.0000
  S   S245      1.0  0.44938  0.90925  0.43746  1.0000
  S   S246      1.0  0.39962  0.91524  0.45834  1.0000
  S   S247      1.0  0.42723  0.92866  0.44564  1.0000
  Fe  Fe121     1.0  0.48533  0.85937  0.39152  1.0000
  S   S248      1.0  0.46575  0.85659  0.40224  1.0000
  H   H1478     1.0  0.43895  0.79072  0.03860  1.0000
  H   H1479     1.0  0.45991  0.97069  0.98349  1.0000
  S   S249      1.0  0.46338  0.82847  0.41361  1.0000
  P   P60       1.0  0.47218  0.96033  0.34414  1.0000
  Fe  Fe122     1.0  0.46556  0.84343  0.37602  1.0000
  S   S250      1.0  0.45277  0.84020  0.34895  1.0000
  Fe  Fe123     1.0  0.46559  0.84189  0.43851  1.0000
  C   C1836     1.0  0.46479  0.76058  0.31583  1.0000
  S   S251      1.0  0.48510  0.84697  0.36253  1.0000
  S   S252      1.0  0.48511  0.84518  0.42947  1.0000
  Fe  Fe124     1.0  0.45898  0.82664  0.13701  1.0000
  S   S253      1.0  0.44336  0.81113  0.15074  1.0000
  S   S254      1.0  0.47010  0.83565  0.09240  1.0000
  Fe  Fe125     1.0  0.45845  0.82834  0.19807  1.0000
  S   S255      1.0  0.44268  0.81309  0.21714  1.0000
  S   S256      1.0  0.46941  0.83915  0.22018  1.0000
  Fe  Fe126     1.0  0.45133  0.80444  0.18584  1.0000
  S   S257      1.0  0.45316  0.78599  0.19964  1.0000
  Fe  Fe127     1.0  0.43588  0.82097  0.18077  1.0000
  S   S258      1.0  0.41754  0.82319  0.18797  1.0000
  S   S259      1.0  0.46769  0.81909  0.16940  1.0000
  S   S260      1.0  0.45091  0.83709  0.16427  1.0000
  Fe  Fe128     1.0  0.32608  0.80071  0.44529  1.0000
  S   S261      1.0  0.33842  0.78912  0.44334  1.0000
  Fe  Fe129     1.0  0.34673  0.82279  0.44042  1.0000
  S   S262      1.0  0.35992  0.81206  0.43711  1.0000
  S   S263      1.0  0.35201  0.84247  0.44074  1.0000
  Fe  Fe130     1.0  0.35048  0.80412  0.40812  1.0000
  S   S264      1.0  0.36002  0.79914  0.36994  1.0000
  H   H1480     1.0  0.26244  0.78282  0.39107  1.0000
  H   H1481     1.0  0.40992  0.79153  0.46415  1.0000
  S   S265      1.0  0.33799  0.81567  0.40869  1.0000
  C   C1837     1.0  0.26227  0.75312  0.12140  1.0000
  Fe  Fe131     1.0  0.36097  0.78408  0.19030  1.0000
  S   S266      1.0  0.35820  0.80222  0.18159  1.0000
  S   S267      1.0  0.37892  0.78104  0.17893  1.0000
  Fe  Fe132     1.0  0.33510  0.77246  0.21347  1.0000
  S   S268      1.0  0.33040  0.78979  0.20701  1.0000
  C   C1838     1.0  0.45648  0.76692  0.46875  1.0000
  Fe  Fe133     1.0  0.34348  0.79451  0.16461  1.0000
  S   S269      1.0  0.34069  0.80539  0.12481  1.0000
  Fe  Fe134     1.0  0.34561  0.79579  0.22473  1.0000
  S   S270      1.0  0.34448  0.80780  0.25426  1.0000
  S   S271      1.0  0.34721  0.77678  0.16986  1.0000
  S   S272      1.0  0.34929  0.77807  0.23471  1.0000
  H   H1482     1.0  0.48027  0.84363  0.03234  1.0000
  C   C1839     1.0  0.49129  0.93429  0.25433  1.0000
  H   H1483     1.0  0.28812  0.76785  0.20154  1.0000
  C   C1840     1.0  0.41991  0.75698  0.03767  1.0000
  C   C1841     1.0  0.47182  0.78395  0.98882  1.0000
  H   H1484     1.0  0.40956  0.77260  0.08274  1.0000
  C   C1842     1.0  0.27662  0.79685  0.39158  1.0000
  H   H1485     1.0  0.41404  0.86597  0.98536  1.0000
  C   C1843     1.0  0.47862  0.94283  0.21719  1.0000
  C   C1844     1.0  0.49019  0.81855  0.20636  1.0000
  C   C1845     1.0  0.46034  0.96836  0.00542  1.0000
  H   H1486     1.0  0.29247  0.80957  0.38875  1.0000
  C   C1846     1.0  0.35539  0.80136  0.33817  1.0000
  C   C1847     1.0  0.34740  0.80806  0.33398  1.0000
  C   C1848     1.0  0.34413  0.80993  0.30817  1.0000
  C   C1849     1.0  0.34860  0.80490  0.28660  1.0000
  C   C1850     1.0  0.35648  0.79805  0.29090  1.0000
  C   C1851     1.0  0.35989  0.79634  0.31658  1.0000
  H   H1487     1.0  0.34388  0.81197  0.35041  1.0000
  H   H1488     1.0  0.33810  0.81531  0.30493  1.0000
  H   H1489     1.0  0.36003  0.79420  0.27435  1.0000
  H   H1490     1.0  0.36592  0.79100  0.31992  1.0000
  C   C1852     1.0  0.33907  0.79067  0.04730  1.0000
  C   C1853     1.0  0.34134  0.78398  0.07123  1.0000
  C   C1854     1.0  0.34199  0.78841  0.09506  1.0000
  C   C1855     1.0  0.34012  0.79949  0.09532  1.0000
  C   C1856     1.0  0.33771  0.80612  0.07154  1.0000
  C   C1857     1.0  0.33712  0.80172  0.04766  1.0000
  H   H1491     1.0  0.34276  0.77539  0.07118  1.0000
  H   H1492     1.0  0.34390  0.78324  0.11317  1.0000
  H   H1493     1.0  0.33629  0.81469  0.07164  1.0000
  H   H1494     1.0  0.33531  0.80695  0.02942  1.0000
  C   C1858     1.0  0.44321  0.77469  0.19287  1.0000
  C   C1859     1.0  0.44535  0.76353  0.19602  1.0000
  H   H1495     1.0  0.49878  0.90932  0.00277  1.0000
  H   H1496     1.0  0.46118  0.94597  0.46454  1.0000
  C   C1860     1.0  0.42558  0.76745  0.17871  1.0000
  C   C1861     1.0  0.43325  0.77662  0.18447  1.0000
  H   H1497     1.0  0.45298  0.76195  0.20281  1.0000
  C   C1862     1.0  0.39194  0.81617  0.11950  1.0000
  H   H1498     1.0  0.41788  0.76896  0.17219  1.0000
  H   H1499     1.0  0.43144  0.78514  0.18255  1.0000
  C   C1863     1.0  0.40689  0.81111  0.18683  1.0000
  C   C1864     1.0  0.39507  0.81087  0.19553  1.0000
  C   C1865     1.0  0.38645  0.80143  0.19412  1.0000
  C   C1866     1.0  0.38961  0.79244  0.18290  1.0000
  C   C1867     1.0  0.40143  0.79263  0.17438  1.0000
  C   C1868     1.0  0.41006  0.80190  0.17664  1.0000
  H   H1500     1.0  0.39255  0.81791  0.20365  1.0000
  H   H1501     1.0  0.37737  0.80108  0.20207  1.0000
  H   H1502     1.0  0.40388  0.78553  0.16636  1.0000
  H   H1503     1.0  0.41913  0.80193  0.17062  1.0000
  H   H1504     1.0  0.41799  0.79943  0.37967  1.0000
  H   H1505     1.0  0.39848  0.78780  0.41024  1.0000
  C   C1869     1.0  0.30708  0.79771  0.08305  1.0000
  C   C1870     1.0  0.42490  0.87464  0.37209  1.0000
  H   H1506     1.0  0.48464  0.82045  0.24830  1.0000
  H   H1507     1.0  0.30508  0.80137  0.35685  1.0000
  H   H1508     1.0  0.45151  0.91246  0.28252  1.0000
  C   C1871     1.0  0.45417  0.82433  0.06809  1.0000
  C   C1872     1.0  0.46499  0.83221  0.06370  1.0000
  C   C1873     1.0  0.36064  0.83596  0.04770  1.0000
  H   H1509     1.0  0.43915  0.91867  0.02020  1.0000
  H   H1510     1.0  0.44033  0.88909  0.39884  1.0000
  H   H1511     1.0  0.44892  0.82002  0.08946  1.0000
  H   H1512     1.0  0.33099  0.75451  0.17695  1.0000
  C   C1874     1.0  0.35071  0.84031  0.05120  1.0000
  C   C1875     1.0  0.45809  0.83888  0.31423  1.0000
  C   C1876     1.0  0.45121  0.83095  0.30329  1.0000
  C   C1877     1.0  0.45474  0.83062  0.27471  1.0000
  C   C1878     1.0  0.46507  0.83840  0.25679  1.0000
  C   C1879     1.0  0.47209  0.84608  0.26800  1.0000
  C   C1880     1.0  0.46864  0.84630  0.29661  1.0000
  H   H1513     1.0  0.44302  0.82518  0.31680  1.0000
  H   H1514     1.0  0.44932  0.82457  0.26639  1.0000
  H   H1515     1.0  0.48015  0.85205  0.25433  1.0000
  H   H1516     1.0  0.47399  0.85247  0.30480  1.0000
  C   C1881     1.0  0.38339  0.86896  0.45378  1.0000
  C   C1882     1.0  0.37371  0.87251  0.44705  1.0000
  C   C1883     1.0  0.36433  0.86433  0.44304  1.0000
  C   C1884     1.0  0.36441  0.85244  0.44539  1.0000
  C   C1885     1.0  0.37419  0.84893  0.45165  1.0000
  C   C1886     1.0  0.45867  0.86321  0.01258  1.0000
  H   H1517     1.0  0.37336  0.88154  0.44530  1.0000
  H   H1518     1.0  0.35689  0.86724  0.43818  1.0000
  C   C1887     1.0  0.41184  0.76228  0.40379  1.0000
  H   H1519     1.0  0.48780  0.98490  0.24850  1.0000
  H   H1520     1.0  0.48255  0.83227  0.31798  1.0000
  C   C1888     1.0  0.29764  0.79105  0.04858  1.0000
  H   H1521     1.0  0.42004  0.81052  0.33047  1.0000
  H   H1522     1.0  0.46542  0.95252  0.00195  1.0000
  H   H1523     1.0  0.34207  0.77652  0.36547  1.0000
  H   H1524     1.0  0.46487  0.77065  0.02794  1.0000
  C   C1889     1.0  0.27421  0.77515  0.44785  1.0000
  C   C1890     1.0  0.38778  0.98431  0.23774  1.0000
  C   C1891     1.0  0.47587  0.94208  0.43902  1.0000
  C   C1892     1.0  0.47958  0.93391  0.42530  1.0000
  C   C1893     1.0  0.47148  0.92365  0.42565  1.0000
  C   C1894     1.0  0.45958  0.92173  0.43881  1.0000
  C   C1895     1.0  0.45597  0.92980  0.45292  1.0000
  C   C1896     1.0  0.27029  0.78209  0.00435  1.0000
  H   H1525     1.0  0.48869  0.93536  0.41480  1.0000
  H   H1526     1.0  0.47443  0.91727  0.41546  1.0000
  C   C1897     1.0  0.48933  0.94984  0.21741  1.0000
  C   C1898     1.0  0.41559  0.85189  0.01804  1.0000
  H   H1527     1.0  0.38375  0.79809  0.28339  1.0000
  C   C1899     1.0  0.31502  0.77439  0.15590  1.0000
  H   H1528     1.0  0.38288  0.79799  0.34203  1.0000
  H   H1529     1.0  0.38092  0.78719  0.39116  1.0000
  H   H1530     1.0  0.38355  0.78352  0.25511  1.0000
  C   C1900     1.0  0.42653  0.94278  0.28255  1.0000
  C   C1901     1.0  0.42114  0.93168  0.30178  1.0000
  C   C1902     1.0  0.41822  0.93034  0.33150  1.0000
  C   C1903     1.0  0.42057  0.94011  0.34255  1.0000
  C   C1904     1.0  0.42579  0.95125  0.32331  1.0000
  C   C1905     1.0  0.42879  0.95258  0.29356  1.0000
  P   P61       1.0  0.30037  0.78121  0.33303  1.0000
  H   H1531     1.0  0.41408  0.92175  0.34587  1.0000
  H   H1532     1.0  0.40066  0.80852  0.08893  1.0000
  C   C1906     1.0  0.42785  0.94892  0.08100  1.0000
  S   S273      1.0  0.49034  0.81647  0.40555  1.0000
  C   C1907     1.0  0.41803  0.92925  0.07861  1.0000
  C   C1908     1.0  0.41970  0.93294  0.04883  1.0000
  C   C1909     1.0  0.42562  0.94472  0.03530  1.0000
  C   C1910     1.0  0.42948  0.95261  0.05124  1.0000
  H   H1533     1.0  0.41347  0.92024  0.08962  1.0000
  H   H1534     1.0  0.42701  0.94785  0.01256  1.0000
  H   H1535     1.0  0.43380  0.96168  0.04033  1.0000
  S   S274      1.0  0.32045  0.75597  0.23385  1.0000
  H   H1536     1.0  0.35715  0.96834  0.28838  1.0000
  H   H1537     1.0  0.47318  0.83938  0.99125  1.0000
  C   C1911     1.0  0.49143  0.97456  0.14989  1.0000
  C   C1912     1.0  0.29579  0.79720  0.36432  1.0000
  Fe  Fe135     1.0  0.34645  0.79827  0.47257  1.0000
  C   C1913     1.0  0.38994  0.89316  0.07777  1.0000
  C   C1914     1.0  0.36799  0.77262  0.10634  1.0000
  C   C1915     1.0  0.36346  0.76622  0.08883  1.0000
  C   C1916     1.0  0.26146  0.79356  0.04413  1.0000
  C   C1917     1.0  0.29140  0.77052  0.15606  1.0000
  C   C1918     1.0  0.37674  0.78962  0.06574  1.0000
  C   C1919     1.0  0.37462  0.78424  0.09491  1.0000
  H   H1538     1.0  0.44331  0.81836  0.38756  1.0000
  H   H1539     1.0  0.49855  0.90392  0.36324  1.0000
  H   H1540     1.0  0.39558  0.78879  0.02189  1.0000
  H   H1541     1.0  0.36623  0.76866  0.12896  1.0000
  C   C1920     1.0  0.27174  0.78694  0.38330  1.0000
  C   C1921     1.0  0.44563  0.76758  0.46376  1.0000
  C   C1922     1.0  0.45030  0.86944  0.01964  1.0000
  H   H1542     1.0  0.37788  0.78897  0.10919  1.0000
  H   H1543     1.0  0.37357  0.95924  0.29001  1.0000
  C   C1923     1.0  0.46322  0.86343  0.98420  1.0000
  H   H1544     1.0  0.49517  0.85931  0.13405  1.0000
  C   C1924     1.0  0.47894  0.79470  0.22888  1.0000
  H   H1545     1.0  0.47163  0.90883  0.01366  1.0000
  C   C1925     1.0  0.30947  0.76775  0.05147  1.0000
  C   C1926     1.0  0.38621  0.97340  0.25688  1.0000
  C   C1927     1.0  0.48614  0.79280  0.40812  1.0000
  C   C1928     1.0  0.49116  0.94804  0.02477  1.0000
  C   C1929     1.0  0.29686  0.76311  0.30614  1.0000
  C   C1930     1.0  0.46600  0.77978  0.01776  1.0000
  P   P62       1.0  0.44472  0.86918  0.05652  1.0000
  C   C1931     1.0  0.43585  0.87952  0.05994  1.0000
  C   C1932     1.0  0.43566  0.85493  0.07760  1.0000
  C   C1933     1.0  0.43652  0.84462  0.06915  1.0000
  C   C1934     1.0  0.42997  0.83365  0.08695  1.0000
  C   C1935     1.0  0.42269  0.83289  0.11326  1.0000
  C   C1936     1.0  0.42162  0.84309  0.12159  1.0000
  C   C1937     1.0  0.42805  0.85407  0.10386  1.0000
  C   C1938     1.0  0.42534  0.87782  0.05169  1.0000
  C   C1939     1.0  0.41838  0.88572  0.05389  1.0000
  C   C1940     1.0  0.42168  0.89521  0.06517  1.0000
  C   C1941     1.0  0.43190  0.89675  0.07447  1.0000
  C   C1942     1.0  0.43900  0.88897  0.07182  1.0000
  C   C1943     1.0  0.45724  0.87327  0.07020  1.0000
  C   C1944     1.0  0.45794  0.86694  0.09664  1.0000
  C   C1945     1.0  0.46730  0.87086  0.10778  1.0000
  C   C1946     1.0  0.47596  0.88110  0.09269  1.0000
  C   C1947     1.0  0.47549  0.88722  0.06598  1.0000
  C   C1948     1.0  0.46623  0.88325  0.05463  1.0000
  C   C1949     1.0  0.39094  0.93953  0.34366  1.0000
  C   C1950     1.0  0.44498  0.95996  0.42466  1.0000
  H   H1546     1.0  0.48047  0.91513  0.34790  1.0000
  H   H1547     1.0  0.46173  0.85822  0.02902  1.0000
  C   C1951     1.0  0.43262  0.98574  0.23494  1.0000
  H   H1548     1.0  0.44230  0.84491  0.04919  1.0000
  H   H1549     1.0  0.43068  0.82569  0.08067  1.0000
  H   H1550     1.0  0.41810  0.82437  0.12753  1.0000
  H   H1551     1.0  0.41612  0.84241  0.14233  1.0000
  H   H1552     1.0  0.42739  0.86186  0.11113  1.0000
  H   H1553     1.0  0.42267  0.87051  0.04295  1.0000
  H   H1554     1.0  0.41054  0.88464  0.04628  1.0000
  H   H1555     1.0  0.41639  0.90147  0.06636  1.0000
  H   H1556     1.0  0.48153  0.81535  0.09066  1.0000
  S   S275      1.0  0.41662  0.90008  0.98556  1.0000
  H   H1557     1.0  0.45134  0.85899  0.10878  1.0000
  H   H1558     1.0  0.46783  0.86589  0.12812  1.0000
  H   H1559     1.0  0.48316  0.88412  0.10149  1.0000
  H   H1560     1.0  0.48228  0.89503  0.05401  1.0000
  H   H1561     1.0  0.46595  0.88804  0.03391  1.0000
  C   C1952     1.0  0.30141  0.80246  0.03078  1.0000
  C   C1953     1.0  0.43484  0.77139  0.40515  1.0000
  C   C1954     1.0  0.30787  0.81151  0.03924  1.0000
  C   C1955     1.0  0.31058  0.80916  0.06548  1.0000
  H   H1562     1.0  0.46003  0.97858  0.33167  1.0000
  H   H1563     1.0  0.30951  0.79613  0.10301  1.0000
  C   C1956     1.0  0.47231  0.89057  0.36183  1.0000
  C   C1957     1.0  0.42118  0.99733  0.25697  1.0000
  H   H1564     1.0  0.31564  0.81616  0.07202  1.0000
  C   C1958     1.0  0.45004  0.82220  0.04474  1.0000
  H   H1565     1.0  0.28526  0.76017  0.37665  1.0000
  H   H1566     1.0  0.40896  0.81161  0.44259  1.0000
  H   H1567     1.0  0.27768  0.78639  0.09831  1.0000
  C   C1959     1.0  0.29662  0.77146  0.43930  1.0000
  H   H1568     1.0  0.46441  0.96072  0.24985  1.0000
  C   C1960     1.0  0.29639  0.79824  0.25693  1.0000
  C   C1961     1.0  0.27888  0.78210  0.36570  1.0000
  S   S276      1.0  0.33340  0.80904  0.47711  1.0000
  C   C1962     1.0  0.42615  0.81635  0.41403  1.0000
  P   P63       1.0  0.46814  0.94173  0.05766  1.0000
  C   C1963     1.0  0.46361  0.95473  0.04465  1.0000
  C   C1964     1.0  0.46331  0.93063  0.04018  1.0000
  C   C1965     1.0  0.45198  0.92881  0.03606  1.0000
  C   C1966     1.0  0.44782  0.91987  0.02385  1.0000
  C   C1967     1.0  0.26130  0.77339  0.11247  1.0000
  H   H1569     1.0  0.31999  0.76325  0.01692  1.0000
  C   C1968     1.0  0.47029  0.92319  0.03263  1.0000
  C   C1969     1.0  0.46147  0.96228  0.06206  1.0000
  C   C1970     1.0  0.45861  0.97271  0.05126  1.0000
  H   H1570     1.0  0.45564  0.86591  0.28460  1.0000
  C   C1971     1.0  0.49234  0.82004  0.33128  1.0000
  C   C1972     1.0  0.46328  0.95796  0.01608  1.0000
  C   C1973     1.0  0.46146  0.93480  0.09481  1.0000
  C   C1974     1.0  0.46734  0.92848  0.11149  1.0000
  C   C1975     1.0  0.46185  0.92261  0.13998  1.0000
  C   C1976     1.0  0.45036  0.92278  0.15172  1.0000
  C   C1977     1.0  0.44436  0.92878  0.13495  1.0000
  C   C1978     1.0  0.44991  0.93480  0.10665  1.0000
  H   H1571     1.0  0.35540  0.81072  0.99863  1.0000
  H   H1572     1.0  0.32207  0.77718  0.30331  1.0000
  H   H1573     1.0  0.47184  0.95316  0.29075  1.0000
  C   C1979     1.0  0.41103  0.98832  0.26234  1.0000
  H   H1574     1.0  0.47298  0.77661  0.47219  1.0000
  H   H1575     1.0  0.44634  0.93430  0.04226  1.0000
  C   C1980     1.0  0.49405  0.86343  0.09061  1.0000
  H   H1576     1.0  0.41520  0.79120  0.99167  1.0000
  H   H1577     1.0  0.49693  0.82561  0.34223  1.0000
  C   C1981     1.0  0.43767  0.75437  0.19043  1.0000
  H   H1578     1.0  0.46194  0.96011  0.08399  1.0000
  H   H1579     1.0  0.45662  0.97832  0.06508  1.0000
  C   C1982     1.0  0.47426  0.93154  0.23539  1.0000
  C   C1983     1.0  0.36571  0.97281  0.27425  1.0000
  C   C1984     1.0  0.38840  0.88096  0.08501  1.0000
  H   H1580     1.0  0.34307  0.83609  0.04541  1.0000
  H   H1581     1.0  0.46652  0.91798  0.15295  1.0000
  H   H1582     1.0  0.44612  0.91836  0.17384  1.0000
  H   H1583     1.0  0.43548  0.92902  0.14399  1.0000
  H   H1584     1.0  0.44524  0.93949  0.09393  1.0000
  H   H1585     1.0  0.49442  0.81429  0.16616  1.0000
  C   C1985     1.0  0.38632  0.82363  0.00620  1.0000
  H   H1586     1.0  0.41109  0.85964  0.39825  1.0000
  H   H1587     1.0  0.27485  0.77452  0.35936  1.0000
  H   H1588     1.0  0.34296  0.85350  0.06478  1.0000
  C   C1986     1.0  0.42780  0.75631  0.18158  1.0000
  C   C1987     1.0  0.37511  0.82783  0.31852  1.0000
  C   C1988     1.0  0.37143  0.82983  0.29347  1.0000
  C   C1989     1.0  0.37742  0.82719  0.26941  1.0000
  C   C1990     1.0  0.38704  0.82247  0.27044  1.0000
  C   C1991     1.0  0.39045  0.81993  0.29592  1.0000
  C   C1992     1.0  0.38463  0.82297  0.31974  1.0000
  P   P64       1.0  0.40270  0.81357  0.29721  1.0000
  C   C1993     1.0  0.40258  0.80284  0.27646  1.0000
  C   C1994     1.0  0.41553  0.82580  0.28455  1.0000
  C   C1995     1.0  0.42204  0.82895  0.25613  1.0000
  C   C1996     1.0  0.43206  0.83830  0.24649  1.0000
  C   C1997     1.0  0.43551  0.84475  0.26506  1.0000
  C   C1998     1.0  0.42881  0.84200  0.29314  1.0000
  C   C1999     1.0  0.41877  0.83263  0.30281  1.0000
  C   C2000     1.0  0.41300  0.80032  0.26410  1.0000
  C   C2001     1.0  0.41282  0.79202  0.24804  1.0000
  C   C2002     1.0  0.40221  0.78591  0.24501  1.0000
  C   C2003     1.0  0.39177  0.78813  0.25786  1.0000
  C   C2004     1.0  0.39193  0.79651  0.27364  1.0000
  C   C2005     1.0  0.40151  0.80540  0.33294  1.0000
  C   C2006     1.0  0.39060  0.79845  0.35007  1.0000
  C   C2007     1.0  0.38949  0.79221  0.37791  1.0000
  C   C2008     1.0  0.39936  0.79260  0.38862  1.0000
  C   C2009     1.0  0.41035  0.79919  0.37139  1.0000
  C   C2010     1.0  0.41145  0.80554  0.34358  1.0000
  H   H1589     1.0  0.37032  0.82966  0.33736  1.0000
  H   H1590     1.0  0.36378  0.83319  0.29292  1.0000
  H   H1591     1.0  0.37442  0.82855  0.25018  1.0000
  H   H1592     1.0  0.39167  0.82057  0.25156  1.0000
  H   H1593     1.0  0.38722  0.82136  0.33949  1.0000
  H   H1594     1.0  0.41942  0.82416  0.24142  1.0000
  H   H1595     1.0  0.43727  0.84040  0.22473  1.0000
  H   H1596     1.0  0.44357  0.85163  0.25788  1.0000
  H   H1597     1.0  0.43158  0.84695  0.30759  1.0000
  H   H1598     1.0  0.41364  0.83063  0.32458  1.0000
  H   H1599     1.0  0.42128  0.80487  0.26653  1.0000
  Fe  Fe136     1.0  0.46281  0.96511  0.15879  1.0000
  H   H1600     1.0  0.42752  0.95892  0.33148  1.0000
  H   H1601     1.0  0.44722  0.94300  0.31087  1.0000
  C   C2011     1.0  0.40003  0.80536  0.03297  1.0000
  H   H1602     1.0  0.39568  0.87045  0.39899  1.0000
  C   C2012     1.0  0.47183  0.83760  0.03588  1.0000
  H   H1603     1.0  0.48903  0.81729  0.46250  1.0000
  H   H1604     1.0  0.43157  0.86980  0.37164  1.0000
  H   H1605     1.0  0.42089  0.90176  0.34673  1.0000
  C   C2013     1.0  0.38372  0.89211  0.03493  1.0000
  H   H1606     1.0  0.48774  0.94503  0.00830  1.0000
  C   C2014     1.0  0.28713  0.75796  0.35642  1.0000
  H   H1607     1.0  0.45272  0.93375  0.27182  1.0000
  H   H1608     1.0  0.45989  0.77334  0.12606  1.0000
  H   H1609     1.0  0.48955  0.96467  0.25188  1.0000
  C   C2015     1.0  0.44689  0.87620  0.99766  1.0000
  H   H1610     1.0  0.43965  0.75965  0.46312  1.0000
  H   H1611     1.0  0.41481  0.83831  0.05460  1.0000
  H   H1612     1.0  0.48128  0.89112  0.35158  1.0000
  C   C2016     1.0  0.46163  0.95998  0.37605  1.0000
  C   C2017     1.0  0.41898  0.89261  0.35807  1.0000
  C   C2018     1.0  0.42781  0.88658  0.35765  1.0000
  C   C2019     1.0  0.42136  0.79422  0.09734  1.0000
  C   C2020     1.0  0.48451  0.79901  0.19990  1.0000
  H   H1613     1.0  0.38146  0.92746  0.32479  1.0000
  H   H1614     1.0  0.42324  0.96862  0.23468  1.0000
  P   P65       1.0  0.38525  0.80473  0.05104  1.0000
  C   C2021     1.0  0.49027  0.81090  0.18869  1.0000
  H   H1615     1.0  0.47432  0.78550  0.23698  1.0000
  C   C2022     1.0  0.48010  0.80541  0.30391  1.0000
  C   C2023     1.0  0.49620  0.75341  0.34812  1.0000
  C   C2024     1.0  0.31377  0.78033  0.34299  1.0000
  C   C2025     1.0  0.39322  0.81199  0.09512  1.0000
  H   H1616     1.0  0.32620  0.78087  0.39861  1.0000
  H   H1617     1.0  0.36232  0.80074  0.03772  1.0000
  H   H1618     1.0  0.43672  0.88827  0.24487  1.0000
  C   C2026     1.0  0.42116  0.76193  0.38231  1.0000
  H   H1619     1.0  0.43342  0.78702  0.26843  1.0000
  C   C2027     1.0  0.44165  0.75505  0.99975  1.0000
  C   C2028     1.0  0.47988  0.88762  0.47144  1.0000
  Fe  Fe137     1.0  0.48284  0.83251  0.40184  1.0000
  C   C2029     1.0  0.37941  0.81291  0.02496  1.0000
  H   H1620     1.0  0.47122  0.78261  0.15473  1.0000
  C   C2030     1.0  0.36573  0.77139  0.05972  1.0000
  H   H1621     1.0  0.44160  0.81625  0.04819  1.0000
  H   H1622     1.0  0.40738  0.82236  0.03857  1.0000
  C   C2031     1.0  0.43847  0.79030  0.28208  1.0000
  H   H1623     1.0  0.44402  0.78041  0.99859  1.0000
  H   H1624     1.0  0.45471  0.79042  0.25487  1.0000
  H   H1625     1.0  0.47183  0.81956  0.29370  1.0000
  C   C2032     1.0  0.40746  0.88681  0.37322  1.0000
  H   H1626     1.0  0.36209  0.83677  0.17381  1.0000
  C   C2033     1.0  0.38459  0.81166  0.07999  1.0000
  C   C2034     1.0  0.43289  0.79228  0.30753  1.0000
  C   C2035     1.0  0.45062  0.79229  0.27434  1.0000
  C   C2036     1.0  0.47917  0.80225  0.24703  1.0000
  C   C2037     1.0  0.47808  0.81649  0.30418  1.0000
  C   C2038     1.0  0.48467  0.81427  0.23538  1.0000
  H   H1627     1.0  0.42345  0.79059  0.31361  1.0000
  C   C2039     1.0  0.36807  0.80857  0.02268  1.0000
  C   C2040     1.0  0.30684  0.80701  0.24556  1.0000
  C   C2041     1.0  0.29408  0.76644  0.33169  1.0000
  C   C2042     1.0  0.28355  0.78338  0.45136  1.0000
  H   H1628     1.0  0.39830  0.81591  0.13194  1.0000
  S   S277      1.0  0.26339  0.75557  0.43378  1.0000
  H   H1629     1.0  0.31841  0.77656  0.11079  1.0000
  S   S278      1.0  0.46487  0.76978  0.37891  1.0000
  C   C2043     1.0  0.44903  0.91636  0.29978  1.0000
  C   C2044     1.0  0.42209  0.93708  0.09445  1.0000
  H   H1630     1.0  0.44657  0.95301  0.36142  1.0000
  C   C2045     1.0  0.45732  0.79619  0.29213  1.0000
  C   C2046     1.0  0.46873  0.88845  0.39137  1.0000
  P   P66       1.0  0.47262  0.79638  0.28482  1.0000
  H   H1631     1.0  0.42573  0.82514  0.40427  1.0000
  H   H1632     1.0  0.49363  0.76511  0.28419  1.0000
  H   H1633     1.0  0.36009  0.98764  0.25457  1.0000
  C   C2047     1.0  0.37458  0.81537  0.08991  1.0000
  H   H1634     1.0  0.46771  0.79567  0.46472  1.0000
  H   H1635     1.0  0.48759  0.85529  0.09346  1.0000
  H   H1636     1.0  0.42082  0.79678  0.05370  1.0000
  C   C2048     1.0  0.41751  0.76669  0.04707  1.0000
  C   C2049     1.0  0.30067  0.78852  0.07460  1.0000
  C   C2050     1.0  0.45796  0.97571  0.02305  1.0000
  H   H1637     1.0  0.45446  0.88662  0.42729  1.0000
  C   C2051     1.0  0.43951  0.79626  0.32527  1.0000
  C   C2052     1.0  0.45166  0.79812  0.31772  1.0000
  P   P67       1.0  0.42844  0.77899  0.45385  1.0000
  H   H1638     1.0  0.36744  0.81451  0.07974  1.0000
  H   H1639     1.0  0.43284  0.96119  0.27922  1.0000
  C   C2053     1.0  0.44916  0.88924  0.38822  1.0000
  H   H1640     1.0  0.46963  0.81051  0.38445  1.0000
  H   H1641     1.0  0.43854  0.95968  0.44366  1.0000
  C   C2054     1.0  0.48482  0.94480  0.32801  1.0000
  H   H1642     1.0  0.43526  0.79770  0.34515  1.0000
  C   C2055     1.0  0.49425  0.80895  0.33163  1.0000
  C   C2056     1.0  0.38208  0.82006  0.12890  1.0000
  C   C2057     1.0  0.44206  0.78739  0.08059  1.0000
  H   H1643     1.0  0.40674  0.76756  0.44226  1.0000
  S   S279      1.0  0.43300  0.95945  0.10010  1.0000
  H   H1644     1.0  0.40812  0.94662  0.16405  1.0000
  H   H1645     1.0  0.41168  0.93779  0.21030  1.0000
  H   H1646     1.0  0.45335  0.87463  0.32524  1.0000
  C   C2058     1.0  0.45718  0.88790  0.40450  1.0000
  P   P68       1.0  0.44262  0.89373  0.33721  1.0000
  C   C2059     1.0  0.40059  0.95991  0.22864  1.0000
  H   H1647     1.0  0.47375  0.94614  0.20265  1.0000
  H   H1648     1.0  0.45657  0.80086  0.33214  1.0000
  H   H1649     1.0  0.45563  0.77395  0.31788  1.0000
  C   C2060     1.0  0.37341  0.81969  0.11407  1.0000
  H   H1650     1.0  0.38092  0.82287  0.14839  1.0000
  C   C2061     1.0  0.30651  0.77195  0.18148  1.0000
  C   C2062     1.0  0.45005  0.87806  0.30742  1.0000
  C   C2063     1.0  0.45263  0.89105  0.35859  1.0000
  C   C2064     1.0  0.44478  0.90947  0.32801  1.0000
  C   C2065     1.0  0.44449  0.88726  0.30739  1.0000
  C   C2066     1.0  0.44999  0.92847  0.29364  1.0000
  H   H1651     1.0  0.46204  0.91683  0.37737  1.0000
  S   S280      1.0  0.45143  0.82453  0.98828  1.0000
  C   C2067     1.0  0.47381  0.78140  0.29448  1.0000
  C   C2068     1.0  0.47872  0.92368  0.34669  1.0000
  C   C2069     1.0  0.45124  0.87295  0.28448  1.0000
  H   H1652     1.0  0.38207  0.89642  0.01526  1.0000
  C   C2070     1.0  0.43938  0.89064  0.28508  1.0000
  H   H1653     1.0  0.43437  0.89716  0.28555  1.0000
  C   C2071     1.0  0.48535  0.76710  0.29125  1.0000
  C   C2072     1.0  0.47256  0.80265  0.39020  1.0000
  H   H1654     1.0  0.45990  0.79214  0.37469  1.0000
  C   C2073     1.0  0.37839  0.98942  0.23694  1.0000
  C   C2074     1.0  0.49328  0.96694  0.35807  1.0000
  C   C2075     1.0  0.46396  0.77221  0.30999  1.0000
  H   H1655     1.0  0.36547  0.82218  0.12205  1.0000
  C   C2076     1.0  0.32517  0.77984  0.37804  1.0000
  C   C2077     1.0  0.40787  0.75403  0.09439  1.0000
  C   C2078     1.0  0.44665  0.87681  0.26166  1.0000
  C   C2079     1.0  0.44059  0.88554  0.26214  1.0000
  C   C2080     1.0  0.46835  0.92466  0.36334  1.0000
  H   H1656     1.0  0.39998  0.96402  0.15891  1.0000
  C   C2081     1.0  0.30309  0.76405  0.08017  1.0000
  C   C2082     1.0  0.38354  0.85711  0.45580  1.0000
  H   H1657     1.0  0.45852  0.93627  0.37736  1.0000
  H   H1658     1.0  0.44762  0.87290  0.24381  1.0000
  S   S281      1.0  0.43033  0.94372  0.24525  1.0000
  C   C2083     1.0  0.46707  0.79222  0.38455  1.0000
  C   C2084     1.0  0.48231  0.80309  0.40144  1.0000
  S   S282      1.0  0.49560  0.87883  0.37553  1.0000
  C   C2085     1.0  0.36406  0.81430  0.00065  1.0000
  C   C2086     1.0  0.33409  0.77735  0.35939  1.0000
  C   C2087     1.0  0.48796  0.98306  0.16269  1.0000
  H   H1659     1.0  0.47494  0.88731  0.40403  1.0000
  C   C2088     1.0  0.46635  0.93574  0.36313  1.0000
  H   H1660     1.0  0.47435  0.96680  0.39763  1.0000
  H   H1661     1.0  0.49438  0.86962  0.04703  1.0000
  H   H1662     1.0  0.48260  0.95189  0.09131  1.0000
  C   C2089     1.0  0.31500  0.78120  0.37001  1.0000
  H   H1663     1.0  0.30816  0.78294  0.38498  1.0000
  Fe  Fe138     1.0  0.43948  0.95794  0.20328  1.0000
  C   C2090     1.0  0.46436  0.89209  0.34543  1.0000
  C   C2091     1.0  0.45690  0.96386  0.42261  1.0000
  C   C2092     1.0  0.48698  0.93375  0.32914  1.0000
  C   C2093     1.0  0.33290  0.77635  0.33255  1.0000
  H   H1664     1.0  0.33992  0.77467  0.31783  1.0000
  H   H1665     1.0  0.29261  0.78413  0.04171  1.0000
  Fe  Fe139     1.0  0.44031  0.96358  0.13837  1.0000
  H   H1666     1.0  0.42056  0.93399  0.11723  1.0000
  H   H1667     1.0  0.48440  0.89269  0.44988  1.0000
  C   C2094     1.0  0.48452  0.77875  0.28512  1.0000
  C   C2095     1.0  0.40582  0.95018  0.18218  1.0000
  C   C2096     1.0  0.40780  0.94520  0.20817  1.0000
  C   C2097     1.0  0.44216  0.91497  0.34992  1.0000
  H   H1668     1.0  0.46739  0.89404  0.32253  1.0000
  C   C2098     1.0  0.47453  0.94589  0.34516  1.0000
  H   H1669     1.0  0.45477  0.97712  0.24982  1.0000
  C   C2099     1.0  0.41742  0.79742  0.44813  1.0000
  C   C2100     1.0  0.32280  0.77788  0.32431  1.0000
  C   C2101     1.0  0.46520  0.96388  0.39842  1.0000
  H   H1670     1.0  0.41904  0.87607  0.45750  1.0000
  C   C2102     1.0  0.43680  0.80131  0.41706  1.0000
  H   H1671     1.0  0.49027  0.95877  0.37468  1.0000
  H   H1672     1.0  0.49126  0.95252  0.31412  1.0000
  C   C2103     1.0  0.47547  0.75803  0.30649  1.0000
  H   H1673     1.0  0.36059  0.82831  0.03946  1.0000
  H   H1674     1.0  0.43931  0.90990  0.37186  1.0000
  H   H1675     1.0  0.28974  0.79754  0.24525  1.0000
  C   C2104     1.0  0.27351  0.77707  0.10409  1.0000
  C   C2105     1.0  0.46408  0.93990  0.45314  1.0000
  H   H1676     1.0  0.32416  0.77591  0.15586  1.0000
  H   H1677     1.0  0.49598  0.93074  0.26882  1.0000
  C   C2106     1.0  0.44695  0.93375  0.31562  1.0000
  H   H1678     1.0  0.36036  0.86319  0.07789  1.0000
  C   C2107     1.0  0.37068  0.85144  0.06534  1.0000
  C   C2108     1.0  0.47099  0.78199  0.39076  1.0000
  C   C2109     1.0  0.45809  0.97383  0.26767  1.0000
  C   C2110     1.0  0.40464  0.87493  0.38753  1.0000
  H   H1679     1.0  0.45255  0.98591  0.29061  1.0000
  C   C2111     1.0  0.46101  0.97458  0.31398  1.0000
  C   C2112     1.0  0.46642  0.96527  0.31438  1.0000
  C   C2113     1.0  0.44303  0.92701  0.34374  1.0000
  C   C2114     1.0  0.45682  0.97880  0.29074  1.0000
  H   H1680     1.0  0.30268  0.76930  0.28705  1.0000
  H   H1681     1.0  0.44838  0.79685  0.45828  1.0000
  C   C2115     1.0  0.44962  0.95612  0.37826  1.0000
  H   H1682     1.0  0.47124  0.82417  0.47613  1.0000
  H   H1683     1.0  0.44095  0.98488  0.22379  1.0000
  P   P69       1.0  0.45515  0.78251  0.07097  1.0000
  C   C2116     1.0  0.41159  0.97807  0.25333  1.0000
  C   C2117     1.0  0.44136  0.95621  0.40236  1.0000
  C   C2118     1.0  0.37242  0.78300  0.04816  1.0000
  H   H1684     1.0  0.48540  0.98325  0.30387  1.0000
  H   H1685     1.0  0.28220  0.76893  0.15675  1.0000
  H   H1686     1.0  0.40276  0.98943  0.27322  1.0000
  H   H1687     1.0  0.49367  0.79305  0.41682  1.0000
  H   H1688     1.0  0.43211  0.95315  0.40399  1.0000
  C   C2119     1.0  0.28021  0.76878  0.10422  1.0000
  C   C2120     1.0  0.43587  0.79074  0.06059  1.0000
  H   H1689     1.0  0.41929  0.92402  0.29364  1.0000
  H   H1690     1.0  0.26563  0.77681  0.45107  1.0000
  H   H1691     1.0  0.39898  0.85109  0.15967  1.0000
  S   S283      1.0  0.30619  0.79313  0.45123  1.0000
  C   C2121     1.0  0.31174  0.77478  0.13043  1.0000
  H   H1692     1.0  0.30528  0.77004  0.43580  1.0000
  C   C2122     1.0  0.48044  0.78225  0.40307  1.0000
  C   C2123     1.0  0.39743  0.95101  0.33976  1.0000
  H   H1693     1.0  0.44086  0.88153  0.00192  1.0000
  H   H1694     1.0  0.48950  0.79294  0.31957  1.0000
  C   C2124     1.0  0.25568  0.76142  0.12128  1.0000
  C   C2125     1.0  0.48419  0.82377  0.31777  1.0000
  H   H1695     1.0  0.39717  0.86964  0.01543  1.0000
  H   H1696     1.0  0.25808  0.79802  0.05957  1.0000
  C   C2126     1.0  0.49634  0.98326  0.24258  1.0000
  C   C2127     1.0  0.48622  0.97014  0.34017  1.0000
  C   C2128     1.0  0.46774  0.96036  0.29100  1.0000
  H   H1697     1.0  0.44041  0.93104  0.36078  1.0000
  C   C2129     1.0  0.27582  0.76496  0.43980  1.0000
  H   H1698     1.0  0.37448  0.83987  0.45365  1.0000
  C   C2130     1.0  0.49522  0.76309  0.35901  1.0000
  C   C2131     1.0  0.46611  0.91429  0.02029  1.0000
  C   C2132     1.0  0.46144  0.78777  0.46521  1.0000
  C   C2133     1.0  0.29450  0.79038  0.28342  1.0000
  C   C2134     1.0  0.30318  0.79110  0.29841  1.0000
  C   C2135     1.0  0.40525  0.95007  0.23123  1.0000
  H   H1699     1.0  0.40723  0.94630  0.25085  1.0000
  C   C2136     1.0  0.46352  0.96461  0.26776  1.0000
  H   H1700     1.0  0.38956  0.93305  0.36358  1.0000
  C   C2137     1.0  0.37049  0.84175  0.15951  1.0000
  P   P70       1.0  0.29595  0.77363  0.09700  1.0000
  C   C2138     1.0  0.42557  0.77151  0.42715  1.0000
  H   H1701     1.0  0.45715  0.75356  0.32796  1.0000
  C   C2139     1.0  0.38858  0.94469  0.29581  1.0000
  C   C2140     1.0  0.42015  0.81673  0.01176  1.0000
  H   H1702     1.0  0.38916  0.90822  0.04671  1.0000
  C   C2141     1.0  0.29993  0.77300  0.13024  1.0000
  C   C2142     1.0  0.47139  0.78762  0.13379  1.0000
  C   C2143     1.0  0.45051  0.78844  0.46085  1.0000
  C   C2144     1.0  0.46080  0.76098  0.08349  1.0000
  C   C2145     1.0  0.41677  0.80875  0.43567  1.0000
  C   C2146     1.0  0.49051  0.98064  0.31838  1.0000
  S   S284      1.0  0.45632  0.97125  0.19724  1.0000
  H   H1703     1.0  0.42419  0.79066  0.13924  1.0000
  C   C2147     1.0  0.39129  0.84977  0.15150  1.0000
  H   H1704     1.0  0.49419  0.82787  0.19754  1.0000
  C   C2148     1.0  0.36058  0.85564  0.06931  1.0000
  H   H1705     1.0  0.42706  0.82459  0.00845  1.0000
  H   H1706     1.0  0.42029  0.77539  0.03275  1.0000
  P   P71       1.0  0.42763  0.75852  0.00132  1.0000
  H   H1707     1.0  0.39490  0.82755  0.00807  1.0000
  H   H1708     1.0  0.44380  0.77502  0.40511  1.0000
  H   H1709     1.0  0.47653  0.97895  0.46553  1.0000
  H   H1710     1.0  0.40209  0.77959  0.23229  1.0000
  H   H1711     1.0  0.48411  0.79313  0.18612  1.0000
  H   H1712     1.0  0.44691  0.89045  0.07898  1.0000
  H   H1713     1.0  0.35966  0.84306  0.98579  1.0000
  H   H1714     1.0  0.49357  0.99870  0.17626  1.0000
  H   H1715     1.0  0.30906  0.77149  0.20127  1.0000
  C   C2149     1.0  0.31353  0.80010  0.28720  1.0000
  C   C2150     1.0  0.39972  0.95930  0.31375  1.0000
  H   H1716     1.0  0.44222  0.78470  0.12494  1.0000
  C   C2151     1.0  0.44262  0.77838  0.45944  1.0000
  H   H1717     1.0  0.29953  0.80425  0.01014  1.0000
  H   H1718     1.0  0.42785  0.86348  0.43041  1.0000
  H   H1719     1.0  0.42090  0.79042  0.23751  1.0000
  H   H1720     1.0  0.43445  0.90417  0.08311  1.0000
  H   H1721     1.0  0.49515  0.93299  0.31685  1.0000
  H   H1722     1.0  0.38502  0.94211  0.27906  1.0000
  C   C2152     1.0  0.38646  0.93638  0.32174  1.0000
  C   C2153     1.0  0.48372  0.94694  0.05138  1.0000
  H   H1723     1.0  0.30838  0.81307  0.22497  1.0000
  C   C2154     1.0  0.39539  0.95617  0.29146  1.0000
  C   C2155     1.0  0.44064  0.86174  0.45444  1.0000
  C   C2156     1.0  0.46442  0.77703  0.46925  1.0000
  C   C2157     1.0  0.29490  0.78179  0.44683  1.0000
  H   H1724     1.0  0.47886  0.98265  0.16993  1.0000
  H   H1725     1.0  0.36351  0.84492  0.12323  1.0000
  C   C2158     1.0  0.45173  0.76667  0.08331  1.0000
  H   H1726     1.0  0.45879  0.75858  0.47177  1.0000
  H   H1727     1.0  0.47894  0.92426  0.03615  1.0000
  H   H1728     1.0  0.40102  0.95335  0.35673  1.0000
  H   H1729     1.0  0.40501  0.96805  0.31108  1.0000
  C   C2159     1.0  0.49633  0.99226  0.16596  1.0000
  C   C2160     1.0  0.41402  0.76715  0.42604  1.0000
  H   H1730     1.0  0.37975  0.83974  0.19219  1.0000
  C   C2161     1.0  0.39870  0.96490  0.20233  1.0000
  S   S285      1.0  0.45717  0.97787  0.12835  1.0000
  C   C2162     1.0  0.40125  0.96001  0.17929  1.0000
  C   C2163     1.0  0.29470  0.76994  0.18159  1.0000
  H   H1731     1.0  0.46602  0.92611  0.23489  1.0000
  C   C2164     1.0  0.42558  0.79420  0.06902  1.0000
  C   C2165     1.0  0.46504  0.78234  0.11718  1.0000
  C   C2166     1.0  0.41051  0.86067  0.00716  1.0000
  C   C2167     1.0  0.43126  0.86579  0.44758  1.0000
  H   H1732     1.0  0.48197  0.80365  0.13747  1.0000
  C   C2168     1.0  0.41186  0.83802  0.47679  1.0000
  S   S286      1.0  0.43231  0.97055  0.17505  1.0000
  H   H1733     1.0  0.45170  0.90583  0.00596  1.0000
  C   C2169     1.0  0.44008  0.75998  0.09445  1.0000
  C   C2170     1.0  0.28713  0.76308  0.43581  1.0000
  P   P72       1.0  0.38347  0.85862  0.07462  1.0000
  H   H1734     1.0  0.37377  0.85782  0.99890  1.0000
  H   H1735     1.0  0.28859  0.75534  0.42941  1.0000
  C   C2171     1.0  0.42744  0.79079  0.11725  1.0000
  C   C2172     1.0  0.46330  0.79911  0.01836  1.0000
  P   P73       1.0  0.39841  0.96685  0.25770  1.0000
  C   C2173     1.0  0.38045  0.84342  0.16989  1.0000
  H   H1736     1.0  0.43992  0.76630  0.36637  1.0000
  C   C2174     1.0  0.25561  0.78205  0.04567  1.0000
  H   H1737     1.0  0.43290  0.76410  0.09547  1.0000
  C   C2175     1.0  0.43265  0.76656  0.38291  1.0000
  C   C2176     1.0  0.40236  0.79655  0.01964  1.0000
  C   C2177     1.0  0.43772  0.78741  0.10898  1.0000
  C   C2178     1.0  0.47741  0.79947  0.12416  1.0000
  H   H1738     1.0  0.31072  0.77655  0.03875  1.0000
  C   C2179     1.0  0.29101  0.78702  0.35664  1.0000
  Fe  Fe140     1.0  0.44994  0.98365  0.16728  1.0000
  H   H1739     1.0  0.25620  0.77982  0.11273  1.0000
  C   C2180     1.0  0.48810  0.80160  0.31822  1.0000
  H   H1740     1.0  0.47715  0.91857  0.26835  1.0000
  C   C2181     1.0  0.40906  0.81539  0.02908  1.0000
  H   H1741     1.0  0.28196  0.79119  0.45729  1.0000
  H   H1742     1.0  0.40351  0.75294  0.11651  1.0000
  C   C2182     1.0  0.41335  0.86884  0.38704  1.0000
  H   H1743     1.0  0.40065  0.85939  0.10871  1.0000
  C   C2183     1.0  0.45487  0.91259  0.01600  1.0000
  C   C2184     1.0  0.37136  0.84638  0.13070  1.0000
  H   H1744     1.0  0.32024  0.80104  0.29866  1.0000
  C   C2185     1.0  0.37509  0.96767  0.27510  1.0000
  C   C2186     1.0  0.42251  0.97666  0.24057  1.0000
  C   C2187     1.0  0.48055  0.92731  0.25409  1.0000
  H   H1745     1.0  0.44456  0.79853  0.40915  1.0000
  H   H1746     1.0  0.44697  0.92811  0.46447  1.0000
  C   C2188     1.0  0.46781  0.83524  0.01255  1.0000
  C   C2189     1.0  0.36736  0.98368  0.25520  1.0000
  C   C2190     1.0  0.45683  0.82764  0.01693  1.0000
  H   H1747     1.0  0.47617  0.92810  0.10255  1.0000
  H   H1748     1.0  0.32342  0.81486  0.25209  1.0000
  C   C2191     1.0  0.27164  0.79936  0.02256  1.0000
  H   H1749     1.0  0.46986  0.76600  0.07565  1.0000
  H   H1750     1.0  0.28385  0.79811  0.98577  1.0000
  C   C2192     1.0  0.37062  0.84153  0.05457  1.0000
  H   H1751     1.0  0.41334  0.79674  0.10407  1.0000
  C   C2193     1.0  0.27602  0.79362  0.00265  1.0000
  C   C2194     1.0  0.38225  0.85263  0.11195  1.0000
  C   C2195     1.0  0.39219  0.85442  0.12267  1.0000
  H   H1752     1.0  0.39548  0.97269  0.19923  1.0000
  C   C2196     1.0  0.40088  0.86277  0.02441  1.0000
  H   H1753     1.0  0.38903  0.75570  0.19650  1.0000
  C   C2197     1.0  0.42234  0.80805  0.99814  1.0000
  H   H1754     1.0  0.44447  0.85619  0.44278  1.0000
  C   C2198     1.0  0.40111  0.84700  0.06319  1.0000
  C   C2199     1.0  0.39614  0.85603  0.05267  1.0000
  H   H1755     1.0  0.37903  0.87499  0.02803  1.0000
  C   C2200     1.0  0.42629  0.87286  0.46286  1.0000
  H   H1756     1.0  0.28629  0.78372  0.29219  1.0000
  C   C2201     1.0  0.41089  0.84509  0.04608  1.0000
  H   H1757     1.0  0.45992  0.80508  0.02921  1.0000
  C   C2202     1.0  0.41144  0.76516  0.07534  1.0000
  H   H1758     1.0  0.48666  0.76435  0.36707  1.0000
  C   C2203     1.0  0.42761  0.79375  0.43945  1.0000
  H   H1759     1.0  0.36204  0.76651  0.04619  1.0000
  H   H1760     1.0  0.39037  0.87690  0.10436  1.0000
  H   H1761     1.0  0.37826  0.83810  0.05132  1.0000
  C   C2204     1.0  0.38208  0.87993  0.04219  1.0000
  H   H1762     1.0  0.39307  0.89838  0.09133  1.0000
  C   C2205     1.0  0.46189  0.78741  0.03299  1.0000
  H   H1763     1.0  0.41183  0.84161  0.45497  1.0000
  H   H1764     1.0  0.48360  0.77447  0.40783  1.0000
  H   H1765     1.0  0.40068  0.89151  0.37401  1.0000
  H   H1766     1.0  0.39626  0.98888  0.22334  1.0000
  H   H1767     1.0  0.35808  0.75731  0.09789  1.0000
  H   H1768     1.0  0.39745  0.84138  0.08454  1.0000
  C   C2206     1.0  0.49735  0.97181  0.24395  1.0000
  H   H1769     1.0  0.27112  0.80042  0.40576  1.0000
  C   C2207     1.0  0.47092  0.80079  0.08094  1.0000
  S   S287      1.0  0.33969  0.78539  0.01662  1.0000
  C   C2208     1.0  0.38461  0.87425  0.06701  1.0000
  C   C2209     1.0  0.31486  0.76018  0.03888  1.0000
  H   H1770     1.0  0.37396  0.78687  0.02561  1.0000
  H   H1771     1.0  0.27614  0.80830  0.02121  1.0000
  C   C2210     1.0  0.49904  0.88204  0.99342  1.0000
  H   H1772     1.0  0.47060  0.80627  0.06117  1.0000
  C   C2211     1.0  0.38770  0.89873  0.05263  1.0000
  C   C2212     1.0  0.47717  0.80605  0.09776  1.0000
  C   C2213     1.0  0.41349  0.79791  0.00229  1.0000
  H   H1773     1.0  0.39096  0.85423  0.46076  1.0000
  H   H1774     1.0  0.42949  0.83606  0.46596  1.0000
  C   C2214     1.0  0.27447  0.75676  0.11291  1.0000
  H   H1775     1.0  0.46297  0.88909  0.46642  1.0000
  H   H1776     1.0  0.45551  0.98369  0.01500  1.0000
  C   C2215     1.0  0.25997  0.77627  0.02564  1.0000
  H   H1777     1.0  0.42319  0.85039  0.00477  1.0000
  C   C2216     1.0  0.49581  0.94564  0.23593  1.0000
  H   H1778     1.0  0.49361  0.91461  0.45755  1.0000
  Fe  Fe141     1.0  0.41408  0.91819  0.98608  1.0000
  H   H1779     1.0  0.43090  0.80924  0.98436  1.0000
  P   P74       1.0  0.25274  0.76138  0.02724  1.0000
  C   C2217     1.0  0.30259  0.75279  0.09620  1.0000
  C   C2218     1.0  0.46925  0.80329  0.98961  1.0000
  H   H1780     1.0  0.37967  0.99784  0.22212  1.0000
  C   C2219     1.0  0.43195  0.99612  0.24283  1.0000
  C   C2220     1.0  0.49102  0.91418  0.48003  1.0000
  C   C2221     1.0  0.38220  0.82944  0.98442  1.0000
  C   C2222     1.0  0.49798  0.87165  0.06411  1.0000
  H   H1781     1.0  0.47579  0.92056  0.47743  1.0000
  C   C2223     1.0  0.37119  0.82459  0.98121  1.0000
  C   C2224     1.0  0.49653  0.90128  0.99634  1.0000
  C   C2225     1.0  0.49832  0.86570  0.11351  1.0000
  H   H1782     1.0  0.27107  0.75967  0.05664  1.0000
  C   C2226     1.0  0.26394  0.75343  0.02440  1.0000
  H   H1783     1.0  0.36897  0.75433  0.19069  1.0000
  H   H1784     1.0  0.41951  0.75805  0.36521  1.0000
  C   C2227     1.0  0.27170  0.75421  0.04187  1.0000
  H   H1785     1.0  0.40293  0.75879  0.40312  1.0000
  C   C2228     1.0  0.44511  0.86480  0.47645  1.0000
  C   C2229     1.0  0.43944  0.78221  0.98224  1.0000
  S   S288      1.0  0.44827  0.94646  0.67177  1.0000
  C   C2230     1.0  0.46181  0.87879  0.50863  1.0000
  H   H1786     1.0  0.30173  0.78278  0.78812  1.0000
  C   C2231     1.0  0.31699  0.81455  0.55355  1.0000
  C   C2232     1.0  0.41849  0.77164  0.48819  1.0000
  H   H1787     1.0  0.38691  0.85657  0.70456  1.0000
  S   S289      1.0  0.43148  0.94104  0.74865  1.0000
  C   C2233     1.0  0.47047  0.84590  0.50579  1.0000
  H   H1788     1.0  0.30775  0.81594  0.49305  1.0000
  H   H1789     1.0  0.47902  0.90602  0.79255  1.0000
  S   S290      1.0  0.48780  0.94871  0.94818  1.0000
  H   H1790     1.0  0.36057  0.83891  0.77061  1.0000
  H   H1791     1.0  0.44797  0.92653  0.96169  1.0000
  S   S291      1.0  0.48241  0.95831  0.65610  1.0000
  S   S292      1.0  0.41062  0.92406  0.52781  1.0000
  Fe  Fe142     1.0  0.41576  0.92349  0.92028  1.0000
  S   S293      1.0  0.41894  0.90593  0.91701  1.0000
  S   S294      1.0  0.41813  0.93898  0.88174  1.0000
  Fe  Fe143     1.0  0.40417  0.89823  0.95716  1.0000
  C   C2234     1.0  0.39121  0.75417  0.64299  1.0000
  Fe  Fe144     1.0  0.43081  0.90920  0.94571  1.0000
  S   S295      1.0  0.44907  0.90620  0.93944  1.0000
  S   S296      1.0  0.40058  0.91589  0.96012  1.0000
  S   S297      1.0  0.42851  0.92711  0.94652  1.0000
  Fe  Fe145     1.0  0.48230  0.85339  0.90372  1.0000
  S   S298      1.0  0.46258  0.84836  0.91451  1.0000
  S   S299      1.0  0.48774  0.87326  0.90106  1.0000
  Fe  Fe146     1.0  0.48242  0.82760  0.90133  1.0000
  S   S300      1.0  0.46300  0.82160  0.91230  1.0000
  H   H1792     1.0  0.47032  0.92051  0.52735  1.0000
  Fe  Fe147     1.0  0.46418  0.83842  0.88102  1.0000
  S   S301      1.0  0.45242  0.83795  0.85095  1.0000
  Fe  Fe148     1.0  0.46362  0.83220  0.94440  1.0000
  S   S302      1.0  0.49254  0.81395  0.89375  1.0000
  S   S303      1.0  0.48371  0.84418  0.86805  1.0000
  S   S304      1.0  0.48315  0.83737  0.93567  1.0000
  Fe  Fe149     1.0  0.46284  0.83616  0.63011  1.0000
  S   S305      1.0  0.44641  0.82183  0.64030  1.0000
  S   S306      1.0  0.47354  0.84595  0.58552  1.0000
  Fe  Fe150     1.0  0.46228  0.83427  0.69307  1.0000
  S   S307      1.0  0.44571  0.81989  0.70832  1.0000
  S   S308      1.0  0.47332  0.84115  0.72076  1.0000
  Fe  Fe151     1.0  0.45359  0.81234  0.67359  1.0000
  S   S309      1.0  0.45479  0.79357  0.68066  1.0000
  Fe  Fe152     1.0  0.43995  0.83059  0.67387  1.0000
  S   S310      1.0  0.42197  0.83345  0.68161  1.0000
  S   S311      1.0  0.47072  0.82597  0.66078  1.0000
  S   S312      1.0  0.45583  0.84577  0.66126  1.0000
  Fe  Fe153     1.0  0.32105  0.80248  0.94189  1.0000
  S   S313      1.0  0.33065  0.78846  0.94597  1.0000
  Fe  Fe154     1.0  0.34361  0.82223  0.93925  1.0000
  S   S314      1.0  0.35406  0.80871  0.94227  1.0000
  S   S315      1.0  0.35382  0.84195  0.93062  1.0000
  Fe  Fe155     1.0  0.34522  0.80150  0.91164  1.0000
  S   S316      1.0  0.35521  0.79508  0.87657  1.0000
  C   C2235     1.0  0.47874  0.87235  0.72922  1.0000
  Fe  Fe156     1.0  0.46419  0.96092  0.66523  1.0000
  S   S317      1.0  0.33550  0.81553  0.90606  1.0000
  C   C2236     1.0  0.32668  0.75482  0.50802  1.0000
  Fe  Fe157     1.0  0.36741  0.78832  0.68716  1.0000
  S   S318      1.0  0.36047  0.80435  0.68159  1.0000
  S   S319      1.0  0.38633  0.78827  0.67701  1.0000
  Fe  Fe158     1.0  0.34341  0.77162  0.70807  1.0000
  S   S320      1.0  0.33443  0.78621  0.70484  1.0000
  H   H1793     1.0  0.28101  0.77967  0.69357  1.0000
  Fe  Fe159     1.0  0.34769  0.79421  0.66287  1.0000
  S   S321      1.0  0.34240  0.80359  0.62528  1.0000
  Fe  Fe160     1.0  0.34801  0.79485  0.72404  1.0000
  S   S322      1.0  0.34287  0.80447  0.75713  1.0000
  S   S323      1.0  0.35575  0.77892  0.66476  1.0000
  S   S324      1.0  0.35586  0.77954  0.73098  1.0000
  H   H1794     1.0  0.32317  0.85401  0.79029  1.0000
  H   H1795     1.0  0.36273  0.84576  0.81336  1.0000
  H   H1796     1.0  0.32272  0.77486  0.88312  1.0000
  H   H1797     1.0  0.47730  0.87348  0.85151  1.0000
  C   C2237     1.0  0.30424  0.78633  0.74287  1.0000
  C   C2238     1.0  0.31571  0.81928  0.52658  1.0000
  H   H1798     1.0  0.49628  0.86506  0.77803  1.0000
  C   C2239     1.0  0.48043  0.87851  0.77214  1.0000
  H   H1799     1.0  0.28126  0.79722  0.65666  1.0000
  H   H1800     1.0  0.48074  0.86747  0.63649  1.0000
  C   C2240     1.0  0.47532  0.81425  0.81793  1.0000
  H   H1801     1.0  0.48691  0.90458  0.62852  1.0000
  C   C2241     1.0  0.35141  0.79721  0.84376  1.0000
  C   C2242     1.0  0.34339  0.80373  0.83852  1.0000
  C   C2243     1.0  0.34090  0.80580  0.81185  1.0000
  C   C2244     1.0  0.34637  0.80144  0.79016  1.0000
  C   C2245     1.0  0.35437  0.79484  0.79534  1.0000
  C   C2246     1.0  0.35689  0.79276  0.82210  1.0000
  H   H1802     1.0  0.33912  0.80720  0.85494  1.0000
  H   H1803     1.0  0.33454  0.81064  0.80809  1.0000
  H   H1804     1.0  0.35868  0.79145  0.77874  1.0000
  H   H1805     1.0  0.36313  0.78772  0.82598  1.0000
  C   C2247     1.0  0.34892  0.79247  0.54184  1.0000
  C   C2248     1.0  0.35155  0.78616  0.56568  1.0000
  C   C2249     1.0  0.34955  0.78940  0.59150  1.0000
  C   C2250     1.0  0.34485  0.79899  0.59361  1.0000
  C   C2251     1.0  0.34211  0.80522  0.56988  1.0000
  C   C2252     1.0  0.34416  0.80202  0.54404  1.0000
  H   H1806     1.0  0.35518  0.77875  0.56404  1.0000
  H   H1807     1.0  0.35167  0.78453  0.60964  1.0000
  H   H1808     1.0  0.33865  0.81273  0.57136  1.0000
  H   H1809     1.0  0.34220  0.80704  0.52581  1.0000
  C   C2253     1.0  0.44415  0.78191  0.67752  1.0000
  C   C2254     1.0  0.44704  0.77121  0.67790  1.0000
  C   C2255     1.0  0.43856  0.76118  0.67910  1.0000
  C   C2256     1.0  0.42718  0.76179  0.67873  1.0000
  C   C2257     1.0  0.42436  0.77266  0.67703  1.0000
  C   C2258     1.0  0.43284  0.78272  0.67661  1.0000
  H   H1810     1.0  0.45578  0.77054  0.67852  1.0000
  H   H1811     1.0  0.47037  0.77541  0.80631  1.0000
  H   H1812     1.0  0.41559  0.77324  0.67650  1.0000
  H   H1813     1.0  0.43058  0.79099  0.67617  1.0000
  C   C2259     1.0  0.41182  0.82058  0.68301  1.0000
  C   C2260     1.0  0.40002  0.82044  0.68633  1.0000
  C   C2261     1.0  0.39201  0.81038  0.68552  1.0000
  C   C2262     1.0  0.39584  0.80054  0.68098  1.0000
  C   C2263     1.0  0.40755  0.80054  0.67880  1.0000
  C   C2264     1.0  0.41551  0.81050  0.68014  1.0000
  H   H1814     1.0  0.39709  0.82813  0.68931  1.0000
  H   H1815     1.0  0.38296  0.81036  0.68789  1.0000
  H   H1816     1.0  0.41047  0.79285  0.67575  1.0000
  H   H1817     1.0  0.42451  0.81039  0.67863  1.0000
  C   C2265     1.0  0.38922  0.84396  0.73928  1.0000
  C   C2266     1.0  0.40194  0.83183  0.52716  1.0000
  C   C2267     1.0  0.49769  0.91021  0.49802  1.0000
  H   H1818     1.0  0.47160  0.99842  0.69764  1.0000
  C   C2268     1.0  0.31026  0.81375  0.82219  1.0000
  P   P75       1.0  0.48921  0.88580  0.79189  1.0000
  C   C2269     1.0  0.30822  0.79811  0.86394  1.0000
  C   C2270     1.0  0.45664  0.83602  0.56152  1.0000
  C   C2271     1.0  0.46798  0.84291  0.55691  1.0000
  S   S325      1.0  0.43916  0.95396  0.59853  1.0000
  C   C2272     1.0  0.40869  0.77211  0.53565  1.0000
  H   H1819     1.0  0.39569  0.79205  0.75264  1.0000
  H   H1820     1.0  0.45118  0.83230  0.58281  1.0000
  H   H1821     1.0  0.29464  0.78238  0.87103  1.0000
  S   S326      1.0  0.41699  0.90128  0.48467  1.0000
  C   C2273     1.0  0.45852  0.83814  0.81534  1.0000
  C   C2274     1.0  0.45116  0.83375  0.79939  1.0000
  C   C2275     1.0  0.45559  0.83445  0.77045  1.0000
  C   C2276     1.0  0.46745  0.83957  0.75730  1.0000
  C   C2277     1.0  0.47487  0.84373  0.77340  1.0000
  C   C2278     1.0  0.47043  0.84302  0.80233  1.0000
  H   H1822     1.0  0.44203  0.82967  0.80959  1.0000
  H   H1823     1.0  0.44985  0.83105  0.75835  1.0000
  H   H1824     1.0  0.48405  0.84768  0.76334  1.0000
  H   H1825     1.0  0.47617  0.84650  0.81431  1.0000
  C   C2279     1.0  0.38008  0.86972  0.95708  1.0000
  C   C2280     1.0  0.37885  0.87140  0.92915  1.0000
  C   C2281     1.0  0.37086  0.86288  0.92164  1.0000
  C   C2282     1.0  0.36393  0.85239  0.94168  1.0000
  C   C2283     1.0  0.36509  0.85077  0.96968  1.0000
  H   H1826     1.0  0.37853  0.77832  0.57781  1.0000
  C   C2284     1.0  0.37598  0.76018  0.74888  1.0000
  H   H1827     1.0  0.37005  0.86447  0.90000  1.0000
  H   H1828     1.0  0.45795  0.90129  0.50168  1.0000
  H   H1829     1.0  0.29735  0.75992  0.49481  1.0000
  C   C2285     1.0  0.44050  0.75844  0.60716  1.0000
  H   H1830     1.0  0.47448  0.86998  0.59175  1.0000
  H   H1831     1.0  0.47369  0.99465  0.48946  1.0000
  H   H1832     1.0  0.35677  0.76501  0.60417  1.0000
  C   C2286     1.0  0.49029  0.92474  0.58274  1.0000
  C   C2287     1.0  0.37964  0.79453  0.54818  1.0000
  H   H1833     1.0  0.41198  0.82498  0.55478  1.0000
  S   S327      1.0  0.26224  0.75523  0.92540  1.0000
  C   C2288     1.0  0.47739  0.93656  0.94620  1.0000
  C   C2289     1.0  0.48057  0.92729  0.93617  1.0000
  C   C2290     1.0  0.47186  0.91783  0.93471  1.0000
  C   C2291     1.0  0.45999  0.91774  0.94269  1.0000
  C   C2292     1.0  0.45696  0.92687  0.95338  1.0000
  C   C2293     1.0  0.46557  0.93623  0.95508  1.0000
  H   H1834     1.0  0.48971  0.92743  0.92950  1.0000
  H   H1835     1.0  0.28746  0.79787  0.60570  1.0000
  C   C2294     1.0  0.47504  0.88182  0.84663  1.0000
  C   C2295     1.0  0.44257  0.75281  0.58546  1.0000
  H   H1836     1.0  0.48274  0.87160  0.70832  1.0000
  C   C2296     1.0  0.43748  0.96625  0.88374  1.0000
  C   C2297     1.0  0.43176  0.75728  0.88456  1.0000
  H   H1837     1.0  0.44928  0.80035  0.96638  1.0000
  H   H1838     1.0  0.47431  0.88966  0.56514  1.0000
  C   C2298     1.0  0.42883  0.94098  0.78542  1.0000
  C   C2299     1.0  0.42645  0.93020  0.80590  1.0000
  C   C2300     1.0  0.42355  0.92950  0.83533  1.0000
  C   C2301     1.0  0.42279  0.93956  0.84482  1.0000
  C   C2302     1.0  0.42541  0.95040  0.82434  1.0000
  C   C2303     1.0  0.42846  0.95112  0.79486  1.0000
  H   H1839     1.0  0.42661  0.92227  0.79895  1.0000
  H   H1840     1.0  0.42150  0.92109  0.85066  1.0000
  H   H1841     1.0  0.39675  0.81313  0.74551  1.0000
  C   C2304     1.0  0.43102  0.94562  0.57918  1.0000
  C   C2305     1.0  0.42022  0.93741  0.59222  1.0000
  C   C2306     1.0  0.41418  0.93104  0.57619  1.0000
  C   C2307     1.0  0.41881  0.93254  0.54681  1.0000
  C   C2308     1.0  0.42969  0.94065  0.53379  1.0000
  C   C2309     1.0  0.43564  0.94717  0.54975  1.0000
  H   H1842     1.0  0.40581  0.92484  0.58672  1.0000
  H   H1843     1.0  0.43348  0.94200  0.51132  1.0000
  H   H1844     1.0  0.44389  0.95349  0.53909  1.0000
  C   C2310     1.0  0.36749  0.82849  0.54116  1.0000
  C   C2311     1.0  0.41593  0.77794  0.50850  1.0000
  C   C2312     1.0  0.49439  0.90973  0.52697  1.0000
  C   C2313     1.0  0.49233  0.97071  0.65829  1.0000
  H   H1845     1.0  0.31296  0.77664  0.49501  1.0000
  C   C2314     1.0  0.30162  0.76218  0.75019  1.0000
  H   H1846     1.0  0.45807  0.89726  0.87849  1.0000
  C   C2315     1.0  0.29533  0.79536  0.83321  1.0000
  C   C2316     1.0  0.30093  0.80664  0.81569  1.0000
  H   H1847     1.0  0.38890  0.85272  0.53613  1.0000
  C   C2317     1.0  0.31842  0.82820  0.76303  1.0000
  C   C2318     1.0  0.32097  0.81848  0.75397  1.0000
  C   C2319     1.0  0.32290  0.81852  0.72525  1.0000
  C   C2320     1.0  0.32202  0.82816  0.70540  1.0000
  C   C2321     1.0  0.31927  0.83780  0.71428  1.0000
  C   C2322     1.0  0.31753  0.83786  0.74297  1.0000
  C   C2323     1.0  0.29900  0.79109  0.85729  1.0000
  H   H1848     1.0  0.47627  0.78827  0.53684  1.0000
  C   C2324     1.0  0.30259  0.80079  0.52892  1.0000
  Fe  Fe161     1.0  0.44005  0.95457  0.70549  1.0000
  H   H1849     1.0  0.28809  0.78994  0.82825  1.0000
  H   H1850     1.0  0.29794  0.80985  0.79717  1.0000
  C   C2325     1.0  0.43530  0.79874  0.55259  1.0000
  H   H1851     1.0  0.32535  0.81116  0.71835  1.0000
  H   H1852     1.0  0.32363  0.82821  0.68310  1.0000
  H   H1853     1.0  0.31868  0.84530  0.69881  1.0000
  H   H1854     1.0  0.31565  0.84551  0.74923  1.0000
  H   H1855     1.0  0.31240  0.79936  0.58892  1.0000
  H   H1856     1.0  0.44189  0.95126  0.94490  1.0000
  C   C2326     1.0  0.31112  0.80292  0.56823  1.0000
  H   H1857     1.0  0.33163  0.77345  0.50367  1.0000
  C   C2327     1.0  0.36246  0.84640  0.52144  1.0000
  C   C2328     1.0  0.27396  0.76615  0.92964  1.0000
  C   C2329     1.0  0.46849  0.87309  0.78439  1.0000
  C   C2330     1.0  0.38678  0.76083  0.73108  1.0000
  C   C2331     1.0  0.47805  0.76263  0.68040  1.0000
  H   H1858     1.0  0.47982  0.88980  0.95635  1.0000
  C   C2332     1.0  0.31791  0.75432  0.57490  1.0000
  C   C2333     1.0  0.47326  0.76744  0.80680  1.0000
  H   H1859     1.0  0.49815  0.97332  0.90790  1.0000
  C   C2334     1.0  0.44856  0.76140  0.77370  1.0000
  H   H1860     1.0  0.25340  0.77291  0.57912  1.0000
  P   P76       1.0  0.29745  0.75733  0.80928  1.0000
  C   C2335     1.0  0.43787  0.99128  0.80530  1.0000
  C   C2336     1.0  0.42827  0.78707  0.93875  1.0000
  H   H1861     1.0  0.30411  0.76585  0.70480  1.0000
  S   S328      1.0  0.32790  0.81071  0.97461  1.0000
  C   C2337     1.0  0.47602  0.90007  0.81357  1.0000
  C   C2338     1.0  0.46682  0.86721  0.74134  1.0000
  C   C2339     1.0  0.48903  0.94810  0.75897  1.0000
  C   C2340     1.0  0.48517  0.95221  0.73492  1.0000
  C   C2341     1.0  0.47331  0.94899  0.73557  1.0000
  C   C2342     1.0  0.46511  0.94220  0.76064  1.0000
  C   C2343     1.0  0.46877  0.93884  0.78530  1.0000
  C   C2344     1.0  0.48067  0.94184  0.78453  1.0000
  C   C2345     1.0  0.43069  0.87588  0.48502  1.0000
  H   H1862     1.0  0.41854  0.76906  0.95374  1.0000
  H   H1863     1.0  0.28078  0.79585  0.92209  1.0000
  H   H1864     1.0  0.44864  0.75565  0.81787  1.0000
  C   C2346     1.0  0.48223  0.81232  0.48149  1.0000
  C   C2347     1.0  0.47128  0.76087  0.78712  1.0000
  C   C2348     1.0  0.30355  0.76953  0.72303  1.0000
  H   H1865     1.0  0.44830  0.76266  0.95426  1.0000
  H   H1866     1.0  0.35175  0.82904  0.52739  1.0000
  C   C2349     1.0  0.48553  0.87803  0.74448  1.0000
  H   H1867     1.0  0.49561  0.88489  0.48259  1.0000
  H   H1868     1.0  0.46301  0.94318  0.96352  1.0000
  H   H1869     1.0  0.46440  0.87295  0.80600  1.0000
  H   H1870     1.0  0.32100  0.78356  0.56762  1.0000
  H   H1871     1.0  0.38882  0.77102  0.64784  1.0000
  C   C2350     1.0  0.48414  0.89715  0.62025  1.0000
  H   H1872     1.0  0.47047  0.95176  0.71656  1.0000
  H   H1873     1.0  0.45590  0.93983  0.76108  1.0000
  H   H1874     1.0  0.46235  0.93394  0.80499  1.0000
  H   H1875     1.0  0.48328  0.93923  0.80386  1.0000
  C   C2351     1.0  0.30852  0.81239  0.51429  1.0000
  H   H1876     1.0  0.47235  0.95841  0.49380  1.0000
  C   C2352     1.0  0.30368  0.79600  0.55626  1.0000
  H   H1877     1.0  0.41966  0.78733  0.50351  1.0000
  H   H1878     1.0  0.40666  0.77701  0.55119  1.0000
  C   C2353     1.0  0.47490  0.79589  0.52331  1.0000
  H   H1879     1.0  0.38552  0.78711  0.84331  1.0000
  C   C2354     1.0  0.46408  0.79758  0.58897  1.0000
  C   C2355     1.0  0.46826  0.80963  0.58633  1.0000
  C   C2356     1.0  0.47581  0.81347  0.60228  1.0000
  C   C2357     1.0  0.47920  0.80531  0.62112  1.0000
  C   C2358     1.0  0.47519  0.79330  0.62366  1.0000
  C   C2359     1.0  0.46773  0.78942  0.60749  1.0000
  H   H1880     1.0  0.44287  0.80039  0.61442  1.0000
  H   H1881     1.0  0.46581  0.81610  0.57165  1.0000
  H   H1882     1.0  0.47898  0.82280  0.60006  1.0000
  H   H1883     1.0  0.48480  0.80829  0.63404  1.0000
  H   H1884     1.0  0.47764  0.78699  0.63870  1.0000
  H   H1885     1.0  0.46491  0.78010  0.60961  1.0000
  C   C2360     1.0  0.39450  0.76646  0.63728  1.0000
  S   S329      1.0  0.35166  0.78816  0.50979  1.0000
  H   H1886     1.0  0.36515  0.81901  0.54791  1.0000
  H   H1887     1.0  0.49470  0.80360  0.73256  1.0000
  C   C2361     1.0  0.47787  0.80648  0.73026  1.0000
  C   C2362     1.0  0.31668  0.77448  0.56997  1.0000
  P   P77       1.0  0.48038  0.91300  0.57521  1.0000
  C   C2363     1.0  0.48059  0.89864  0.59484  1.0000
  C   C2364     1.0  0.46574  0.91500  0.58377  1.0000
  C   C2365     1.0  0.45593  0.90534  0.59153  1.0000
  C   C2366     1.0  0.44464  0.90703  0.59729  1.0000
  C   C2367     1.0  0.44307  0.91834  0.59523  1.0000
  C   C2368     1.0  0.45277  0.92798  0.58732  1.0000
  C   C2369     1.0  0.46406  0.92636  0.58136  1.0000
  C   C2370     1.0  0.47708  0.88875  0.58469  1.0000
  C   C2371     1.0  0.47713  0.87757  0.59973  1.0000
  C   C2372     1.0  0.48067  0.87616  0.62498  1.0000
  H   H1888     1.0  0.33497  0.75357  0.51137  1.0000
  H   H1889     1.0  0.43310  0.98630  0.82675  1.0000
  C   C2373     1.0  0.48453  0.91351  0.53793  1.0000
  H   H1890     1.0  0.41841  0.97901  0.61631  1.0000
  H   H1891     1.0  0.40792  0.78232  0.61581  1.0000
  C   C2374     1.0  0.43570  0.98945  0.61216  1.0000
  C   C2375     1.0  0.48108  0.91767  0.49104  1.0000
  C   C2376     1.0  0.47792  0.91750  0.51970  1.0000
  C   C2377     1.0  0.44733  0.99318  0.59610  1.0000
  C   C2378     1.0  0.38447  0.81229  0.56413  1.0000
  H   H1892     1.0  0.35725  0.75462  0.75633  1.0000
  H   H1893     1.0  0.47889  0.92347  0.62363  1.0000
  C   C2379     1.0  0.40968  0.75488  0.61116  1.0000
  H   H1894     1.0  0.45693  0.89653  0.59295  1.0000
  H   H1895     1.0  0.43709  0.89958  0.60314  1.0000
  H   H1896     1.0  0.43433  0.91967  0.59963  1.0000
  H   H1897     1.0  0.45151  0.93672  0.58586  1.0000
  H   H1898     1.0  0.47145  0.93400  0.57476  1.0000
  H   H1899     1.0  0.45600  0.77661  0.52971  1.0000
  P   P78       1.0  0.45511  0.79310  0.56627  1.0000
  C   C2380     1.0  0.48123  0.97790  0.76549  1.0000
  H   H1900     1.0  0.44532  0.76522  0.73220  1.0000
  H   H1901     1.0  0.39877  0.75537  0.56408  1.0000
  C   C2381     1.0  0.31778  0.77163  0.86913  1.0000
  H   H1902     1.0  0.33029  0.76605  0.67095  1.0000
  H   H1903     1.0  0.35660  0.85077  0.51209  1.0000
  H   H1904     1.0  0.32262  0.81990  0.56297  1.0000
  H   H1905     1.0  0.44998  0.76012  0.86417  1.0000
  H   H1906     1.0  0.46337  0.87033  0.94059  1.0000
  H   H1907     1.0  0.42100  0.81370  0.75751  1.0000
  C   C2382     1.0  0.44225  0.98248  0.56226  1.0000
  H   H1908     1.0  0.47000  0.79504  0.90907  1.0000
  C   C2383     1.0  0.48882  0.79858  0.89560  1.0000
  H   H1909     1.0  0.44070  0.81375  0.86875  1.0000
  C   C2384     1.0  0.35976  0.83415  0.52993  1.0000
  C   C2385     1.0  0.47732  0.79131  0.90359  1.0000
  C   C2386     1.0  0.49064  0.99104  0.59497  1.0000
  C   C2387     1.0  0.41193  0.82874  0.53312  1.0000
  C   C2388     1.0  0.45019  0.77734  0.57343  1.0000
  C   C2389     1.0  0.45184  0.77165  0.55147  1.0000
  H   H1910     1.0  0.31982  0.77477  0.79870  1.0000
  C   C2390     1.0  0.46941  0.78193  0.74912  1.0000
  C   C2391     1.0  0.42851  0.78768  0.76506  1.0000
  H   H1911     1.0  0.42948  0.82785  0.51570  1.0000
  H   H1912     1.0  0.48312  0.98184  0.56799  1.0000
  H   H1913     1.0  0.37147  0.84220  0.69431  1.0000
  H   H1914     1.0  0.44350  0.82862  0.54233  1.0000
  C   C2392     1.0  0.48323  0.98923  0.57717  1.0000
  C   C2393     1.0  0.38414  0.84752  0.71716  1.0000
  C   C2394     1.0  0.39372  0.79557  0.77096  1.0000
  H   H1915     1.0  0.39016  0.77893  0.80155  1.0000
  C   C2395     1.0  0.45223  0.83406  0.53842  1.0000
  C   C2396     1.0  0.47495  0.84767  0.52898  1.0000
  H   H1916     1.0  0.48381  0.85285  0.52520  1.0000
  H   H1917     1.0  0.48822  0.89766  0.89572  1.0000
  C   C2397     1.0  0.39507  0.84200  0.63228  1.0000
  C   C2398     1.0  0.43075  0.77326  0.97898  1.0000
  C   C2399     1.0  0.37545  0.83945  0.71137  1.0000
  C   C2400     1.0  0.39063  0.78821  0.79848  1.0000
  C   C2401     1.0  0.39421  0.80752  0.76695  1.0000
  H   H1918     1.0  0.39582  0.85036  0.74375  1.0000
  H   H1919     1.0  0.44114  0.97607  0.79194  1.0000
  H   H1920     1.0  0.43812  0.79635  0.53291  1.0000
  H   H1921     1.0  0.28460  0.75488  0.94352  1.0000
  H   H1922     1.0  0.49130  0.95774  0.71541  1.0000
  C   C2402     1.0  0.46484  0.79983  0.53135  1.0000
  H   H1923     1.0  0.43079  0.96968  0.87592  1.0000
  C   C2403     1.0  0.28747  0.79020  0.62156  1.0000
  H   H1924     1.0  0.39665  0.84509  0.65049  1.0000
  C   C2404     1.0  0.37175  0.82783  0.72790  1.0000
  H   H1925     1.0  0.29723  0.79570  0.51854  1.0000
  H   H1926     1.0  0.27595  0.76804  0.50606  1.0000
  C   C2405     1.0  0.30503  0.76352  0.83260  1.0000
  H   H1927     1.0  0.42753  0.83452  0.57481  1.0000
  C   C2406     1.0  0.44418  0.77068  0.60116  1.0000
  C   C2407     1.0  0.30461  0.77095  0.57271  1.0000
  C   C2408     1.0  0.38808  0.79283  0.82197  1.0000
  H   H1928     1.0  0.36487  0.82159  0.72379  1.0000
  C   C2409     1.0  0.42735  0.98220  0.60339  1.0000
  H   H1929     1.0  0.45267  0.78518  0.74590  1.0000
  C   C2410     1.0  0.43532  0.85253  0.55096  1.0000
  C   C2411     1.0  0.38582  0.83221  0.75538  1.0000
  C   C2412     1.0  0.37680  0.82424  0.75004  1.0000
  C   C2413     1.0  0.39137  0.81218  0.79040  1.0000
  C   C2414     1.0  0.44143  0.76177  0.75471  1.0000
  C   C2415     1.0  0.38853  0.80479  0.81799  1.0000
  H   H1930     1.0  0.47509  0.81824  0.77394  1.0000
  H   H1931     1.0  0.41036  0.83748  0.73115  1.0000
  C   C2416     1.0  0.43125  0.84334  0.57580  1.0000
  C   C2417     1.0  0.26423  0.75762  0.84863  1.0000
  H   H1932     1.0  0.31106  0.79480  0.88265  1.0000
  H   H1933     1.0  0.43145  0.84676  0.72049  1.0000
  P   P79       1.0  0.39210  0.82766  0.78450  1.0000
  C   C2418     1.0  0.41429  0.83853  0.74845  1.0000
  H   H1934     1.0  0.37360  0.81526  0.76296  1.0000
  C   C2419     1.0  0.45152  0.87643  0.96930  1.0000
  H   H1935     1.0  0.37420  0.76283  0.62100  1.0000
  C   C2420     1.0  0.47532  0.77912  0.90461  1.0000
  P   P80       1.0  0.44608  0.87590  0.52018  1.0000
  C   C2421     1.0  0.45966  0.87003  0.96258  1.0000
  C   C2422     1.0  0.31373  0.80944  0.84675  1.0000
  H   H1936     1.0  0.29255  0.82510  0.83015  1.0000
  C   C2423     1.0  0.26207  0.77317  0.56728  1.0000
  C   C2424     1.0  0.42624  0.84379  0.74238  1.0000
  C   C2425     1.0  0.40749  0.83458  0.77663  1.0000
  P   P81       1.0  0.31720  0.82846  0.79975  1.0000
  C   C2426     1.0  0.44845  0.99187  0.75792  1.0000
  H   H1937     1.0  0.42145  0.77208  0.59235  1.0000
  C   C2427     1.0  0.49736  0.98860  0.87746  1.0000
  C   C2428     1.0  0.48417  0.88594  0.63524  1.0000
  C   C2429     1.0  0.44046  0.86394  0.55211  1.0000
  H   H1938     1.0  0.32543  0.83701  0.84505  1.0000
  H   H1939     1.0  0.32184  0.81100  0.76900  1.0000
  C   C2430     1.0  0.30541  0.75833  0.49907  1.0000
  C   C2431     1.0  0.42482  0.84104  0.79268  1.0000
  C   C2432     1.0  0.41291  0.83554  0.79881  1.0000
  H   H1940     1.0  0.40793  0.83214  0.82081  1.0000
  H   H1941     1.0  0.38651  0.80817  0.83646  1.0000
  H   H1942     1.0  0.36967  0.81617  0.82561  1.0000
  C   C2433     1.0  0.43148  0.84517  0.76445  1.0000
  H   H1943     1.0  0.44073  0.84931  0.75963  1.0000
  C   C2434     1.0  0.47003  0.81390  0.79556  1.0000
  C   C2435     1.0  0.43805  0.80107  0.59825  1.0000
  C   C2436     1.0  0.43238  0.84542  0.60182  1.0000
  H   H1944     1.0  0.42940  0.83823  0.62090  1.0000
  C   C2437     1.0  0.30488  0.78160  0.71934  1.0000
  C   C2438     1.0  0.40193  0.83641  0.49879  1.0000
  C   C2439     1.0  0.47571  0.76723  0.70401  1.0000
  H   H1945     1.0  0.49645  0.00162  0.62194  1.0000
  C   C2440     1.0  0.29074  0.77081  0.63437  1.0000
  C   C2441     1.0  0.28175  0.75424  0.82121  1.0000
  H   H1946     1.0  0.42891  0.84207  0.80984  1.0000
  H   H1947     1.0  0.32075  0.81469  0.85267  1.0000
  H   H1948     1.0  0.28131  0.83902  0.84289  1.0000
  C   C2442     1.0  0.29686  0.83438  0.82399  1.0000
  H   H1949     1.0  0.28156  0.76583  0.84943  1.0000
  H   H1950     1.0  0.43465  0.85062  0.53094  1.0000
  C   C2443     1.0  0.40717  0.75352  0.52321  1.0000
  H   H1951     1.0  0.48085  0.76903  0.84193  1.0000
  C   C2444     1.0  0.46089  0.75551  0.97192  1.0000
  C   C2445     1.0  0.30872  0.83850  0.80913  1.0000
  C   C2446     1.0  0.29044  0.84226  0.83130  1.0000
  C   C2447     1.0  0.38411  0.83154  0.81448  1.0000
  C   C2448     1.0  0.37333  0.82412  0.83101  1.0000
  H   H1952     1.0  0.42460  0.87900  0.55390  1.0000
  H   H1953     1.0  0.44247  0.77493  0.61825  1.0000
  C   C2449     1.0  0.38071  0.84743  0.53494  1.0000
  S   S330      1.0  0.43364  0.96662  0.67374  1.0000
  C   C2450     1.0  0.44808  0.75939  0.55755  1.0000
  H   H1954     1.0  0.46650  0.77363  0.91046  1.0000
  C   C2451     1.0  0.44187  0.88875  0.52770  1.0000
  C   C2452     1.0  0.28379  0.77998  0.67122  1.0000
  C   C2453     1.0  0.44141  0.86599  0.57847  1.0000
  C   C2454     1.0  0.28380  0.76382  0.93862  1.0000
  H   H1955     1.0  0.27031  0.77862  0.59834  1.0000
  C   C2455     1.0  0.43069  0.88756  0.54493  1.0000
  C   C2456     1.0  0.43742  0.85674  0.60321  1.0000
  H   H1956     1.0  0.49422  0.00213  0.84630  1.0000
  H   H1957     1.0  0.29300  0.77389  0.52473  1.0000
  C   C2457     1.0  0.45813  0.80842  0.80107  1.0000
  S   S331      1.0  0.45303  0.83693  0.48202  1.0000
  H   H1958     1.0  0.44891  0.88171  0.95244  1.0000
  Fe  Fe162     1.0  0.44282  0.95898  0.63971  1.0000
  C   C2458     1.0  0.48840  0.97841  0.67320  1.0000
  C   C2459     1.0  0.32484  0.76607  0.50357  1.0000
  C   C2460     1.0  0.46739  0.88464  0.86782  1.0000
  H   H1959     1.0  0.47996  0.77629  0.70194  1.0000
  H   H1960     1.0  0.42475  0.95823  0.83137  1.0000
  C   C2461     1.0  0.48483  0.77416  0.89796  1.0000
  H   H1961     1.0  0.48772  0.90272  0.74184  1.0000
  C   C2462     1.0  0.35607  0.75779  0.62199  1.0000
  C   C2463     1.0  0.46826  0.87444  0.52701  1.0000
  C   C2464     1.0  0.33302  0.83743  0.82854  1.0000
  C   C2465     1.0  0.36725  0.82689  0.85477  1.0000
  C   C2466     1.0  0.38833  0.84223  0.82080  1.0000
  H   H1962     1.0  0.35905  0.82097  0.86775  1.0000
  H   H1963     1.0  0.39633  0.84842  0.80751  1.0000
  C   C2467     1.0  0.48442  0.94696  0.85416  1.0000
  C   C2468     1.0  0.41294  0.76711  0.60600  1.0000
  C   C2469     1.0  0.49621  0.98837  0.67488  1.0000
  H   H1964     1.0  0.46400  0.86904  0.54832  1.0000
  H   H1965     1.0  0.43834  0.85827  0.62347  1.0000
  C   C2470     1.0  0.33170  0.83368  0.80414  1.0000
  P   P82       1.0  0.29564  0.78116  0.57602  1.0000
  C   C2471     1.0  0.29580  0.85430  0.82387  1.0000
  H   H1966     1.0  0.45422  0.80851  0.78335  1.0000
  H   H1967     1.0  0.41645  0.93601  0.61472  1.0000
  C   C2472     1.0  0.44210  0.79839  0.57240  1.0000
  S   S332      1.0  0.39004  0.88024  0.96823  1.0000
  C   C2473     1.0  0.37287  0.85304  0.52424  1.0000
  H   H1968     1.0  0.44545  0.87469  0.57979  1.0000
  H   H1969     1.0  0.30526  0.79568  0.74002  1.0000
  C   C2474     1.0  0.31403  0.85062  0.80173  1.0000
  H   H1970     1.0  0.29082  0.86039  0.82965  1.0000
  C   C2475     1.0  0.45143  0.80321  0.82916  1.0000
  C   C2476     1.0  0.44822  0.96727  0.86505  1.0000
  H   H1971     1.0  0.48447  0.81875  0.81369  1.0000
  H   H1972     1.0  0.42458  0.80662  0.62362  1.0000
  H   H1973     1.0  0.47056  0.81243  0.97875  1.0000
  H   H1974     1.0  0.48411  0.76808  0.66071  1.0000
  C   C2477     1.0  0.48042  0.87678  0.51770  1.0000
  C   C2478     1.0  0.46603  0.80122  0.73452  1.0000
  H   H1975     1.0  0.43191  0.91636  0.54110  1.0000
  C   C2479     1.0  0.37173  0.83728  0.86167  1.0000
  C   C2480     1.0  0.38220  0.84502  0.84450  1.0000
  C   C2481     1.0  0.30758  0.85847  0.80908  1.0000
  C   C2482     1.0  0.43518  0.96043  0.91246  1.0000
  C   C2483     1.0  0.29264  0.77312  0.94136  1.0000
  H   H1976     1.0  0.37723  0.79033  0.53215  1.0000
  C   C2484     1.0  0.42431  0.79709  0.75360  1.0000
  H   H1977     1.0  0.48533  0.87330  0.53190  1.0000
  H   H1978     1.0  0.31853  0.75276  0.77772  1.0000
  C   C2485     1.0  0.34418  0.84171  0.83191  1.0000
  C   C2486     1.0  0.47702  0.92581  0.86664  1.0000
  H   H1979     1.0  0.45828  0.91937  0.87631  1.0000
  C   C2487     1.0  0.48641  0.93575  0.85912  1.0000
  H   H1980     1.0  0.38402  0.87933  0.91327  1.0000
  C   C2488     1.0  0.44943  0.90002  0.51564  1.0000
  S   S333      1.0  0.48357  0.75900  0.89890  1.0000
  C   C2489     1.0  0.29931  0.75904  0.57610  1.0000
  H   H1981     1.0  0.34515  0.84449  0.85092  1.0000
  C   C2490     1.0  0.28440  0.77364  0.53689  1.0000
  C   C2491     1.0  0.44252  0.79348  0.96386  1.0000
  H   H1982     1.0  0.36700  0.83940  0.88009  1.0000
  H   H1983     1.0  0.38553  0.85317  0.84965  1.0000
  H   H1984     1.0  0.31175  0.86780  0.80340  1.0000
  H   H1985     1.0  0.45466  0.93904  0.86734  1.0000
  H   H1986     1.0  0.43001  0.95941  0.77944  1.0000
  C   C2492     1.0  0.45693  0.80327  0.85151  1.0000
  C   C2493     1.0  0.46359  0.93826  0.86472  1.0000
  C   C2494     1.0  0.46562  0.92707  0.86945  1.0000
  C   C2495     1.0  0.32328  0.76616  0.57108  1.0000
  H   H1987     1.0  0.41090  0.79386  0.84872  1.0000
  C   C2496     1.0  0.44384  0.77559  0.85205  1.0000
  C   C2497     1.0  0.43473  0.90866  0.53772  1.0000
  H   H1988     1.0  0.45228  0.78051  0.83796  1.0000
  C   C2498     1.0  0.43431  0.78068  0.85543  1.0000
  C   C2499     1.0  0.41224  0.81413  0.88725  1.0000
  C   C2500     1.0  0.43168  0.79629  0.80386  1.0000
  S   S334      1.0  0.30181  0.79719  0.93967  1.0000
  S   S335      1.0  0.45647  0.96815  0.70083  1.0000
  H   H1989     1.0  0.43540  0.77984  0.79868  1.0000
  C   C2501     1.0  0.45654  0.96205  0.87486  1.0000
  C   C2502     1.0  0.47298  0.94829  0.85732  1.0000
  H   H1990     1.0  0.42161  0.79748  0.73398  1.0000
  C   C2503     1.0  0.49425  0.97662  0.89111  1.0000
  C   C2504     1.0  0.46878  0.80893  0.84587  1.0000
  H   H1991     1.0  0.46407  0.87861  0.88879  1.0000
  C   C2505     1.0  0.47918  0.76386  0.82704  1.0000
  C   C2506     1.0  0.42761  0.80451  0.60367  1.0000
  C   C2507     1.0  0.46131  0.96635  0.77545  1.0000
  C   C2508     1.0  0.48354  0.80210  0.49838  1.0000
  P   P83       1.0  0.38876  0.82816  0.55539  1.0000
  C   C2509     1.0  0.44589  0.90992  0.52085  1.0000
  C   C2510     1.0  0.30122  0.76690  0.77387  1.0000
  C   C2511     1.0  0.35287  0.83859  0.78665  1.0000
  H   H1992     1.0  0.38366  0.78801  0.61492  1.0000
  H   H1993     1.0  0.42422  0.97283  0.57204  1.0000
  H   H1994     1.0  0.30010  0.77120  0.94846  1.0000
  P   P84       1.0  0.43610  0.79579  0.83666  1.0000
  H   H1995     1.0  0.42910  0.78085  0.75405  1.0000
  H   H1996     1.0  0.41597  0.77749  0.87651  1.0000
  H   H1997     1.0  0.41839  0.89665  0.56226  1.0000
  P   P85       1.0  0.47033  0.96273  0.85137  1.0000
  C   C2512     1.0  0.43214  0.78721  0.79020  1.0000
  H   H1998     1.0  0.49560  0.99979  0.49090  1.0000
  C   C2513     1.0  0.43695  0.79590  0.94211  1.0000
  C   C2514     1.0  0.46179  0.78900  0.74384  1.0000
  H   H1999     1.0  0.46060  0.95247  0.91192  1.0000
  H   H2000     1.0  0.33075  0.78187  0.83101  1.0000
  H   H2001     1.0  0.37559  0.76376  0.76720  1.0000
  C   C2515     1.0  0.42348  0.77389  0.87356  1.0000
  H   H2002     1.0  0.45204  0.79907  0.87332  1.0000
  C   C2516     1.0  0.45425  0.95643  0.90385  1.0000
  C   C2517     1.0  0.48550  0.79952  0.73582  1.0000
  C   C2518     1.0  0.28717  0.77046  0.66316  1.0000
  H   H2003     1.0  0.48925  0.87363  0.96816  1.0000
  C   C2519     1.0  0.28298  0.77673  0.56289  1.0000
  H   H2004     1.0  0.47294  0.80934  0.86311  1.0000
  C   C2520     1.0  0.44259  0.76399  0.86683  1.0000
  C   C2521     1.0  0.34174  0.83429  0.78319  1.0000
  C   C2522     1.0  0.41470  0.80009  0.85933  1.0000
  C   C2523     1.0  0.48716  0.92799  0.60828  1.0000
  C   C2524     1.0  0.27477  0.77047  0.52607  1.0000
  C   C2525     1.0  0.46827  0.90281  0.83474  1.0000
  C   C2526     1.0  0.46101  0.96280  0.80427  1.0000
  C   C2527     1.0  0.42397  0.80623  0.76688  1.0000
  C   C2528     1.0  0.42779  0.80592  0.79165  1.0000
  H   H2005     1.0  0.34109  0.83127  0.76439  1.0000
  H   H2006     1.0  0.49522  0.93477  0.85763  1.0000
  C   C2529     1.0  0.42677  0.80270  0.85747  1.0000
  C   C2530     1.0  0.39132  0.83361  0.58538  1.0000
  H   H2007     1.0  0.42773  0.81325  0.80115  1.0000
  H   H2008     1.0  0.28995  0.75602  0.57941  1.0000
  S   S336      1.0  0.45958  0.97308  0.63144  1.0000
  H   H2009     1.0  0.42396  0.75743  0.74947  1.0000
  C   C2531     1.0  0.46602  0.97138  0.54779  1.0000
  C   C2532     1.0  0.40747  0.80573  0.87429  1.0000
  H   H2010     1.0  0.45620  0.81364  0.52021  1.0000
  H   H2011     1.0  0.40782  0.84617  0.56223  1.0000
  C   C2533     1.0  0.44335  0.75664  0.80287  1.0000
  H   H2012     1.0  0.32048  0.82820  0.51491  1.0000
  C   C2534     1.0  0.46356  0.81006  0.51409  1.0000
  H   H2013     1.0  0.39819  0.80372  0.87553  1.0000
  C   C2535     1.0  0.35409  0.84237  0.81086  1.0000
  C   C2536     1.0  0.42714  0.89751  0.54978  1.0000
  C   C2537     1.0  0.38483  0.83351  0.63506  1.0000
  H   H2014     1.0  0.47934  0.97676  0.68347  1.0000
  C   C2538     1.0  0.47138  0.97401  0.75615  1.0000
  C   C2539     1.0  0.42102  0.80510  0.58362  1.0000
  C   C2540     1.0  0.43145  0.81118  0.87051  1.0000
  H   H2015     1.0  0.43937  0.80464  0.92789  1.0000
  C   C2541     1.0  0.28178  0.78697  0.92670  1.0000
  C   C2542     1.0  0.47590  0.99671  0.57222  1.0000
  P   P86       1.0  0.46584  0.99427  0.55021  1.0000
  C   C2543     1.0  0.47359  0.79575  0.97490  1.0000
  C   C2544     1.0  0.40142  0.84241  0.58252  1.0000
  C   C2545     1.0  0.46750  0.96255  0.53406  1.0000
  H   H2016     1.0  0.44457  0.97944  0.54337  1.0000
  C   C2546     1.0  0.42422  0.81687  0.88527  1.0000
  H   H2017     1.0  0.46554  0.95353  0.54644  1.0000
  C   C2547     1.0  0.40328  0.84655  0.60594  1.0000
  H   H2018     1.0  0.37479  0.82300  0.61395  1.0000
  C   C2548     1.0  0.46404  0.89515  0.86196  1.0000
  H   H2019     1.0  0.41284  0.80759  0.58824  1.0000
  H   H2020     1.0  0.46286  0.96904  0.57076  1.0000
  C   C2549     1.0  0.42485  0.80220  0.55808  1.0000
  H   H2021     1.0  0.42804  0.82364  0.89454  1.0000
  C   C2550     1.0  0.27172  0.77640  0.57813  1.0000
  H   H2022     1.0  0.47855  0.91713  0.87119  1.0000
  H   H2023     1.0  0.36811  0.82887  0.96386  1.0000
  H   H2024     1.0  0.45166  0.91860  0.51122  1.0000
  H   H2025     1.0  0.30042  0.75282  0.75254  1.0000
  C   C2551     1.0  0.46837  0.98309  0.53201  1.0000
  Fe  Fe163     1.0  0.33830  0.79717  0.97625  1.0000
  H   H2026     1.0  0.41110  0.85330  0.60371  1.0000
  C   C2552     1.0  0.49812  0.79350  0.88883  1.0000
  H   H2027     1.0  0.46167  0.86255  0.72970  1.0000
  H   H2028     1.0  0.40669  0.81865  0.89846  1.0000
  C   C2553     1.0  0.29164  0.78481  0.93549  1.0000
  C   C2554     1.0  0.26361  0.77028  0.54118  1.0000
  Fe  Fe164     1.0  0.41286  0.91876  0.48466  1.0000
  C   C2555     1.0  0.38286  0.82947  0.61158  1.0000
  H   H2029     1.0  0.49194  0.93997  0.63330  1.0000
  C   C2556     1.0  0.42931  0.75741  0.76457  1.0000
  C   C2557     1.0  0.32227  0.77572  0.83970  1.0000
  H   H2030     1.0  0.48875  0.97733  0.80093  1.0000
  C   C2558     1.0  0.47067  0.96724  0.81412  1.0000
  C   C2559     1.0  0.45076  0.98964  0.57112  1.0000
  H   H2031     1.0  0.42402  0.78897  0.92177  1.0000
  H   H2032     1.0  0.43326  0.99195  0.63186  1.0000
  C   C2560     1.0  0.46172  0.86754  0.76896  1.0000
  H   H2033     1.0  0.37843  0.83001  0.65542  1.0000
  H   H2034     1.0  0.26012  0.76166  0.86419  1.0000
  C   C2561     1.0  0.47219  0.81620  0.48917  1.0000
  H   H2035     1.0  0.49306  0.99427  0.68653  1.0000
  C   C2562     1.0  0.37813  0.83510  0.54323  1.0000
  C   C2563     1.0  0.31424  0.76784  0.49901  1.0000
  H   H2036     1.0  0.48110  0.81597  0.72251  1.0000
  H   H2037     1.0  0.46543  0.91082  0.82997  1.0000
  C   C2564     1.0  0.40427  0.75991  0.54295  1.0000
  H   H2038     1.0  0.42672  0.88138  0.49649  1.0000
  C   C2565     1.0  0.38725  0.75641  0.70709  1.0000
  H   H2039     1.0  0.38123  0.81181  0.52303  1.0000
  C   C2566     1.0  0.27319  0.77784  0.92354  1.0000
  C   C2567     1.0  0.31597  0.77169  0.82145  1.0000
  H   H2040     1.0  0.48914  0.98354  0.75027  1.0000
  C   C2568     1.0  0.28393  0.78985  0.65042  1.0000
  C   C2569     1.0  0.38032  0.78777  0.57397  1.0000
  H   H2041     1.0  0.45356  0.99854  0.60390  1.0000
  Fe  Fe165     1.0  0.45111  0.97984  0.66724  1.0000
  C   C2570     1.0  0.31582  0.75515  0.66163  1.0000
  C   C2571     1.0  0.43061  0.97878  0.57836  1.0000
  H   H2042     1.0  0.49687  0.96301  0.56773  1.0000
  H   H2043     1.0  0.47433  0.91069  0.92690  1.0000
  P   P87       1.0  0.46426  0.76608  0.76004  1.0000
  C   C2572     1.0  0.45906  0.83915  0.51048  1.0000
  H   H2044     1.0  0.49134  0.95329  0.53127  1.0000
  C   C2573     1.0  0.44366  0.95575  0.92261  1.0000
  H   H2045     1.0  0.41972  0.80262  0.54258  1.0000
  H   H2046     1.0  0.48738  0.78199  0.74892  1.0000
  C   C2574     1.0  0.38543  0.80544  0.58975  1.0000
  C   C2575     1.0  0.42180  0.83029  0.51108  1.0000
  H   H2047     1.0  0.30367  0.75996  0.90321  1.0000
  C   C2576     1.0  0.48131  0.78729  0.74518  1.0000
  H   H2048     1.0  0.48351  0.95962  0.89473  1.0000
  H   H2049     1.0  0.49178  0.95455  0.84851  1.0000
  H   H2050     1.0  0.45382  0.96293  0.76795  1.0000
  C   C2577     1.0  0.30704  0.76329  0.88041  1.0000
  C   C2578     1.0  0.30234  0.77901  0.77008  1.0000
  H   H2051     1.0  0.47840  0.79910  0.95275  1.0000
  H   H2052     1.0  0.45325  0.95658  0.81878  1.0000
  C   C2579     1.0  0.36565  0.75506  0.74272  1.0000
  C   C2580     1.0  0.40532  0.77289  0.61901  1.0000
  H   H2053     1.0  0.47168  0.97672  0.73382  1.0000
  C   C2581     1.0  0.42516  0.77579  0.95709  1.0000
  H   H2054     1.0  0.38801  0.80940  0.60589  1.0000
  H   H2055     1.0  0.33255  0.76890  0.56915  1.0000
  H   H2056     1.0  0.28700  0.76272  0.67913  1.0000
  C   C2582     1.0  0.44017  0.87192  0.49192  1.0000
  H   H2057     1.0  0.30657  0.78728  0.69817  1.0000
  C   C2583     1.0  0.38172  0.80672  0.54326  1.0000
  H   H2058     1.0  0.31652  0.76134  0.64178  1.0000
  C   C2584     1.0  0.29099  0.78070  0.61331  1.0000
  H   H2059     1.0  0.45259  0.86318  0.77883  1.0000
  C   C2585     1.0  0.48095  0.97289  0.86143  1.0000
  C   C2586     1.0  0.46778  0.76022  0.72955  1.0000
  C   C2587     1.0  0.47124  0.96529  0.50443  1.0000
  H   H2060     1.0  0.46017  0.80660  0.72985  1.0000
  H   H2061     1.0  0.37507  0.86256  0.51713  1.0000
  C   C2588     1.0  0.32363  0.75782  0.67813  1.0000
  S   S337      1.0  0.33314  0.75272  0.72333  1.0000
  C   C2589     1.0  0.49634  0.96238  0.52506  1.0000
  H   H2062     1.0  0.47943  0.98844  0.83292  1.0000
  C   C2590     1.0  0.48598  0.96882  0.88338  1.0000
  C   C2591     1.0  0.47969  0.88966  0.81957  1.0000
  H   H2063     1.0  0.42674  0.95938  0.92676  1.0000
  C   C2592     1.0  0.45010  0.75823  0.97356  1.0000
  H   H2064     1.0  0.26580  0.77991  0.91639  1.0000
  C   C2593     1.0  0.42222  0.76223  0.88802  1.0000
  C   C2594     1.0  0.48094  0.97441  0.79428  1.0000
  C   C2595     1.0  0.48371  0.98501  0.84873  1.0000
  C   C2596     1.0  0.47209  0.98578  0.50220  1.0000
  S   S338      1.0  0.45512  0.00009  0.66088  1.0000
  C   C2597     1.0  0.38319  0.79322  0.59477  1.0000
  H   H2065     1.0  0.44986  0.97201  0.84308  1.0000
  C   C2598     1.0  0.47360  0.97691  0.48851  1.0000
  C   C2599     1.0  0.49085  0.00034  0.60781  1.0000
  C   C2600     1.0  0.41427  0.75935  0.49594  1.0000
  H   H2066     1.0  0.38753  0.83769  0.96988  1.0000
  H   H2067     1.0  0.25617  0.76781  0.53269  1.0000
  H   H2068     1.0  0.29328  0.76330  0.62879  1.0000
  H   H2069     1.0  0.48696  0.88482  0.65476  1.0000
  H   H2070     1.0  0.47582  0.84990  0.48436  1.0000
  H   H2071     1.0  0.45189  0.98740  0.74253  1.0000
  C   C2601     1.0  0.49455  0.93732  0.61388  1.0000
  H   H2072     1.0  0.41384  0.75698  0.90177  1.0000
  C   C2602     1.0  0.30072  0.75915  0.86225  1.0000
  H   H2073     1.0  0.49479  0.88184  0.73493  1.0000
  H   H2074     1.0  0.39421  0.83850  0.49351  1.0000
  C   C2603     1.0  0.48578  0.89034  0.96990  1.0000
  C   C2604     1.0  0.27641  0.75981  0.84053  1.0000
  C   C2605     1.0  0.49201  0.99281  0.85646  1.0000
  C   C2606     1.0  0.44239  0.98550  0.78567  1.0000
  H   H2075     1.0  0.39483  0.76488  0.73553  1.0000
  H   H2076     1.0  0.49603  0.98506  0.59940  1.0000
  C   C2607     1.0  0.36595  0.75654  0.63169  1.0000
  H   H2077     1.0  0.39572  0.75698  0.69370  1.0000
  H   H2078     1.0  0.49136  0.79914  0.49237  1.0000
  H   H2079     1.0  0.47516  0.77812  0.97720  1.0000
  C   C2608     1.0  0.49616  0.78150  0.89000  1.0000
  H   H2080     1.0  0.49406  0.92583  0.78448  1.0000
  C   C2609     1.0  0.49629  0.89645  0.90066  1.0000
  H   H2081     1.0  0.46726  0.75772  0.95161  1.0000
  H   H2082     1.0  0.43606  0.75329  0.62868  1.0000
  C   C2610     1.0  0.49105  0.88120  0.97672  1.0000
  C   C2611     1.0  0.48621  0.88326  0.48987  1.0000
  H   H2083     1.0  0.44088  0.75295  0.68078  1.0000
  H   H2084     1.0  0.25318  0.77925  0.97563  1.0000
  C   C2612     1.0  0.42178  0.83491  0.48294  1.0000
  C   C2613     1.0  0.49849  0.88522  0.90420  1.0000
  C   C2614     1.0  0.49623  0.90558  0.74562  1.0000
  C   C2615     1.0  0.49745  0.87628  0.80695  1.0000
  H   H2085     1.0  0.44949  0.75496  0.54071  1.0000
  C   C2616     1.0  0.42416  0.75289  0.79369  1.0000
  H   H2086     1.0  0.29255  0.75244  0.87138  1.0000
  C   C2617     1.0  0.48305  0.75364  0.82803  1.0000
  C   C2618     1.0  0.43118  0.75258  0.81283  1.0000
  H   H2087     1.0  0.46963  0.85859  0.97878  1.0000
  H   H2088     1.0  0.45241  0.86159  0.48142  1.0000
  C   C2619     1.0  0.37309  0.85928  0.97719  1.0000
  H   H2089     1.0  0.48513  0.90781  0.97250  1.0000
  C   C2620     1.0  0.46774  0.88549  0.48084  1.0000
  H   H2090     1.0  0.49817  0.91187  0.82291  1.0000
  C   C2621     1.0  0.48870  0.90046  0.97923  1.0000
  H   H2091     1.0  0.41670  0.75421  0.48121  1.0000
  H   H2092     1.0  0.49725  0.96435  0.48061  1.0000
  C   C2622     1.0  0.52470  0.05467  0.03977  1.0000
  P   P88       1.0  0.55363  0.02997  0.25839  1.0000
  H   H2093     1.0  0.51164  0.09274  0.36179  1.0000
  Fe  Fe166     1.0  0.59440  0.24150  0.36790  1.0000
  S   S339      1.0  0.57487  0.23844  0.38011  1.0000
  H   H2094     1.0  0.50201  0.12027  0.01458  1.0000
  H   H2095     1.0  0.53776  0.07055  0.22485  1.0000
  H   H2096     1.0  0.56512  0.14144  0.03324  1.0000
  C   C2623     1.0  0.61725  0.10764  0.45965  1.0000
  H   H2097     1.0  0.55685  0.08955  0.03825  1.0000
  C   C2624     1.0  0.53635  0.07111  0.24673  1.0000
  C   C2625     1.0  0.54321  0.01200  0.34241  1.0000
  C   C2626     1.0  0.65079  0.12368  0.18017  1.0000
  S   S340      1.0  0.60522  0.24097  0.15516  1.0000
  H   H2098     1.0  0.58643  0.20179  0.45438  1.0000
  H   H2099     1.0  0.52737  0.02651  0.34936  1.0000
  C   C2627     1.0  0.50298  0.16327  0.04152  1.0000
  C   C2628     1.0  0.53154  0.04407  0.17236  1.0000
  C   C2629     1.0  0.54954  0.01941  0.35532  1.0000
  C   C2630     1.0  0.54322  0.07885  0.28320  1.0000
  H   H2100     1.0  0.52795  0.00237  0.06424  1.0000
  H   H2101     1.0  0.54321  0.16212  0.27892  1.0000
  S   S341      1.0  0.54834  0.00821  0.17721  1.0000
  S   S342      1.0  0.59471  0.22703  0.40414  1.0000
  C   C2631     1.0  0.67101  0.21379  0.00801  1.0000
  C   C2632     1.0  0.63733  0.13391  0.99157  1.0000
  H   H2102     1.0  0.50500  0.01704  0.13124  1.0000
  H   H2103     1.0  0.70525  0.17200  0.40961  1.0000
  C   C2633     1.0  0.65545  0.11093  0.24159  1.0000
  H   H2104     1.0  0.58614  0.10830  0.47029  1.0000
  H   H2105     1.0  0.51398  0.08346  0.32187  1.0000
  C   C2634     1.0  0.57566  0.06779  0.21295  1.0000
  C   C2635     1.0  0.50873  0.13710  0.02190  1.0000
  H   H2106     1.0  0.62833  0.23969  0.00537  1.0000
  H   H2107     1.0  0.64620  0.08457  0.18872  1.0000
  C   C2636     1.0  0.50402  0.07635  0.39375  1.0000
  H   H2108     1.0  0.64907  0.19233  0.42776  1.0000
  Fe  Fe167     1.0  0.53570  0.12182  0.36884  1.0000
  S   S343      1.0  0.53870  0.11047  0.40771  1.0000
  S   S344      1.0  0.53362  0.11373  0.33052  1.0000
  Fe  Fe168     1.0  0.54218  0.14438  0.39146  1.0000
  S   S345      1.0  0.54539  0.13431  0.43134  1.0000
  S   S346      1.0  0.54664  0.16465  0.37655  1.0000
  Fe  Fe169     1.0  0.55450  0.12500  0.40258  1.0000
  S   S347      1.0  0.57139  0.12101  0.40851  1.0000
  Fe  Fe170     1.0  0.52925  0.12051  0.43394  1.0000
  C   C2637     1.0  0.54294  0.01716  0.04594  1.0000
  S   S348      1.0  0.55242  0.13573  0.36239  1.0000
  S   S349      1.0  0.52512  0.13121  0.39548  1.0000
  S   S350      1.0  0.51429  0.07182  0.14133  1.0000
  Fe  Fe171     1.0  0.50824  0.08581  0.20638  1.0000
  S   S351      1.0  0.52270  0.09454  0.16687  1.0000
  H   H2109     1.0  0.58754  0.13293  0.46701  1.0000
  Fe  Fe172     1.0  0.51023  0.08926  0.14110  1.0000
  S   S352      1.0  0.51428  0.10427  0.10061  1.0000
  Fe  Fe173     1.0  0.52574  0.07672  0.16941  1.0000
  S   S353      1.0  0.54401  0.07450  0.16150  1.0000
  S   S354      1.0  0.51193  0.06802  0.20992  1.0000
  Fe  Fe174     1.0  0.61065  0.09573  0.16250  1.0000
  S   S355      1.0  0.60732  0.10817  0.12648  1.0000
  S   S356      1.0  0.60762  0.07583  0.16520  1.0000
  Fe  Fe175     1.0  0.61820  0.11592  0.19240  1.0000
  S   S357      1.0  0.61479  0.12921  0.15823  1.0000
  S   S358      1.0  0.62180  0.12093  0.23360  1.0000
  Fe  Fe176     1.0  0.59875  0.11551  0.16069  1.0000
  S   S359      1.0  0.58141  0.11974  0.16130  1.0000
  Fe  Fe177     1.0  0.62373  0.12089  0.12612  1.0000
  S   S360      1.0  0.63552  0.13430  0.08541  1.0000
  S   S361      1.0  0.60118  0.10257  0.19704  1.0000
  S   S362      1.0  0.62808  0.10801  0.16020  1.0000
  Fe  Fe178     1.0  0.64854  0.15674  0.34419  1.0000
  S   S363      1.0  0.64431  0.17409  0.34566  1.0000
  S   S364      1.0  0.65128  0.15227  0.30007  1.0000
  Fe  Fe179     1.0  0.64634  0.15102  0.40964  1.0000
  S   S365      1.0  0.64135  0.16761  0.41424  1.0000
  C   C2638     1.0  0.58876  0.24027  0.03710  1.0000
  Fe  Fe180     1.0  0.63028  0.16364  0.38459  1.0000
  S   S366      1.0  0.61228  0.16643  0.38791  1.0000
  Fe  Fe181     1.0  0.65612  0.17673  0.37506  1.0000
  S   S367      1.0  0.66631  0.19588  0.37128  1.0000
  S   S368      1.0  0.63404  0.14634  0.38259  1.0000
  S   S369      1.0  0.66163  0.16009  0.37084  1.0000
  C   C2639     1.0  0.62995  0.13004  0.25151  1.0000
  C   C2640     1.0  0.62671  0.12750  0.28150  1.0000
  C   C2641     1.0  0.63295  0.13425  0.29656  1.0000
  C   C2642     1.0  0.64258  0.14377  0.28204  1.0000
  C   C2643     1.0  0.64586  0.14628  0.25205  1.0000
  C   C2644     1.0  0.63957  0.13962  0.23694  1.0000
  H   H2110     1.0  0.61933  0.12018  0.29329  1.0000
  H   H2111     1.0  0.63047  0.13189  0.31951  1.0000
  H   H2112     1.0  0.65334  0.15349  0.24033  1.0000
  H   H2113     1.0  0.64221  0.14191  0.21398  1.0000
  C   C2645     1.0  0.63571  0.13393  0.04957  1.0000
  C   C2646     1.0  0.63910  0.14453  0.02803  1.0000
  C   C2647     1.0  0.63978  0.14454  0.99928  1.0000
  C   C2648     1.0  0.50920  0.04368  0.33279  1.0000
  C   C2649     1.0  0.63400  0.12333  0.01311  1.0000
  C   C2650     1.0  0.63321  0.12334  0.04186  1.0000
  H   H2114     1.0  0.64128  0.15278  0.03359  1.0000
  H   H2115     1.0  0.68545  0.20862  0.98469  1.0000
  C   C2651     1.0  0.53924  0.04110  0.15169  1.0000
  H   H2116     1.0  0.63095  0.11515  0.05803  1.0000
  C   C2652     1.0  0.55426  0.08716  0.16145  1.0000
  C   C2653     1.0  0.55095  0.09524  0.17602  1.0000
  C   C2654     1.0  0.55927  0.10534  0.17554  1.0000
  C   C2655     1.0  0.57100  0.10721  0.16120  1.0000
  C   C2656     1.0  0.57433  0.09900  0.14708  1.0000
  C   C2657     1.0  0.56597  0.08903  0.14714  1.0000
  H   H2117     1.0  0.54206  0.09358  0.18837  1.0000
  H   H2118     1.0  0.55666  0.11153  0.18694  1.0000
  H   H2119     1.0  0.58329  0.10036  0.13576  1.0000
  H   H2120     1.0  0.56857  0.08274  0.13611  1.0000
  C   C2658     1.0  0.58064  0.04791  0.14270  1.0000
  C   C2659     1.0  0.59010  0.04511  0.15238  1.0000
  C   C2660     1.0  0.59816  0.05372  0.15921  1.0000
  C   C2661     1.0  0.59702  0.06531  0.15637  1.0000
  C   C2662     1.0  0.58749  0.06808  0.14702  1.0000
  C   C2663     1.0  0.57938  0.05945  0.14035  1.0000
  H   H2121     1.0  0.60545  0.05139  0.16644  1.0000
  H   H2122     1.0  0.58634  0.07687  0.14505  1.0000
  H   H2123     1.0  0.57201  0.06173  0.13349  1.0000
  C   C2664     1.0  0.51854  0.10504  0.00583  1.0000
  C   C2665     1.0  0.51107  0.09527  0.02706  1.0000
  H   H2124     1.0  0.70976  0.23326  0.33903  1.0000
  C   C2666     1.0  0.51651  0.10377  0.06441  1.0000
  C   C2667     1.0  0.52415  0.11344  0.04312  1.0000
  C   C2668     1.0  0.52531  0.11399  0.01402  1.0000
  C   C2669     1.0  0.58467  0.12960  0.99037  1.0000
  C   C2670     1.0  0.50881  0.02015  0.35551  1.0000
  H   H2125     1.0  0.52907  0.12062  0.04920  1.0000
  H   H2126     1.0  0.53108  0.12152  0.99793  1.0000
  C   C2671     1.0  0.52580  0.10876  0.30603  1.0000
  C   C2672     1.0  0.51415  0.10909  0.30758  1.0000
  C   C2673     1.0  0.60756  0.21791  0.01481  1.0000
  C   C2674     1.0  0.51374  0.10001  0.26733  1.0000
  C   C2675     1.0  0.52542  0.09972  0.26565  1.0000
  C   C2676     1.0  0.53136  0.10406  0.28477  1.0000
  C   C2677     1.0  0.50201  0.05878  0.37650  1.0000
  C   C2678     1.0  0.57239  0.01681  0.19984  1.0000
  H   H2127     1.0  0.52989  0.09616  0.24961  1.0000
  H   H2128     1.0  0.54035  0.10375  0.28309  1.0000
  C   C2679     1.0  0.58270  0.13362  0.40301  1.0000
  C   C2680     1.0  0.58151  0.14473  0.39089  1.0000
  C   C2681     1.0  0.59076  0.15470  0.38575  1.0000
  C   C2682     1.0  0.60108  0.15368  0.39348  1.0000
  C   C2683     1.0  0.60219  0.14258  0.40608  1.0000
  C   C2684     1.0  0.59304  0.13256  0.41071  1.0000
  H   H2129     1.0  0.57352  0.14560  0.38514  1.0000
  H   H2130     1.0  0.58998  0.16324  0.37556  1.0000
  H   H2131     1.0  0.61005  0.14172  0.41240  1.0000
  H   H2132     1.0  0.59398  0.12398  0.42018  1.0000
  C   C2685     1.0  0.51928  0.15122  0.06417  1.0000
  Fe  Fe182     1.0  0.57528  0.22450  0.41782  1.0000
  C   C2686     1.0  0.59164  0.21278  0.28080  1.0000
  C   C2687     1.0  0.67681  0.15686  0.42425  1.0000
  Fe  Fe183     1.0  0.57834  0.25159  0.40636  1.0000
  C   C2688     1.0  0.58838  0.17300  0.44561  1.0000
  C   C2689     1.0  0.52462  0.05302  0.06861  1.0000
  C   C2690     1.0  0.54776  0.02894  0.04426  1.0000
  H   H2133     1.0  0.66060  0.24314  0.16256  1.0000
  C   C2691     1.0  0.59954  0.17581  0.00445  1.0000
  H   H2134     1.0  0.53928  0.00963  0.30352  1.0000
  C   C2692     1.0  0.59241  0.24170  0.00754  1.0000
  C   C2693     1.0  0.58967  0.16757  0.00341  1.0000
  H   H2135     1.0  0.52612  0.06719  0.00054  1.0000
  H   H2136     1.0  0.58189  0.13583  0.20456  1.0000
  H   H2137     1.0  0.62825  0.22026  0.32904  1.0000
  C   C2694     1.0  0.51360  0.00978  0.47307  1.0000
  C   C2695     1.0  0.55928  0.19417  0.41906  1.0000
  C   C2696     1.0  0.66332  0.08411  0.22472  1.0000
  C   C2697     1.0  0.69767  0.21745  0.39614  1.0000
  C   C2698     1.0  0.69618  0.20529  0.39862  1.0000
  C   C2699     1.0  0.68664  0.19854  0.39158  1.0000
  C   C2700     1.0  0.67837  0.20381  0.38176  1.0000
  C   C2701     1.0  0.67979  0.21594  0.37962  1.0000
  C   C2702     1.0  0.68926  0.22266  0.38693  1.0000
  H   H2138     1.0  0.61893  0.21858  0.37945  1.0000
  H   H2139     1.0  0.68580  0.18928  0.39330  1.0000
  H   H2140     1.0  0.67357  0.22021  0.37189  1.0000
  H   H2141     1.0  0.69026  0.23196  0.38468  1.0000
  C   C2703     1.0  0.58220  0.21837  0.32197  1.0000
  C   C2704     1.0  0.59080  0.16108  0.98300  1.0000
  C   C2705     1.0  0.51682  0.02638  0.43244  1.0000
  C   C2706     1.0  0.55682  0.03032  0.33901  1.0000
  C   C2707     1.0  0.59107  0.25034  0.29433  1.0000
  P   P89       1.0  0.57990  0.20439  0.24296  1.0000
  C   C2708     1.0  0.68329  0.19915  0.47192  1.0000
  C   C2709     1.0  0.57868  0.20166  0.99833  1.0000
  C   C2710     1.0  0.56374  0.06475  0.21437  1.0000
  H   H2142     1.0  0.53134  0.07367  0.32451  1.0000
  H   H2143     1.0  0.50156  0.02882  0.41832  1.0000
  H   H2144     1.0  0.51143  0.18041  0.04525  1.0000
  C   C2711     1.0  0.63648  0.21488  0.41861  1.0000
  H   H2145     1.0  0.56251  0.01517  0.46989  1.0000
  C   C2712     1.0  0.51934  0.02885  0.34722  1.0000
  C   C2713     1.0  0.57094  0.21186  0.29047  1.0000
  S   S370      1.0  0.50553  0.09453  0.24413  1.0000
  H   H2146     1.0  0.50801  0.04186  0.14448  1.0000
  H   H2147     1.0  0.60266  0.21878  0.20725  1.0000
  H   H2148     1.0  0.68861  0.24755  0.22517  1.0000
  H   H2149     1.0  0.60960  0.09009  0.01424  1.0000
  H   H2150     1.0  0.54826  0.01211  0.03601  1.0000
  P   P90       1.0  0.50943  0.05888  0.31918  1.0000
  H   H2151     1.0  0.64974  0.24525  0.98622  1.0000
  C   C2714     1.0  0.57461  0.23154  0.16922  1.0000
  H   H2152     1.0  0.55283  0.06392  0.11590  1.0000
  S   S371      1.0  0.51851  0.00515  0.15915  1.0000
  H   H2153     1.0  0.57378  0.23809  0.15165  1.0000
  H   H2154     1.0  0.57536  0.15176  0.22308  1.0000
  C   C2715     1.0  0.54506  0.07810  0.25504  1.0000
  C   C2716     1.0  0.52570  0.06508  0.26641  1.0000
  C   C2717     1.0  0.55347  0.18267  0.43573  1.0000
  C   C2718     1.0  0.54974  0.17351  0.42317  1.0000
  C   C2719     1.0  0.55143  0.17579  0.39365  1.0000
  C   C2720     1.0  0.55699  0.18735  0.37698  1.0000
  C   C2721     1.0  0.56100  0.19642  0.38953  1.0000
  H   H2155     1.0  0.60540  0.17739  0.22953  1.0000
  H   H2156     1.0  0.54534  0.16476  0.43638  1.0000
  H   H2157     1.0  0.55822  0.18931  0.35419  1.0000
  H   H2158     1.0  0.56529  0.20520  0.37648  1.0000
  H   H2159     1.0  0.64246  0.15275  0.98300  1.0000
  H   H2160     1.0  0.50208  0.04614  0.06833  1.0000
  H   H2161     1.0  0.51180  0.14715  0.13619  1.0000
  C   C2722     1.0  0.61635  0.12755  0.45966  1.0000
  C   C2723     1.0  0.71412  0.23686  0.16168  1.0000
  H   H2162     1.0  0.62259  0.19331  0.19954  1.0000
  H   H2163     1.0  0.52368  0.01859  0.20751  1.0000
  C   C2724     1.0  0.58098  0.21027  0.27330  1.0000
  C   C2725     1.0  0.55606  0.06700  0.09294  1.0000
  C   C2726     1.0  0.55010  0.17021  0.27197  1.0000
  C   C2727     1.0  0.66426  0.23384  0.47125  1.0000
  C   C2728     1.0  0.62547  0.20875  0.43665  1.0000
  C   C2729     1.0  0.70208  0.23360  0.16472  1.0000
  S   S372      1.0  0.63928  0.24340  0.14518  1.0000
  H   H2164     1.0  0.63266  0.20297  0.99646  1.0000
  C   C2730     1.0  0.62005  0.20581  0.02961  1.0000
  C   C2731     1.0  0.61099  0.21117  0.03645  1.0000
  H   H2165     1.0  0.72086  0.25217  0.27634  1.0000
  H   H2166     1.0  0.56260  0.20989  0.28526  1.0000
  H   H2167     1.0  0.69173  0.21767  0.45983  1.0000
  H   H2168     1.0  0.69507  0.10100  0.18238  1.0000
  H   H2169     1.0  0.67944  0.11149  0.18566  1.0000
  C   C2732     1.0  0.57338  0.00631  0.21617  1.0000
  P   P91       1.0  0.66924  0.24697  0.01393  1.0000
  H   H2170     1.0  0.54890  0.01662  0.37788  1.0000
  H   H2171     1.0  0.64556  0.09549  0.27536  1.0000
  C   C2733     1.0  0.56795  0.19122  0.25428  1.0000
  H   H2172     1.0  0.50578  0.08828  0.02101  1.0000
  C   C2734     1.0  0.50159  0.00716  0.47457  1.0000
  P   P92       1.0  0.65441  0.10375  0.21332  1.0000
  H   H2173     1.0  0.56382  0.04213  0.29742  1.0000
  S   S373      1.0  0.60587  0.24240  0.32496  1.0000
  Fe  Fe184     1.0  0.49977  0.06417  0.18183  1.0000
  H   H2174     1.0  0.62277  0.20063  0.04642  1.0000
  H   H2175     1.0  0.60668  0.21017  0.05850  1.0000
  C   C2735     1.0  0.59012  0.20335  0.47173  1.0000
  C   C2736     1.0  0.57579  0.20504  0.02355  1.0000
  C   C2737     1.0  0.56467  0.07513  0.03358  1.0000
  C   C2738     1.0  0.61925  0.08818  0.24050  1.0000
  C   C2739     1.0  0.59258  0.08578  0.00614  1.0000
  H   H2176     1.0  0.60044  0.21879  0.31081  1.0000
  S   S374      1.0  0.55008  0.01406  0.10946  1.0000
  C   C2740     1.0  0.56252  0.18704  0.23459  1.0000
  C   C2741     1.0  0.53053  0.03152  0.26939  1.0000
  C   C2742     1.0  0.51025  0.07796  0.34333  1.0000
  C   C2743     1.0  0.52355  0.06619  0.29443  1.0000
  C   C2744     1.0  0.59331  0.20072  0.22895  1.0000
  H   H2177     1.0  0.55073  0.05962  0.01005  1.0000
  H   H2178     1.0  0.56706  0.12550  0.46555  1.0000
  C   C2745     1.0  0.56775  0.10134  0.47749  1.0000
  C   C2746     1.0  0.68565  0.23655  0.98858  1.0000
  H   H2179     1.0  0.55923  0.00737  0.28138  1.0000
  C   C2747     1.0  0.50323  0.17433  0.04688  1.0000
  C   C2748     1.0  0.57975  0.17680  0.40593  1.0000
  C   C2749     1.0  0.58675  0.18832  0.39681  1.0000
  C   C2750     1.0  0.59462  0.19219  0.41203  1.0000
  C   C2751     1.0  0.53729  0.17537  0.02733  1.0000
  C   C2752     1.0  0.63325  0.24756  0.35940  1.0000
  C   C2753     1.0  0.56222  0.06061  0.07781  1.0000
  C   C2754     1.0  0.62567  0.20721  0.00113  1.0000
  C   C2755     1.0  0.61917  0.19847  0.43185  1.0000
  H   H2180     1.0  0.50851  0.15857  0.09266  1.0000
  C   C2756     1.0  0.56434  0.18472  0.28290  1.0000
  C   C2757     1.0  0.64125  0.21087  0.39551  1.0000
  C   C2758     1.0  0.63491  0.20088  0.39009  1.0000
  C   C2759     1.0  0.62388  0.19479  0.40798  1.0000
  H   H2181     1.0  0.56177  0.03605  0.34899  1.0000
  H   H2182     1.0  0.55169  0.18082  0.45858  1.0000
  H   H2183     1.0  0.55010  0.13099  0.01383  1.0000
  H   H2184     1.0  0.69242  0.15713  0.39386  1.0000
  H   H2185     1.0  0.57377  0.17372  0.39399  1.0000
  H   H2186     1.0  0.58599  0.19426  0.37811  1.0000
  H   H2187     1.0  0.59989  0.20119  0.40489  1.0000
  H   H2188     1.0  0.54675  0.04265  0.98961  1.0000
  H   H2189     1.0  0.55685  0.03297  0.03319  1.0000
  H   H2190     1.0  0.66539  0.20494  0.01549  1.0000
  C   C2760     1.0  0.63398  0.23971  0.01972  1.0000
  H   H2191     1.0  0.59956  0.21174  0.26803  1.0000
  H   H2192     1.0  0.64985  0.21549  0.38172  1.0000
  H   H2193     1.0  0.63861  0.19774  0.37221  1.0000
  H   H2194     1.0  0.61909  0.18713  0.40327  1.0000
  H   H2195     1.0  0.54997  0.08433  0.28960  1.0000
  H   H2196     1.0  0.55321  0.08301  0.23957  1.0000
  H   H2197     1.0  0.59209  0.15999  0.05927  1.0000
  C   C2761     1.0  0.74317  0.25061  0.25438  1.0000
  C   C2762     1.0  0.63035  0.09520  0.23777  1.0000
  H   H2198     1.0  0.52273  0.03384  0.41617  1.0000
  C   C2763     1.0  0.61319  0.21939  0.98632  1.0000
  C   C2764     1.0  0.57826  0.22169  0.16422  1.0000
  C   C2765     1.0  0.50537  0.03199  0.09819  1.0000
  C   C2766     1.0  0.59548  0.18456  0.43657  1.0000
  C   C2767     1.0  0.58328  0.15631  0.07254  1.0000
  C   C2768     1.0  0.51690  0.02555  0.24227  1.0000
  C   C2769     1.0  0.51941  0.03027  0.26444  1.0000
  H   H2199     1.0  0.54942  0.17341  0.22823  1.0000
  C   C2770     1.0  0.60373  0.24744  0.24336  1.0000
  H   H2200     1.0  0.61447  0.24047  0.26862  1.0000
  H   H2201     1.0  0.51599  0.01339  0.08851  1.0000
  H   H2202     1.0  0.53366  0.13081  0.08637  1.0000
  C   C2771     1.0  0.66699  0.22315  0.01549  1.0000
  C   C2772     1.0  0.67427  0.23463  0.00557  1.0000
  H   H2203     1.0  0.50299  0.08053  0.41115  1.0000
  H   H2204     1.0  0.54495  0.04433  0.05712  1.0000
  C   C2773     1.0  0.55362  0.17659  0.24345  1.0000
  C   C2774     1.0  0.65347  0.24283  0.02754  1.0000
  H   H2205     1.0  0.61962  0.23446  0.05735  1.0000
  H   H2206     1.0  0.60056  0.22209  0.02012  1.0000
  H   H2207     1.0  0.58648  0.23778  0.99649  1.0000
  H   H2208     1.0  0.57151  0.05969  0.03704  1.0000
  C   C2775     1.0  0.64839  0.23946  0.05706  1.0000
  C   C2776     1.0  0.61444  0.19537  0.20773  1.0000
  H   H2209     1.0  0.56833  0.18765  0.29861  1.0000
  P   P93       1.0  0.60546  0.18971  0.45654  1.0000
  H   H2210     1.0  0.62227  0.23597  0.39908  1.0000
  C   C2777     1.0  0.52937  0.02993  0.07351  1.0000
  C   C2778     1.0  0.51016  0.09456  0.05617  1.0000
  C   C2779     1.0  0.62769  0.07835  0.20681  1.0000
  H   H2211     1.0  0.65206  0.24565  0.23673  1.0000
  C   C2780     1.0  0.52471  0.01798  0.07572  1.0000
  H   H2212     1.0  0.62127  0.10161  0.45019  1.0000
  H   H2213     1.0  0.60859  0.24624  0.22381  1.0000
  H   H2214     1.0  0.65824  0.22141  0.02889  1.0000
  H   H2215     1.0  0.61842  0.17249  0.44316  1.0000
  H   H2216     1.0  0.64612  0.12485  0.19996  1.0000
  C   C2781     1.0  0.55545  0.17429  0.29168  1.0000
  C   C2782     1.0  0.68620  0.09627  0.19410  1.0000
  H   H2217     1.0  0.52296  0.04715  0.03101  1.0000
  H   H2218     1.0  0.51280  0.03311  0.27754  1.0000
  Fe  Fe185     1.0  0.56232  0.01785  0.13710  1.0000
  H   H2219     1.0  0.52779  0.04720  0.32977  1.0000
  C   C2783     1.0  0.55847  0.08150  0.04896  1.0000
  C   C2784     1.0  0.52743  0.17993  0.99023  1.0000
  C   C2785     1.0  0.65921  0.18425  0.45290  1.0000
  C   C2786     1.0  0.64614  0.24283  0.00896  1.0000
  H   H2220     1.0  0.68760  0.24067  0.04111  1.0000
  H   H2221     1.0  0.66631  0.18537  0.43453  1.0000
  C   C2787     1.0  0.50683  0.12936  0.00490  1.0000
  C   C2788     1.0  0.71849  0.23586  0.18577  1.0000
  H   H2222     1.0  0.63222  0.11505  0.00746  1.0000
  C   C2789     1.0  0.67202  0.16151  0.44609  1.0000
  H   H2223     1.0  0.52970  0.08167  0.07130  1.0000
  C   C2790     1.0  0.57246  0.23316  0.19664  1.0000
  H   H2224     1.0  0.58275  0.22169  0.34049  1.0000
  H   H2225     1.0  0.56816  0.10291  0.45504  1.0000
  H   H2226     1.0  0.59698  0.12745  0.22223  1.0000
  H   H2227     1.0  0.67676  0.18452  0.23178  1.0000
  C   C2791     1.0  0.57363  0.15807  0.06218  1.0000
  C   C2792     1.0  0.58054  0.16916  0.43031  1.0000
  H   H2228     1.0  0.60547  0.13475  0.25826  1.0000
  H   H2229     1.0  0.58389  0.15933  0.25890  1.0000
  C   C2793     1.0  0.63818  0.24871  0.33049  1.0000
  C   C2794     1.0  0.69598  0.16900  0.41995  1.0000
  C   C2795     1.0  0.62448  0.22692  0.36594  1.0000
  C   C2796     1.0  0.50490  0.02357  0.43370  1.0000
  C   C2797     1.0  0.59133  0.12373  0.00563  1.0000
  C   C2798     1.0  0.60195  0.12235  0.99063  1.0000
  P   P94       1.0  0.58782  0.12046  0.04406  1.0000
  C   C2799     1.0  0.59175  0.10707  0.05789  1.0000
  C   C2800     1.0  0.59700  0.13226  0.05308  1.0000
  C   C2801     1.0  0.59880  0.13062  0.08045  1.0000
  C   C2802     1.0  0.60704  0.13902  0.08657  1.0000
  C   C2803     1.0  0.61360  0.14911  0.06550  1.0000
  C   C2804     1.0  0.61181  0.15089  0.03825  1.0000
  C   C2805     1.0  0.60351  0.14255  0.03205  1.0000
  C   C2806     1.0  0.58318  0.09640  0.07025  1.0000
  C   C2807     1.0  0.58635  0.08617  0.08112  1.0000
  C   C2808     1.0  0.59806  0.08647  0.07989  1.0000
  C   C2809     1.0  0.60661  0.09704  0.06788  1.0000
  C   C2810     1.0  0.60347  0.10730  0.05708  1.0000
  C   C2811     1.0  0.57240  0.11829  0.06021  1.0000
  C   C2812     1.0  0.56393  0.11334  0.04747  1.0000
  C   C2813     1.0  0.55202  0.11048  0.06127  1.0000
  C   C2814     1.0  0.54847  0.11230  0.08820  1.0000
  C   C2815     1.0  0.55680  0.11710  0.10118  1.0000
  C   C2816     1.0  0.56871  0.12011  0.08728  1.0000
  C   C2817     1.0  0.52659  0.14353  0.06269  1.0000
  S   S375      1.0  0.64642  0.13719  0.44903  1.0000
  H   H2230     1.0  0.57614  0.21419  0.02279  1.0000
  H   H2231     1.0  0.60772  0.11860  0.00158  1.0000
  H   H2232     1.0  0.57690  0.13155  0.00130  1.0000
  H   H2233     1.0  0.59416  0.12264  0.09686  1.0000
  H   H2234     1.0  0.60861  0.13753  0.10747  1.0000
  H   H2235     1.0  0.62038  0.15528  0.07009  1.0000
  H   H2236     1.0  0.61721  0.15849  0.02159  1.0000
  H   H2237     1.0  0.60264  0.14401  0.01049  1.0000
  H   H2238     1.0  0.57404  0.09596  0.07219  1.0000
  H   H2239     1.0  0.57972  0.07801  0.09097  1.0000
  H   H2240     1.0  0.60047  0.07856  0.08880  1.0000
  H   H2241     1.0  0.61566  0.09732  0.06758  1.0000
  H   H2242     1.0  0.61015  0.11548  0.04853  1.0000
  H   H2243     1.0  0.56652  0.11128  0.02735  1.0000
  H   H2244     1.0  0.54552  0.10652  0.05155  1.0000
  H   H2245     1.0  0.53926  0.10971  0.09937  1.0000
  H   H2246     1.0  0.55407  0.11811  0.12252  1.0000
  H   H2247     1.0  0.57494  0.12342  0.09836  1.0000
  C   C2818     1.0  0.59238  0.18118  0.31081  1.0000
  C   C2819     1.0  0.58124  0.17617  0.32909  1.0000
  C   C2820     1.0  0.57611  0.16422  0.33374  1.0000
  C   C2821     1.0  0.58224  0.15717  0.32104  1.0000
  C   C2822     1.0  0.59360  0.16203  0.30334  1.0000
  C   C2823     1.0  0.59849  0.17420  0.29770  1.0000
  P   P95       1.0  0.60162  0.15270  0.28791  1.0000
  C   C2824     1.0  0.61689  0.16053  0.27295  1.0000
  C   C2825     1.0  0.59996  0.13964  0.31568  1.0000
  C   C2826     1.0  0.59002  0.13020  0.32201  1.0000
  C   C2827     1.0  0.58858  0.12000  0.34321  1.0000
  C   C2828     1.0  0.59706  0.11909  0.35825  1.0000
  C   C2829     1.0  0.60695  0.12842  0.35224  1.0000
  C   C2830     1.0  0.60837  0.13869  0.33121  1.0000
  C   C2831     1.0  0.62253  0.16132  0.24466  1.0000
  C   C2832     1.0  0.63415  0.16779  0.23290  1.0000
  C   C2833     1.0  0.64028  0.17347  0.24927  1.0000
  C   C2834     1.0  0.63476  0.17280  0.27730  1.0000
  C   C2835     1.0  0.62312  0.16638  0.28914  1.0000
  C   C2836     1.0  0.59546  0.14773  0.26093  1.0000
  C   C2837     1.0  0.59899  0.13864  0.25053  1.0000
  C   C2838     1.0  0.59418  0.13447  0.23012  1.0000
  C   C2839     1.0  0.58570  0.13923  0.22014  1.0000
  C   C2840     1.0  0.58207  0.14822  0.23053  1.0000
  C   C2841     1.0  0.58693  0.15249  0.25084  1.0000
  H   H2248     1.0  0.59634  0.19046  0.30712  1.0000
  H   H2249     1.0  0.57655  0.18150  0.33968  1.0000
  H   H2250     1.0  0.56746  0.16035  0.34787  1.0000
  H   H2251     1.0  0.57817  0.14787  0.32559  1.0000
  H   H2252     1.0  0.60705  0.17835  0.28349  1.0000
  H   H2253     1.0  0.58327  0.13070  0.31079  1.0000
  H   H2254     1.0  0.58073  0.11293  0.34850  1.0000
  H   H2255     1.0  0.59579  0.11130  0.37513  1.0000
  H   H2256     1.0  0.61341  0.12782  0.36432  1.0000
  H   H2257     1.0  0.61608  0.14573  0.32727  1.0000
  H   H2258     1.0  0.61810  0.15690  0.23152  1.0000
  H   H2259     1.0  0.63850  0.16809  0.21134  1.0000
  H   H2260     1.0  0.64940  0.17817  0.24049  1.0000
  H   H2261     1.0  0.63959  0.17706  0.29004  1.0000
  H   H2262     1.0  0.61899  0.16601  0.31095  1.0000
  H   H2263     1.0  0.54316  0.02054  0.21669  1.0000
  H   H2264     1.0  0.62656  0.07208  0.19411  1.0000
  C   C2842     1.0  0.65621  0.22987  0.25650  1.0000
  C   C2843     1.0  0.73999  0.24930  0.22953  1.0000
  S   S376      1.0  0.57048  0.03766  0.13191  1.0000
  C   C2844     1.0  0.51602  0.14624  0.11559  1.0000
  C   C2845     1.0  0.66695  0.24535  0.47448  1.0000
  S   S377      1.0  0.71026  0.22566  0.40425  1.0000
  C   C2846     1.0  0.64943  0.18824  0.44902  1.0000
  C   C2847     1.0  0.61032  0.17763  0.98512  1.0000
  H   H2265     1.0  0.59886  0.18105  0.01974  1.0000
  H   H2266     1.0  0.50869  0.01104  0.36394  1.0000
  C   C2848     1.0  0.53255  0.07287  0.30290  1.0000
  H   H2267     1.0  0.50966  0.11264  0.32360  1.0000
  C   C2849     1.0  0.57489  0.18134  0.02538  1.0000
  H   H2268     1.0  0.66280  0.21529  0.27252  1.0000
  H   H2269     1.0  0.53247  0.03551  0.28606  1.0000
  H   H2270     1.0  0.69052  0.07973  0.20613  1.0000
  C   C2850     1.0  0.56099  0.14648  0.01949  1.0000
  P   P96       1.0  0.57551  0.16638  0.02607  1.0000
  C   C2851     1.0  0.55718  0.05904  0.99208  1.0000
  C   C2852     1.0  0.52306  0.13839  0.11396  1.0000
  H   H2271     1.0  0.58860  0.08031  0.02750  1.0000
  H   H2272     1.0  0.63254  0.18986  0.46929  1.0000
  C   C2853     1.0  0.56415  0.15884  0.01263  1.0000
  H   H2273     1.0  0.54776  0.05125  0.22896  1.0000
  C   C2854     1.0  0.67958  0.24255  0.23413  1.0000
  P   P97       1.0  0.51646  0.15895  0.03200  1.0000
  C   C2855     1.0  0.69279  0.23549  0.29222  1.0000
  Fe  Fe186     1.0  0.60373  0.25112  0.11310  1.0000
  C   C2856     1.0  0.59422  0.18906  0.23539  1.0000
  C   C2857     1.0  0.67065  0.24795  0.22991  1.0000
  H   H2274     1.0  0.62115  0.21401  0.18843  1.0000
  C   C2858     1.0  0.57201  0.18482  0.05068  1.0000
  C   C2859     1.0  0.60474  0.18641  0.22463  1.0000
  H   H2275     1.0  0.57997  0.23530  0.04870  1.0000
  C   C2860     1.0  0.68364  0.08430  0.20752  1.0000
  C   C2861     1.0  0.69127  0.17344  0.44236  1.0000
  C   C2862     1.0  0.56229  0.15315  0.08017  1.0000
  H   H2276     1.0  0.55470  0.15444  0.07275  1.0000
  H   H2277     1.0  0.56956  0.17852  0.07120  1.0000
  S   S378      1.0  0.56410  0.20534  0.43615  1.0000
  C   C2863     1.0  0.70575  0.23145  0.32223  1.0000
  C   C2864     1.0  0.58158  0.14962  0.10036  1.0000
  H   H2278     1.0  0.58900  0.14821  0.10842  1.0000
  C   C2865     1.0  0.66651  0.23183  0.44416  1.0000
  H   H2279     1.0  0.51911  0.05969  0.25955  1.0000
  H   H2280     1.0  0.62200  0.21211  0.45424  1.0000
  C   C2866     1.0  0.52117  0.01953  0.45206  1.0000
  C   C2867     1.0  0.67689  0.23065  0.24891  1.0000
  H   H2281     1.0  0.53774  0.00340  0.35483  1.0000
  C   C2868     1.0  0.66513  0.22442  0.26068  1.0000
  C   C2869     1.0  0.56065  0.14637  0.10784  1.0000
  H   H2282     1.0  0.66272  0.15852  0.45587  1.0000
  C   C2870     1.0  0.52833  0.07570  0.03383  1.0000
  C   C2871     1.0  0.57030  0.14457  0.11790  1.0000
  C   C2872     1.0  0.69783  0.23765  0.31420  1.0000
  C   C2873     1.0  0.56658  0.06468  0.04830  1.0000
  H   H2283     1.0  0.56906  0.13916  0.13921  1.0000
  H   H2284     1.0  0.55190  0.14242  0.12148  1.0000
  C   C2874     1.0  0.51954  0.04058  0.33602  1.0000
  C   C2875     1.0  0.67222  0.07824  0.22293  1.0000
  C   C2876     1.0  0.64012  0.18682  0.47236  1.0000
  H   H2285     1.0  0.58100  0.07652  0.20120  1.0000
  C   C2877     1.0  0.59219  0.21671  0.30520  1.0000
  C   C2878     1.0  0.63660  0.23874  0.31979  1.0000
  H   H2286     1.0  0.64714  0.22494  0.26495  1.0000
  C   C2879     1.0  0.52805  0.17220  0.01495  1.0000
  H   H2287     1.0  0.55986  0.07112  0.20361  1.0000
  C   C2880     1.0  0.54547  0.19328  0.98944  1.0000
  C   C2881     1.0  0.68962  0.22719  0.98115  1.0000
  H   H2288     1.0  0.57519  0.16018  0.43699  1.0000
  C   C2882     1.0  0.68404  0.24692  0.05068  1.0000
  H   H2289     1.0  0.56510  0.19177  0.21242  1.0000
  H   H2290     1.0  0.55291  0.18841  0.02440  1.0000
  C   C2883     1.0  0.70840  0.22284  0.30885  1.0000
  C   C2884     1.0  0.69553  0.22696  0.27840  1.0000
  C   C2885     1.0  0.52548  0.02193  0.22531  1.0000
  Fe  Fe187     1.0  0.59632  0.24077  0.42861  1.0000
  C   C2886     1.0  0.53918  0.02790  0.25244  1.0000
  C   C2887     1.0  0.65896  0.24157  0.24078  1.0000
  H   H2291     1.0  0.67851  0.20616  0.30632  1.0000
  S   S379      1.0  0.59189  0.24245  0.08913  1.0000
  C   C2888     1.0  0.55691  0.05341  0.22879  1.0000
  H   H2292     1.0  0.49923  0.10507  0.29021  1.0000
  C   C2889     1.0  0.65034  0.10463  0.27008  1.0000
  H   H2293     1.0  0.58620  0.25155  0.31387  1.0000
  H   H2294     1.0  0.64682  0.10542  0.31386  1.0000
  C   C2890     1.0  0.67557  0.25187  0.04082  1.0000
  C   C2891     1.0  0.58084  0.05942  0.22551  1.0000
  H   H2295     1.0  0.59019  0.06167  0.22324  1.0000
  C   C2892     1.0  0.55800  0.03372  0.30966  1.0000
  H   H2296     1.0  0.71430  0.21785  0.31567  1.0000
  P   P98       1.0  0.52093  0.03832  0.09155  1.0000
  C   C2893     1.0  0.68877  0.16067  0.41100  1.0000
  H   H2297     1.0  0.67122  0.15022  0.41777  1.0000
  S   S380      1.0  0.61034  0.24301  0.45275  1.0000
  C   C2894     1.0  0.67732  0.10217  0.19588  1.0000
  C   C2895     1.0  0.65121  0.13140  0.15454  1.0000
  C   C2896     1.0  0.70328  0.22056  0.28709  1.0000
  C   C2897     1.0  0.51414  0.15267  0.09081  1.0000
  C   C2898     1.0  0.56203  0.04497  0.24177  1.0000
  S   S381      1.0  0.57688  0.23737  0.44543  1.0000
  C   C2899     1.0  0.61792  0.07975  0.22505  1.0000
  C   C2900     1.0  0.65114  0.11018  0.29199  1.0000
  H   H2298     1.0  0.67052  0.18478  0.31981  1.0000
  C   C2901     1.0  0.57408  0.04803  0.23973  1.0000
  H   H2299     1.0  0.49970  0.04467  0.28368  1.0000
  C   C2902     1.0  0.55503  0.00938  0.46673  1.0000
  C   C2903     1.0  0.61363  0.20702  0.20149  1.0000
  C   C2904     1.0  0.71082  0.23165  0.21297  1.0000
  P   P99       1.0  0.68856  0.22349  0.25120  1.0000
  C   C2905     1.0  0.67831  0.20159  0.28969  1.0000
  H   H2300     1.0  0.54796  0.04098  0.15382  1.0000
  H   H2301     1.0  0.66454  0.10470  0.15347  1.0000
  H   H2302     1.0  0.53790  0.16977  0.04672  1.0000
  H   H2303     1.0  0.50416  0.08712  0.07224  1.0000
  C   C2906     1.0  0.53657  0.02312  0.23038  1.0000
  H   H2304     1.0  0.62858  0.12301  0.42838  1.0000
  C   C2907     1.0  0.63625  0.23657  0.06769  1.0000
  C   C2908     1.0  0.60312  0.20969  0.21209  1.0000
  C   C2909     1.0  0.67366  0.18943  0.29749  1.0000
  H   H2305     1.0  0.56374  0.05256  0.08911  1.0000
  H   H2306     1.0  0.53436  0.04644  0.19020  1.0000
  C   C2910     1.0  0.57246  0.19663  0.04971  1.0000
  H   H2307     1.0  0.57831  0.04154  0.24855  1.0000
  H   H2308     1.0  0.69469  0.24627  0.08058  1.0000
  H   H2309     1.0  0.63246  0.23431  0.09049  1.0000
  H   H2310     1.0  0.66526  0.11842  0.10836  1.0000
  C   C2911     1.0  0.63880  0.08544  0.20386  1.0000
  H   H2311     1.0  0.68680  0.24046  0.28610  1.0000
  H   H2312     1.0  0.51418  0.04613  0.18627  1.0000
  H   H2313     1.0  0.56384  0.21728  0.32767  1.0000
  C   C2912     1.0  0.57158  0.21597  0.31459  1.0000
  H   H2314     1.0  0.56997  0.24100  0.20036  1.0000
  C   C2913     1.0  0.52842  0.13710  0.08750  1.0000
  H   H2315     1.0  0.65777  0.12634  0.30255  1.0000
  C   C2914     1.0  0.65737  0.12192  0.28568  1.0000
  C   C2915     1.0  0.68261  0.20773  0.26083  1.0000
  H   H2316     1.0  0.70528  0.21374  0.27717  1.0000
  H   H2317     1.0  0.54207  0.03665  0.11186  1.0000
  C   C2916     1.0  0.52675  0.06287  0.07960  1.0000
  H   H2318     1.0  0.58687  0.18202  0.24878  1.0000
  C   C2917     1.0  0.57977  0.21346  0.18664  1.0000
  H   H2319     1.0  0.58025  0.22067  0.14273  1.0000
  C   C2918     1.0  0.52021  0.04398  0.17002  1.0000
  C   C2919     1.0  0.62904  0.23669  0.04905  1.0000
  H   H2320     1.0  0.58289  0.20604  0.18218  1.0000
  H   H2321     1.0  0.53058  0.14225  0.04244  1.0000
  H   H2322     1.0  0.57029  0.19931  0.06926  1.0000
  C   C2920     1.0  0.56286  0.01026  0.25866  1.0000
  H   H2323     1.0  0.58885  0.16688  0.46433  1.0000
  H   H2324     1.0  0.67329  0.23972  0.39913  1.0000
  H   H2325     1.0  0.55268  0.16937  0.31388  1.0000
  H   H2326     1.0  0.63111  0.10194  0.24918  1.0000
  H   H2327     1.0  0.52695  0.06188  0.10158  1.0000
  C   C2921     1.0  0.56657  0.02403  0.21279  1.0000
  C   C2922     1.0  0.53582  0.03863  0.12788  1.0000
  H   H2328     1.0  0.56573  0.03204  0.19957  1.0000
  H   H2329     1.0  0.59142  0.03641  0.15395  1.0000
  C   C2923     1.0  0.60454  0.09129  0.99869  1.0000
  C   C2924     1.0  0.55182  0.02622  0.29648  1.0000
  C   C2925     1.0  0.60086  0.24582  0.29416  1.0000
  C   C2926     1.0  0.55880  0.16508  0.99429  1.0000
  C   C2927     1.0  0.51493  0.14892  0.00952  1.0000
  H   H2330     1.0  0.74201  0.24293  0.27154  1.0000
  H   H2331     1.0  0.54956  0.08242  0.09062  1.0000
  C   C2928     1.0  0.50000  0.02129  0.11865  1.0000
  C   C2929     1.0  0.66300  0.12806  0.25751  1.0000
  C   C2930     1.0  0.60389  0.24780  0.99264  1.0000
  C   C2931     1.0  0.60707  0.24424  0.26871  1.0000
  H   H2332     1.0  0.65654  0.13534  0.10880  1.0000
  C   C2932     1.0  0.67308  0.18329  0.27664  1.0000
  C   C2933     1.0  0.52461  0.03906  0.12469  1.0000
  H   H2333     1.0  0.52949  0.08445  0.02069  1.0000
  H   H2334     1.0  0.50840  0.02489  0.23778  1.0000
  P   P100      1.0  0.57046  0.08035  0.99541  1.0000
  C   C2934     1.0  0.51672  0.04148  0.14632  1.0000
  C   C2935     1.0  0.66213  0.12257  0.23553  1.0000
  C   C2936     1.0  0.55424  0.07746  0.07857  1.0000
  H   H2335     1.0  0.57583  0.01919  0.17696  1.0000
  C   C2937     1.0  0.57753  0.21496  0.21439  1.0000
  H   H2336     1.0  0.66944  0.17385  0.28279  1.0000
  H   H2337     1.0  0.69707  0.17981  0.44899  1.0000
  H   H2338     1.0  0.70254  0.20108  0.40580  1.0000
  C   C2938     1.0  0.69870  0.22831  0.21627  1.0000
  C   C2939     1.0  0.62971  0.22789  0.33747  1.0000
  C   C2940     1.0  0.68199  0.20150  0.23995  1.0000
  C   C2941     1.0  0.67721  0.18932  0.24789  1.0000
  H   H2339     1.0  0.64130  0.22276  0.42250  1.0000
  H   H2340     1.0  0.64700  0.13854  0.15467  1.0000
  C   C2942     1.0  0.62134  0.11970  0.44725  1.0000
  H   H2341     1.0  0.66780  0.13717  0.25274  1.0000
  H   H2342     1.0  0.61980  0.13692  0.45035  1.0000
  H   H2343     1.0  0.73634  0.24062  0.22745  1.0000
  C   C2943     1.0  0.57398  0.22497  0.21913  1.0000
  H   H2344     1.0  0.68507  0.22709  0.19378  1.0000
  H   H2345     1.0  0.71439  0.23141  0.23125  1.0000
  Fe  Fe188     1.0  0.71760  0.24523  0.40310  1.0000
  H   H2346     1.0  0.65455  0.07932  0.23710  1.0000
  C   C2944     1.0  0.54101  0.03531  0.05793  1.0000
  C   C2945     1.0  0.65655  0.12957  0.12869  1.0000
  C   C2946     1.0  0.50822  0.10474  0.28852  1.0000
  H   H2347     1.0  0.68517  0.20595  0.21760  1.0000
  C   C2947     1.0  0.67150  0.24127  0.42011  1.0000
  C   C2948     1.0  0.55250  0.14051  0.00851  1.0000
  H   H2348     1.0  0.57265  0.22673  0.23986  1.0000
  H   H2349     1.0  0.61786  0.18414  0.98558  1.0000
  H   H2350     1.0  0.65374  0.23911  0.07210  1.0000
  H   H2351     1.0  0.72005  0.24037  0.14060  1.0000
  C   C2949     1.0  0.64023  0.09384  0.21957  1.0000
  C   C2950     1.0  0.52648  0.06597  0.02250  1.0000
  C   C2951     1.0  0.69439  0.22935  0.19186  1.0000
  H   H2352     1.0  0.52419  0.13310  0.13324  1.0000
  H   H2353     1.0  0.61164  0.08958  0.25388  1.0000
  H   H2354     1.0  0.53044  0.02181  0.45066  1.0000
  H   H2355     1.0  0.66655  0.12750  0.21386  1.0000
  H   H2356     1.0  0.72781  0.23858  0.18330  1.0000
  H   H2357     1.0  0.67025  0.06898  0.23357  1.0000
  C   C2952     1.0  0.66146  0.12000  0.12848  1.0000
  H   H2358     1.0  0.69874  0.23463  0.14596  1.0000
  H   H2359     1.0  0.64052  0.23937  0.29777  1.0000
  H   H2360     1.0  0.60928  0.07455  0.22644  1.0000
  C   C2953     1.0  0.56164  0.02076  0.24232  1.0000
  C   C2954     1.0  0.53147  0.01166  0.06184  1.0000
  H   H2361     1.0  0.50523  0.13384  0.04474  1.0000
  C   C2955     1.0  0.67922  0.16970  0.45564  1.0000
  C   C2956     1.0  0.59649  0.24511  0.05177  1.0000
  C   C2957     1.0  0.68231  0.21582  0.99075  1.0000
  C   C2958     1.0  0.65591  0.11420  0.18019  1.0000
  C   C2959     1.0  0.54587  0.18594  0.01475  1.0000
  C   C2960     1.0  0.66578  0.09608  0.21075  1.0000
  C   C2961     1.0  0.52847  0.07415  0.06234  1.0000
  C   C2962     1.0  0.66109  0.11229  0.15411  1.0000
  H   H2362     1.0  0.67688  0.20038  0.46004  1.0000
  H   H2363     1.0  0.66452  0.22293  0.44178  1.0000
  H   H2364     1.0  0.69578  0.24427  0.32479  1.0000
  C   C2963     1.0  0.50886  0.08325  0.36590  1.0000
  C   C2964     1.0  0.57830  0.18989  0.99921  1.0000
  C   C2965     1.0  0.54418  0.01549  0.31324  1.0000
  H   H2365     1.0  0.52609  0.14283  0.47160  1.0000
  C   C2966     1.0  0.62635  0.23672  0.37698  1.0000
  C   C2967     1.0  0.50700  0.06568  0.34843  1.0000
  C   C2968     1.0  0.54706  0.14683  0.99075  1.0000
  C   C2969     1.0  0.59928  0.19856  0.47792  1.0000
  C   C2970     1.0  0.69173  0.20903  0.47170  1.0000
  C   C2971     1.0  0.58597  0.08737  0.98612  1.0000
  H   H2366     1.0  0.72573  0.25033  0.04258  1.0000
  H   H2367     1.0  0.56123  0.17457  0.98785  1.0000
  C   C2972     1.0  0.61477  0.17020  0.46591  1.0000
  H   H2368     1.0  0.69147  0.24531  0.98097  1.0000
  S   S382      1.0  0.72651  0.25164  0.43538  1.0000
  S   S383      1.0  0.51542  0.11047  0.47569  1.0000
  H   H2369     1.0  0.56548  0.00254  0.43678  1.0000
  C   C2973     1.0  0.60778  0.25165  0.03658  1.0000
  C   C2974     1.0  0.68805  0.25001  0.07327  1.0000
  C   C2975     1.0  0.56873  0.00311  0.24558  1.0000
  Fe  Fe189     1.0  0.62412  0.25102  0.14006  1.0000
  Fe  Fe190     1.0  0.53689  0.00334  0.14931  1.0000
  C   C2976     1.0  0.56771  0.06785  0.98050  1.0000
  C   C2977     1.0  0.56278  0.09070  0.98136  1.0000
  C   C2978     1.0  0.55016  0.15908  0.98385  1.0000
  H   H2370     1.0  0.52013  0.17798  0.98093  1.0000
  H   H2371     1.0  0.62228  0.15540  0.47270  1.0000
  C   C2979     1.0  0.55487  0.04943  0.98049  1.0000
  H   H2372     1.0  0.49928  0.04932  0.38110  1.0000
  C   C2980     1.0  0.50053  0.06412  0.39905  1.0000
  C   C2981     1.0  0.66056  0.25220  0.15454  1.0000
  C   C2982     1.0  0.59408  0.25218  0.24338  1.0000
  H   H2373     1.0  0.58336  0.15487  0.98111  1.0000
  H   H2374     1.0  0.54042  0.14227  0.98234  1.0000
  C   C2983     1.0  0.60794  0.17686  0.47848  1.0000
  H   H2375     1.0  0.57000  0.18399  0.47725  1.0000
  H   H2376     1.0  0.57561  0.10619  0.98145  1.0000
  H   H2377     1.0  0.56225  0.06728  0.80795  1.0000
  H   H2378     1.0  0.70040  0.23427  0.51324  1.0000
  C   C2984     1.0  0.51244  0.09260  0.90498  1.0000
  Fe  Fe191     1.0  0.59968  0.24268  0.86524  1.0000
  S   S384      1.0  0.58018  0.23886  0.87198  1.0000
  H   H2379     1.0  0.64084  0.23211  0.70306  1.0000
  H   H2380     1.0  0.50046  0.05095  0.91506  1.0000
  C   C2985     1.0  0.58595  0.00952  0.71449  1.0000
  H   H2381     1.0  0.60178  0.07028  0.81653  1.0000
  C   C2986     1.0  0.64802  0.23492  0.56079  1.0000
  C   C2987     1.0  0.53119  0.07844  0.81848  1.0000
  H   H2382     1.0  0.72245  0.24194  0.75396  1.0000
  H   H2383     1.0  0.56067  0.14425  0.63134  1.0000
  S   S385      1.0  0.61507  0.24351  0.63953  1.0000
  H   H2384     1.0  0.68061  0.20956  0.80105  1.0000
  C   C2988     1.0  0.60130  0.19752  0.92222  1.0000
  H   H2385     1.0  0.51181  0.02577  0.68314  1.0000
  C   C2989     1.0  0.69867  0.23599  0.80971  1.0000
  S   S386      1.0  0.54768  0.00749  0.68081  1.0000
  H   H2386     1.0  0.58101  0.02879  0.82900  1.0000
  C   C2990     1.0  0.59941  0.09261  0.56812  1.0000
  C   C2991     1.0  0.60035  0.12915  0.57290  1.0000
  C   C2992     1.0  0.55644  0.09422  0.52637  1.0000
  C   C2993     1.0  0.58754  0.08129  0.54444  1.0000
  H   H2387     1.0  0.60340  0.12955  0.49348  1.0000
  C   C2994     1.0  0.56287  0.19473  0.91553  1.0000
  C   C2995     1.0  0.56440  0.17887  0.49786  1.0000
  H   H2388     1.0  0.50158  0.08531  0.85146  1.0000
  H   H2389     1.0  0.55557  0.00610  0.90026  1.0000
  C   C2996     1.0  0.53603  0.06834  0.53143  1.0000
  C   C2997     1.0  0.60307  0.05238  0.82288  1.0000
  H   H2390     1.0  0.51293  0.09934  0.91655  1.0000
  C   C2998     1.0  0.53897  0.07680  0.77096  1.0000
  S   S387      1.0  0.59899  0.22914  0.90452  1.0000
  S   S388      1.0  0.60940  0.24846  0.95648  1.0000
  C   C2999     1.0  0.59714  0.06120  0.81971  1.0000
  C   C3000     1.0  0.58530  0.03783  0.82693  1.0000
  Fe  Fe192     1.0  0.53280  0.12494  0.86399  1.0000
  S   S389      1.0  0.53900  0.11378  0.89696  1.0000
  S   S390      1.0  0.52936  0.11597  0.82773  1.0000
  Fe  Fe193     1.0  0.53832  0.14591  0.89249  1.0000
  S   S391      1.0  0.54464  0.13554  0.92662  1.0000
  S   S392      1.0  0.53862  0.16528  0.89099  1.0000
  Fe  Fe194     1.0  0.55372  0.12937  0.89070  1.0000
  S   S393      1.0  0.57169  0.12647  0.88519  1.0000
  Fe  Fe195     1.0  0.52924  0.12071  0.93025  1.0000
  H   H2391     1.0  0.56511  0.02707  0.87677  1.0000
  S   S394      1.0  0.54842  0.14043  0.85604  1.0000
  S   S395      1.0  0.52199  0.13129  0.89801  1.0000
  S   S396      1.0  0.51725  0.06563  0.65394  1.0000
  H   H2392     1.0  0.52139  0.06783  0.90150  1.0000
  S   S397      1.0  0.52276  0.08899  0.67824  1.0000
  H   H2393     1.0  0.53977  0.11159  0.62691  1.0000
  Fe  Fe196     1.0  0.51335  0.08341  0.64655  1.0000
  S   S398      1.0  0.52187  0.09638  0.60225  1.0000
  Fe  Fe197     1.0  0.52533  0.07086  0.68757  1.0000
  S   S399      1.0  0.54224  0.06735  0.69457  1.0000
  S   S400      1.0  0.50897  0.06304  0.72235  1.0000
  Fe  Fe198     1.0  0.61115  0.09400  0.65987  1.0000
  S   S401      1.0  0.60574  0.10608  0.62689  1.0000
  S   S402      1.0  0.60903  0.07421  0.66216  1.0000
  Fe  Fe199     1.0  0.61861  0.11391  0.69072  1.0000
  S   S403      1.0  0.61346  0.12696  0.65915  1.0000
  S   S404      1.0  0.62158  0.11685  0.73434  1.0000
  Fe  Fe200     1.0  0.59778  0.11257  0.66342  1.0000
  S   S405      1.0  0.57980  0.11552  0.66936  1.0000
  Fe  Fe201     1.0  0.62204  0.11960  0.62425  1.0000
  S   S406      1.0  0.63168  0.13384  0.58256  1.0000
  S   S407      1.0  0.60208  0.09981  0.69662  1.0000
  S   S408      1.0  0.62832  0.10721  0.65548  1.0000
  Fe  Fe202     1.0  0.64547  0.15403  0.84949  1.0000
  S   S409      1.0  0.64360  0.17237  0.84924  1.0000
  S   S410      1.0  0.64685  0.14972  0.80516  1.0000
  Fe  Fe203     1.0  0.64226  0.14844  0.91551  1.0000
  S   S411      1.0  0.63950  0.16615  0.91819  1.0000
  H   H2394     1.0  0.59726  0.01621  0.77790  1.0000
  Fe  Fe204     1.0  0.62865  0.16357  0.88721  1.0000
  S   S412      1.0  0.61148  0.16835  0.88949  1.0000
  Fe  Fe205     1.0  0.65503  0.17363  0.87992  1.0000
  S   S413      1.0  0.66677  0.19243  0.87378  1.0000
  S   S414      1.0  0.63011  0.14536  0.88729  1.0000
  S   S415      1.0  0.65827  0.15579  0.87760  1.0000
  C   C3001     1.0  0.62868  0.12623  0.75355  1.0000
  C   C3002     1.0  0.63823  0.13600  0.74011  1.0000
  C   C3003     1.0  0.64359  0.14294  0.75619  1.0000
  C   C3004     1.0  0.63947  0.14049  0.78607  1.0000
  C   C3005     1.0  0.62974  0.13089  0.79946  1.0000
  C   C3006     1.0  0.62452  0.12380  0.78343  1.0000
  H   H2395     1.0  0.64163  0.13811  0.71729  1.0000
  H   H2396     1.0  0.65107  0.15028  0.74531  1.0000
  H   H2397     1.0  0.62633  0.12880  0.82227  1.0000
  H   H2398     1.0  0.61710  0.11640  0.79431  1.0000
  C   C3007     1.0  0.63429  0.13423  0.54559  1.0000
  C   C3008     1.0  0.63468  0.12423  0.53556  1.0000
  C   C3009     1.0  0.63810  0.12526  0.50598  1.0000
  C   C3010     1.0  0.55201  0.08672  0.97542  1.0000
  C   C3011     1.0  0.64002  0.14616  0.49600  1.0000
  C   C3012     1.0  0.63688  0.14516  0.52555  1.0000
  H   H2399     1.0  0.63282  0.11576  0.55057  1.0000
  H   H2400     1.0  0.63876  0.11751  0.49859  1.0000
  C   C3013     1.0  0.51980  0.04453  0.86386  1.0000
  H   H2401     1.0  0.63669  0.15296  0.53302  1.0000
  C   C3014     1.0  0.55272  0.08054  0.68989  1.0000
  C   C3015     1.0  0.54930  0.09051  0.69494  1.0000
  C   C3016     1.0  0.55765  0.10123  0.68894  1.0000
  C   C3017     1.0  0.56949  0.10195  0.67852  1.0000
  C   C3018     1.0  0.57300  0.09182  0.67513  1.0000
  C   C3019     1.0  0.56460  0.08114  0.68072  1.0000
  H   H2402     1.0  0.54027  0.08994  0.70413  1.0000
  H   H2403     1.0  0.55489  0.10893  0.69246  1.0000
  H   H2404     1.0  0.58216  0.09229  0.66736  1.0000
  H   H2405     1.0  0.56728  0.07347  0.67685  1.0000
  C   C3020     1.0  0.58050  0.04654  0.64384  1.0000
  C   C3021     1.0  0.59076  0.04388  0.64907  1.0000
  C   C3022     1.0  0.59929  0.05235  0.65501  1.0000
  C   C3023     1.0  0.59778  0.06363  0.65563  1.0000
  C   C3024     1.0  0.58742  0.06616  0.65105  1.0000
  C   C3025     1.0  0.57884  0.05767  0.64543  1.0000
  H   H2406     1.0  0.60726  0.05023  0.65850  1.0000
  H   H2407     1.0  0.58616  0.07478  0.65119  1.0000
  H   H2408     1.0  0.57089  0.05977  0.64191  1.0000
  C   C3026     1.0  0.51747  0.10612  0.51054  1.0000
  C   C3027     1.0  0.50764  0.10046  0.53364  1.0000
  C   C3028     1.0  0.50881  0.09713  0.56170  1.0000
  C   C3029     1.0  0.51987  0.09944  0.56708  1.0000
  C   C3030     1.0  0.52970  0.10502  0.54392  1.0000
  C   C3031     1.0  0.52853  0.10825  0.51586  1.0000
  H   H2409     1.0  0.64343  0.23928  0.76466  1.0000
  C   C3032     1.0  0.53704  0.13997  0.53009  1.0000
  H   H2410     1.0  0.53830  0.10691  0.54766  1.0000
  S   S416      1.0  0.54889  0.01330  0.61271  1.0000
  C   C3033     1.0  0.52164  0.10911  0.80531  1.0000
  C   C3034     1.0  0.50952  0.10731  0.80919  1.0000
  H   H2411     1.0  0.62757  0.25147  0.76642  1.0000
  C   C3035     1.0  0.50975  0.09748  0.77008  1.0000
  C   C3036     1.0  0.52191  0.09938  0.76593  1.0000
  C   C3037     1.0  0.52776  0.10517  0.78326  1.0000
  H   H2412     1.0  0.50812  0.01743  0.52165  1.0000
  C   C3038     1.0  0.53664  0.14364  0.50164  1.0000
  H   H2413     1.0  0.52682  0.09640  0.74934  1.0000
  H   H2414     1.0  0.53713  0.10662  0.77944  1.0000
  C   C3039     1.0  0.58254  0.13895  0.88318  1.0000
  C   C3040     1.0  0.57970  0.14822  0.89376  1.0000
  C   C3041     1.0  0.58865  0.15753  0.89464  1.0000
  C   C3042     1.0  0.60040  0.15764  0.88455  1.0000
  C   C3043     1.0  0.60315  0.14882  0.87205  1.0000
  C   C3044     1.0  0.59425  0.13936  0.87194  1.0000
  H   H2415     1.0  0.57066  0.14805  0.90207  1.0000
  H   H2416     1.0  0.58648  0.16448  0.90381  1.0000
  H   H2417     1.0  0.61213  0.14913  0.86295  1.0000
  H   H2418     1.0  0.59646  0.13231  0.86326  1.0000
  C   C3045     1.0  0.51981  0.00625  0.52839  1.0000
  C   C3046     1.0  0.68346  0.18787  0.48649  1.0000
  H   H2419     1.0  0.58942  0.13545  0.60310  1.0000
  C   C3047     1.0  0.60066  0.12213  0.55371  1.0000
  H   H2420     1.0  0.61229  0.05461  0.82230  1.0000
  C   C3048     1.0  0.52812  0.03903  0.66486  1.0000
  C   C3049     1.0  0.58700  0.18472  0.83602  1.0000
  C   C3050     1.0  0.51713  0.07477  0.89639  1.0000
  H   H2421     1.0  0.50636  0.02703  0.63771  1.0000
  C   C3051     1.0  0.65277  0.24223  0.76185  1.0000
  C   C3052     1.0  0.64412  0.20070  0.94323  1.0000
  H   H2422     1.0  0.61965  0.25091  0.53973  1.0000
  S   S417      1.0  0.57005  0.03698  0.63233  1.0000
  H   H2423     1.0  0.63507  0.20549  0.89457  1.0000
  H   H2424     1.0  0.52819  0.06398  0.75652  1.0000
  C   C3053     1.0  0.52667  0.13355  0.55074  1.0000
  C   C3054     1.0  0.55044  0.13758  0.57587  1.0000
  C   C3055     1.0  0.58302  0.19230  0.85119  1.0000
  H   H2425     1.0  0.50987  0.12718  0.96236  1.0000
  C   C3056     1.0  0.69660  0.21396  0.90377  1.0000
  C   C3057     1.0  0.69011  0.21951  0.88747  1.0000
  C   C3058     1.0  0.68122  0.21281  0.87823  1.0000
  C   C3059     1.0  0.67841  0.20040  0.88558  1.0000
  C   C3060     1.0  0.68480  0.19483  0.90220  1.0000
  C   C3061     1.0  0.69381  0.20155  0.91103  1.0000
  H   H2426     1.0  0.69194  0.22899  0.88207  1.0000
  H   H2427     1.0  0.67636  0.21729  0.86562  1.0000
  H   H2428     1.0  0.68286  0.18534  0.90812  1.0000
  H   H2429     1.0  0.54067  0.12020  0.57691  1.0000
  C   C3062     1.0  0.56894  0.13046  0.48070  1.0000
  H   H2430     1.0  0.68835  0.25034  0.57913  1.0000
  C   C3063     1.0  0.55981  0.13278  0.49910  1.0000
  H   H2431     1.0  0.66055  0.22643  0.48975  1.0000
  H   H2432     1.0  0.58250  0.08076  0.52894  1.0000
  C   C3064     1.0  0.52039  0.06392  0.79972  1.0000
  C   C3065     1.0  0.67329  0.21309  0.76461  1.0000
  C   C3066     1.0  0.54373  0.00882  0.48186  1.0000
  H   H2433     1.0  0.69643  0.23630  0.83170  1.0000
  C   C3067     1.0  0.53995  0.08216  0.79303  1.0000
  C   C3068     1.0  0.60353  0.09995  0.95113  1.0000
  C   C3069     1.0  0.54683  0.06643  0.87385  1.0000
  C   C3070     1.0  0.57356  0.00512  0.80372  1.0000
  H   H2434     1.0  0.50292  0.10055  0.87772  1.0000
  C   C3071     1.0  0.59222  0.24367  0.53070  1.0000
  C   C3072     1.0  0.59498  0.24300  0.50230  1.0000
  C   C3073     1.0  0.52912  0.06779  0.77415  1.0000
  C   C3074     1.0  0.51445  0.07108  0.55841  1.0000
  H   H2435     1.0  0.67157  0.22444  0.94111  1.0000
  H   H2436     1.0  0.58807  0.24072  0.49212  1.0000
  C   C3075     1.0  0.65339  0.22092  0.94039  1.0000
  H   H2437     1.0  0.52019  0.01671  0.59741  1.0000
  C   C3076     1.0  0.55017  0.12737  0.63230  1.0000
  C   C3077     1.0  0.69390  0.23807  0.52373  1.0000
  H   H2438     1.0  0.59753  0.06345  0.59121  1.0000
  C   C3078     1.0  0.55893  0.18451  0.51655  1.0000
  H   H2439     1.0  0.56143  0.04086  0.94894  1.0000
  C   C3079     1.0  0.64112  0.23582  0.51816  1.0000
  C   C3080     1.0  0.51771  0.08342  0.91147  1.0000
  C   C3081     1.0  0.59805  0.02488  0.76488  1.0000
  H   H2440     1.0  0.56620  0.09462  0.55769  1.0000
  C   C3082     1.0  0.56399  0.18309  0.92204  1.0000
  C   C3083     1.0  0.55702  0.17409  0.91372  1.0000
  C   C3084     1.0  0.54849  0.17648  0.89968  1.0000
  C   C3085     1.0  0.54742  0.18813  0.89311  1.0000
  C   C3086     1.0  0.55463  0.19720  0.90063  1.0000
  C   C3087     1.0  0.56312  0.04843  0.95753  1.0000
  H   H2441     1.0  0.55812  0.16525  0.91863  1.0000
  H   H2442     1.0  0.54092  0.19016  0.88215  1.0000
  H   H2443     1.0  0.55356  0.20604  0.89556  1.0000
  H   H2444     1.0  0.53052  0.03847  0.68481  1.0000
  H   H2445     1.0  0.69839  0.22876  0.96783  1.0000
  H   H2446     1.0  0.52706  0.02952  0.87060  1.0000
  C   C3088     1.0  0.70076  0.19658  0.50016  1.0000
  H   H2447     1.0  0.53224  0.07624  0.49236  1.0000
  C   C3089     1.0  0.50630  0.04635  0.90509  1.0000
  C   C3090     1.0  0.58049  0.13467  0.48147  1.0000
  H   H2448     1.0  0.53821  0.00372  0.83380  1.0000
  C   C3091     1.0  0.59870  0.13172  0.94606  1.0000
  C   C3092     1.0  0.66220  0.14644  0.57047  1.0000
  C   C3093     1.0  0.62992  0.22952  0.53473  1.0000
  C   C3094     1.0  0.52142  0.06918  0.82217  1.0000
  C   C3095     1.0  0.51370  0.01821  0.55967  1.0000
  C   C3096     1.0  0.55049  0.05086  0.75579  1.0000
  H   H2449     1.0  0.58537  0.06249  0.55697  1.0000
  H   H2450     1.0  0.58009  0.05630  0.92829  1.0000
  H   H2451     1.0  0.52127  0.14786  0.94008  1.0000
  C   C3097     1.0  0.65460  0.19768  0.94466  1.0000
  C   C3098     1.0  0.64092  0.13623  0.48596  1.0000
  C   C3099     1.0  0.51759  0.03193  0.66394  1.0000
  C   C3100     1.0  0.63252  0.22775  0.71840  1.0000
  H   H2452     1.0  0.57400  0.19003  0.86331  1.0000
  H   H2453     1.0  0.58108  0.17650  0.83683  1.0000
  C   C3101     1.0  0.54668  0.02609  0.73054  1.0000
  H   H2454     1.0  0.70272  0.24096  0.55620  1.0000
  H   H2455     1.0  0.55095  0.12931  0.49820  1.0000
  C   C3102     1.0  0.60707  0.03424  0.76490  1.0000
  H   H2456     1.0  0.54806  0.09050  0.54187  1.0000
  H   H2457     1.0  0.60384  0.01936  0.70878  1.0000
  C   C3103     1.0  0.60136  0.04718  0.72924  1.0000
  S   S418      1.0  0.72547  0.24937  0.94123  1.0000
  C   C3104     1.0  0.60301  0.11121  0.49692  1.0000
  C   C3105     1.0  0.61552  0.24782  0.50109  1.0000
  C   C3106     1.0  0.55158  0.04770  0.78363  1.0000
  C   C3107     1.0  0.59241  0.03783  0.72899  1.0000
  C   C3108     1.0  0.57593  0.06681  0.95731  1.0000
  H   H2458     1.0  0.54442  0.14889  0.48539  1.0000
  C   C3109     1.0  0.52127  0.03424  0.88022  1.0000
  C   C3110     1.0  0.54986  0.08837  0.61171  1.0000
  C   C3111     1.0  0.56106  0.08853  0.61518  1.0000
  C   C3112     1.0  0.56638  0.07982  0.60849  1.0000
  C   C3113     1.0  0.56050  0.07093  0.59833  1.0000
  C   C3114     1.0  0.54937  0.07095  0.59391  1.0000
  C   C3115     1.0  0.54406  0.07965  0.60112  1.0000
  P   P101      1.0  0.54131  0.05911  0.58269  1.0000
  C   C3116     1.0  0.53222  0.06484  0.56131  1.0000
  C   C3117     1.0  0.55129  0.05294  0.56168  1.0000
  C   C3118     1.0  0.56112  0.06040  0.54084  1.0000
  C   C3119     1.0  0.56877  0.05572  0.52405  1.0000
  C   C3120     1.0  0.56669  0.04356  0.52806  1.0000
  C   C3121     1.0  0.55689  0.03609  0.54861  1.0000
  C   C3122     1.0  0.54920  0.04074  0.56542  1.0000
  C   C3123     1.0  0.53230  0.04809  0.61423  1.0000
  C   C3124     1.0  0.53549  0.04705  0.64011  1.0000
  H   H2459     1.0  0.52461  0.16154  0.96928  1.0000
  C   C3125     1.0  0.59526  0.24821  0.76434  1.0000
  H   H2460     1.0  0.51639  0.02201  0.92161  1.0000
  C   C3126     1.0  0.52186  0.04067  0.61332  1.0000
  H   H2461     1.0  0.54555  0.09488  0.61764  1.0000
  H   H2462     1.0  0.56553  0.09531  0.62342  1.0000
  H   H2463     1.0  0.57498  0.07984  0.61174  1.0000
  H   H2464     1.0  0.56453  0.06393  0.59459  1.0000
  H   H2465     1.0  0.53535  0.07965  0.59898  1.0000
  H   H2466     1.0  0.56275  0.06983  0.53747  1.0000
  H   H2467     1.0  0.57636  0.06151  0.50805  1.0000
  H   H2468     1.0  0.57270  0.03989  0.51540  1.0000
  H   H2469     1.0  0.55532  0.02665  0.55176  1.0000
  H   H2470     1.0  0.54174  0.03478  0.58142  1.0000
  H   H2471     1.0  0.54434  0.06747  0.52036  1.0000
  H   H2472     1.0  0.54353  0.05254  0.64151  1.0000
  C   C3127     1.0  0.51108  0.07516  0.87497  1.0000
  C   C3128     1.0  0.66675  0.15175  0.51902  1.0000
  H   H2473     1.0  0.54268  0.01450  0.49593  1.0000
  H   H2474     1.0  0.51931  0.04116  0.59356  1.0000
  C   C3129     1.0  0.59073  0.08867  0.76819  1.0000
  C   C3130     1.0  0.58344  0.08229  0.75512  1.0000
  C   C3131     1.0  0.57368  0.08591  0.74944  1.0000
  C   C3132     1.0  0.57116  0.09588  0.75699  1.0000
  C   C3133     1.0  0.57843  0.10234  0.77020  1.0000
  C   C3134     1.0  0.58820  0.09862  0.77586  1.0000
  P   P102      1.0  0.57440  0.11417  0.78383  1.0000
  C   C3135     1.0  0.56707  0.10745  0.82078  1.0000
  C   C3136     1.0  0.58715  0.12570  0.77989  1.0000
  C   C3137     1.0  0.58746  0.13241  0.79989  1.0000
  C   C3138     1.0  0.59725  0.14162  0.79613  1.0000
  C   C3139     1.0  0.60666  0.14431  0.77222  1.0000
  C   C3140     1.0  0.60623  0.13791  0.75181  1.0000
  C   C3141     1.0  0.59653  0.12862  0.75562  1.0000
  C   C3142     1.0  0.55484  0.10352  0.82972  1.0000
  C   C3143     1.0  0.54928  0.09794  0.85825  1.0000
  C   C3144     1.0  0.55589  0.09619  0.87806  1.0000
  C   C3145     1.0  0.56808  0.09984  0.86919  1.0000
  C   C3146     1.0  0.57367  0.10538  0.84062  1.0000
  C   C3147     1.0  0.56570  0.12142  0.76425  1.0000
  C   C3148     1.0  0.56779  0.12280  0.73482  1.0000
  C   C3149     1.0  0.56121  0.12854  0.71936  1.0000
  C   C3150     1.0  0.55260  0.13313  0.73315  1.0000
  C   C3151     1.0  0.55084  0.13228  0.76224  1.0000
  C   C3152     1.0  0.55751  0.12664  0.77766  1.0000
  H   H2475     1.0  0.59861  0.08623  0.77136  1.0000
  H   H2476     1.0  0.58567  0.07489  0.74813  1.0000
  H   H2477     1.0  0.56827  0.08120  0.73839  1.0000
  H   H2478     1.0  0.56367  0.09864  0.75199  1.0000
  H   H2479     1.0  0.59402  0.10352  0.78573  1.0000
  H   H2480     1.0  0.58016  0.13059  0.81833  1.0000
  H   H2481     1.0  0.59753  0.14670  0.81173  1.0000
  H   H2482     1.0  0.61429  0.15130  0.76948  1.0000
  H   H2483     1.0  0.61352  0.13999  0.73324  1.0000
  H   H2484     1.0  0.59642  0.12372  0.73960  1.0000
  H   H2485     1.0  0.54953  0.10487  0.81487  1.0000
  H   H2486     1.0  0.53981  0.09541  0.86503  1.0000
  H   H2487     1.0  0.67080  0.18852  0.81646  1.0000
  H   H2488     1.0  0.57321  0.09887  0.88461  1.0000
  H   H2489     1.0  0.58312  0.10832  0.83417  1.0000
  H   H2490     1.0  0.57460  0.11951  0.72376  1.0000
  H   H2491     1.0  0.56286  0.12944  0.69666  1.0000
  H   H2492     1.0  0.54738  0.13745  0.72130  1.0000
  H   H2493     1.0  0.54424  0.13591  0.77303  1.0000
  H   H2494     1.0  0.55618  0.12634  0.80004  1.0000
  C   C3153     1.0  0.59715  0.04070  0.82657  1.0000
  C   C3154     1.0  0.60265  0.17302  0.50788  1.0000
  H   H2495     1.0  0.60178  0.03387  0.82890  1.0000
  H   H2496     1.0  0.54570  0.07980  0.75113  1.0000
  H   H2497     1.0  0.54735  0.08944  0.79014  1.0000
  H   H2498     1.0  0.65570  0.22521  0.76235  1.0000
  S   S419      1.0  0.51879  0.10584  0.96956  1.0000
  H   H2499     1.0  0.59230  0.03543  0.64771  1.0000
  H   H2500     1.0  0.54974  0.03855  0.88409  1.0000
  H   H2501     1.0  0.63662  0.23826  0.95694  1.0000
  H   H2502     1.0  0.57586  0.14888  0.53345  1.0000
  C   C3155     1.0  0.59805  0.01314  0.70174  1.0000
  H   H2503     1.0  0.50866  0.02430  0.56502  1.0000
  H   H2504     1.0  0.53153  0.00259  0.58545  1.0000
  H   H2505     1.0  0.66889  0.24608  0.95574  1.0000
  C   C3156     1.0  0.56671  0.01891  0.73933  1.0000
  P   P103      1.0  0.67304  0.17496  0.48538  1.0000
  H   H2506     1.0  0.54560  0.11281  0.95421  1.0000
  C   C3157     1.0  0.61277  0.24872  0.52937  1.0000
  H   H2507     1.0  0.71718  0.24190  0.80488  1.0000
  H   H2508     1.0  0.57432  0.02774  0.69481  1.0000
  H   H2509     1.0  0.51279  0.05693  0.80181  1.0000
  C   C3158     1.0  0.67767  0.24875  0.54954  1.0000
  H   H2510     1.0  0.50114  0.09301  0.57922  1.0000
  H   H2511     1.0  0.60778  0.10554  0.92989  1.0000
  C   C3159     1.0  0.56207  0.16662  0.50491  1.0000
  C   C3160     1.0  0.62050  0.20671  0.92659  1.0000
  H   H2512     1.0  0.54393  0.04585  0.80117  1.0000
  C   C3161     1.0  0.56246  0.04690  0.78864  1.0000
  C   C3162     1.0  0.55665  0.05188  0.84388  1.0000
  C   C3163     1.0  0.60163  0.16282  0.96400  1.0000
  H   H2513     1.0  0.63978  0.23513  0.83061  1.0000
  C   C3164     1.0  0.60108  0.24651  0.54437  1.0000
  C   C3165     1.0  0.56673  0.02559  0.71261  1.0000
  H   H2514     1.0  0.54100  0.05131  0.90986  1.0000
  C   C3166     1.0  0.62566  0.20319  0.90286  1.0000
  C   C3167     1.0  0.70460  0.23581  0.75246  1.0000
  C   C3168     1.0  0.57382  0.14365  0.51895  1.0000
  C   C3169     1.0  0.51224  0.05065  0.87614  1.0000
  H   H2515     1.0  0.58746  0.20874  0.86215  1.0000
  C   C3170     1.0  0.56670  0.09673  0.53531  1.0000
  C   C3171     1.0  0.55381  0.01026  0.88059  1.0000
  C   C3172     1.0  0.59060  0.20288  0.85029  1.0000
  H   H2516     1.0  0.56964  0.24954  0.61162  1.0000
  C   C3173     1.0  0.57751  0.10216  0.51551  1.0000
  H   H2517     1.0  0.60359  0.10084  0.57148  1.0000
  H   H2518     1.0  0.61403  0.12566  0.94976  1.0000
  C   C3174     1.0  0.51774  0.14485  0.96296  1.0000
  C   C3175     1.0  0.59853  0.18780  0.81943  1.0000
  P   P104      1.0  0.59066  0.10562  0.52765  1.0000
  H   H2519     1.0  0.66477  0.21317  0.73024  1.0000
  C   C3176     1.0  0.68988  0.23255  0.79644  1.0000
  H   H2520     1.0  0.60902  0.12096  0.54354  1.0000
  H   H2521     1.0  0.55158  0.09236  0.90038  1.0000
  C   C3177     1.0  0.69829  0.22345  0.67587  1.0000
  C   C3178     1.0  0.60218  0.20595  0.83393  1.0000
  H   H2522     1.0  0.60123  0.18191  0.80718  1.0000
  H   H2523     1.0  0.64055  0.19582  0.81547  1.0000
  S   S420      1.0  0.59710  0.24660  0.58052  1.0000
  H   H2524     1.0  0.57443  0.01411  0.80499  1.0000
  C   C3179     1.0  0.60630  0.19840  0.81841  1.0000
  H   H2525     1.0  0.65466  0.20543  0.83775  1.0000
  C   C3180     1.0  0.59248  0.09221  0.54865  1.0000
  C   C3181     1.0  0.60120  0.08228  0.58337  1.0000
  H   H2526     1.0  0.60652  0.08265  0.59850  1.0000
  C   C3182     1.0  0.55686  0.02939  0.70848  1.0000
  H   H2527     1.0  0.58310  0.13783  0.94883  1.0000
  C   C3183     1.0  0.58292  0.14117  0.50077  1.0000
  C   C3184     1.0  0.55447  0.15990  0.53114  1.0000
  Fe  Fe206     1.0  0.57936  0.22558  0.91246  1.0000
  C   C3185     1.0  0.54454  0.12066  0.61688  1.0000
  H   H2528     1.0  0.60772  0.21430  0.83324  1.0000
  H   H2529     1.0  0.52460  0.04765  0.84174  1.0000
  C   C3186     1.0  0.64821  0.20979  0.83146  1.0000
  C   C3187     1.0  0.64004  0.20429  0.81892  1.0000
  C   C3188     1.0  0.59024  0.11626  0.54878  1.0000
  C   C3189     1.0  0.59615  0.07146  0.57926  1.0000
  C   C3190     1.0  0.58930  0.07095  0.55988  1.0000
  S   S421      1.0  0.57120  0.20551  0.92870  1.0000
  H   H2530     1.0  0.51815  0.06367  0.59747  1.0000
  C   C3191     1.0  0.69230  0.18667  0.50050  1.0000
  C   C3192     1.0  0.51631  0.13019  0.54271  1.0000
  C   C3193     1.0  0.62381  0.18009  0.80700  1.0000
  H   H2531     1.0  0.62074  0.17995  0.82915  1.0000
  H   H2532     1.0  0.62664  0.16271  0.81699  1.0000
  C   C3194     1.0  0.57363  0.05712  0.94594  1.0000
  C   C3195     1.0  0.63675  0.22885  0.57732  1.0000
  C   C3196     1.0  0.57227  0.04968  0.76539  1.0000
  C   C3197     1.0  0.61134  0.17117  0.96480  1.0000
  C   C3198     1.0  0.57117  0.05308  0.73761  1.0000
  C   C3199     1.0  0.52131  0.06619  0.57457  1.0000
  H   H2533     1.0  0.57874  0.05545  0.71956  1.0000
  Fe  Fe207     1.0  0.50026  0.05894  0.68795  1.0000
  H   H2534     1.0  0.59675  0.17748  0.51801  1.0000
  H   H2535     1.0  0.70717  0.23628  0.73004  1.0000
  P   P105      1.0  0.62086  0.20286  0.79459  1.0000
  C   C3200     1.0  0.63150  0.20975  0.81109  1.0000
  C   C3201     1.0  0.62467  0.19004  0.78536  1.0000
  C   C3202     1.0  0.62712  0.17031  0.80023  1.0000
  C   C3203     1.0  0.63128  0.17036  0.77188  1.0000
  C   C3204     1.0  0.63169  0.17999  0.75017  1.0000
  C   C3205     1.0  0.62837  0.18979  0.75681  1.0000
  C   C3206     1.0  0.64807  0.22084  0.83594  1.0000
  H   H2536     1.0  0.63412  0.16288  0.76679  1.0000
  H   H2537     1.0  0.65443  0.22507  0.84560  1.0000
  H   H2538     1.0  0.60257  0.21218  0.77264  1.0000
  H   H2539     1.0  0.56593  0.16245  0.48944  1.0000
  C   C3207     1.0  0.51843  0.07477  0.52882  1.0000
  C   C3208     1.0  0.55921  0.02212  0.86716  1.0000
  H   H2540     1.0  0.58081  0.04935  0.76854  1.0000
  C   C3209     1.0  0.54927  0.02086  0.82983  1.0000
  C   C3210     1.0  0.66383  0.21783  0.94200  1.0000
  C   C3211     1.0  0.52917  0.07332  0.51533  1.0000
  C   C3212     1.0  0.70049  0.20775  0.48568  1.0000
  C   C3213     1.0  0.60824  0.20394  0.93596  1.0000
  H   H2541     1.0  0.50846  0.12483  0.55853  1.0000
  P   P106      1.0  0.51025  0.06402  0.85538  1.0000
  C   C3214     1.0  0.60663  0.24485  0.48756  1.0000
  H   H2542     1.0  0.63466  0.17986  0.72817  1.0000
  H   H2543     1.0  0.62870  0.19706  0.73955  1.0000
  C   C3215     1.0  0.57959  0.11802  0.56252  1.0000
  H   H2544     1.0  0.57140  0.11397  0.55895  1.0000
  H   H2545     1.0  0.61134  0.19797  0.50470  1.0000
  H   H2546     1.0  0.70357  0.21770  0.66947  1.0000
  H   H2547     1.0  0.57037  0.18102  0.93330  1.0000
  C   C3216     1.0  0.68712  0.24717  0.56080  1.0000
  H   H2548     1.0  0.59187  0.14441  0.50132  1.0000
  H   H2549     1.0  0.58666  0.09596  0.94270  1.0000
  C   C3217     1.0  0.63161  0.22099  0.81513  1.0000
  C   C3218     1.0  0.62126  0.21367  0.76297  1.0000
  C   C3219     1.0  0.61099  0.21641  0.75776  1.0000
  C   C3220     1.0  0.60810  0.10339  0.48438  1.0000
  Fe  Fe208     1.0  0.56136  0.01715  0.63990  1.0000
  S   S422      1.0  0.50156  0.08973  0.74982  1.0000
  C   C3221     1.0  0.57934  0.12501  0.58175  1.0000
  H   H2550     1.0  0.68383  0.23686  0.49330  1.0000
  C   C3222     1.0  0.63978  0.22645  0.82771  1.0000
  H   H2551     1.0  0.67966  0.24440  0.69818  1.0000
  H   H2552     1.0  0.59186  0.19554  0.92912  1.0000
  C   C3223     1.0  0.57917  0.04660  0.82448  1.0000
  C   C3224     1.0  0.58524  0.05834  0.82052  1.0000
  H   H2553     1.0  0.54593  0.16398  0.97008  1.0000
  H   H2554     1.0  0.60165  0.13485  0.92317  1.0000
  C   C3225     1.0  0.55633  0.14421  0.59132  1.0000
  C   C3226     1.0  0.52020  0.01398  0.57791  1.0000
  H   H2555     1.0  0.66701  0.14889  0.49973  1.0000
  H   H2556     1.0  0.61573  0.05265  0.74696  1.0000
  C   C3227     1.0  0.61153  0.22475  0.73298  1.0000
  H   H2557     1.0  0.60362  0.22695  0.72910  1.0000
  Fe  Fe209     1.0  0.50608  0.08118  0.71232  1.0000
  H   H2558     1.0  0.54313  0.07209  0.88539  1.0000
  H   H2559     1.0  0.69281  0.17804  0.51121  1.0000
  H   H2560     1.0  0.69869  0.19706  0.92364  1.0000
  C   C3228     1.0  0.51613  0.13348  0.51419  1.0000
  C   C3229     1.0  0.61690  0.16039  0.48261  1.0000
  H   H2561     1.0  0.58317  0.24189  0.54223  1.0000
  H   H2562     1.0  0.62552  0.22570  0.80811  1.0000
  Fe  Fe210     1.0  0.71643  0.24177  0.91054  1.0000
  C   C3230     1.0  0.54490  0.12565  0.58860  1.0000
  C   C3231     1.0  0.55698  0.02755  0.84163  1.0000
  H   H2563     1.0  0.60247  0.15785  0.94816  1.0000
  C   C3232     1.0  0.66313  0.14317  0.54492  1.0000
  C   C3233     1.0  0.63201  0.21943  0.74313  1.0000
  H   H2564     1.0  0.50315  0.03279  0.94368  1.0000
  H   H2565     1.0  0.63996  0.21727  0.74654  1.0000
  C   C3234     1.0  0.60866  0.04541  0.74727  1.0000
  H   H2566     1.0  0.58091  0.06537  0.81773  1.0000
  H   H2567     1.0  0.61301  0.03278  0.77812  1.0000
  H   H2568     1.0  0.67046  0.17611  0.54456  1.0000
  H   H2569     1.0  0.66412  0.16082  0.59009  1.0000
  H   H2570     1.0  0.56112  0.15328  0.58172  1.0000
  H   H2571     1.0  0.62264  0.23689  0.69427  1.0000
  C   C3235     1.0  0.60978  0.24753  0.79153  1.0000
  H   H2572     1.0  0.60284  0.05577  0.71485  1.0000
  P   P107      1.0  0.56385  0.04299  0.82470  1.0000
  H   H2573     1.0  0.57106  0.12593  0.59308  1.0000
  H   H2574     1.0  0.65524  0.18875  0.94543  1.0000
  C   C3236     1.0  0.71040  0.23918  0.79456  1.0000
  P   P108      1.0  0.66442  0.24775  0.50976  1.0000
  C   C3237     1.0  0.62227  0.23040  0.71333  1.0000
  C   C3238     1.0  0.56027  0.05348  0.73286  1.0000
  H   H2575     1.0  0.54736  0.02472  0.81028  1.0000
  H   H2576     1.0  0.55936  0.05572  0.71130  1.0000
  C   C3239     1.0  0.54585  0.09470  0.96568  1.0000
  C   C3240     1.0  0.63152  0.24576  0.88159  1.0000
  C   C3241     1.0  0.65029  0.23855  0.53107  1.0000
  C   C3242     1.0  0.67693  0.25005  0.75325  1.0000
  H   H2577     1.0  0.62268  0.19375  0.87152  1.0000
  C   C3243     1.0  0.62770  0.22618  0.56432  1.0000
  H   H2578     1.0  0.65817  0.17954  0.78897  1.0000
  H   H2579     1.0  0.61891  0.22173  0.57723  1.0000
  C   C3244     1.0  0.55763  0.06361  0.83019  1.0000
  H   H2580     1.0  0.54209  0.05131  0.75172  1.0000
  S   S423      1.0  0.70805  0.22196  0.91604  1.0000
  C   C3245     1.0  0.66226  0.18892  0.78240  1.0000
  H   H2581     1.0  0.63661  0.19390  0.94387  1.0000
  H   H2582     1.0  0.65510  0.19194  0.74621  1.0000
  H   H2583     1.0  0.63501  0.22651  0.60033  1.0000
  Fe  Fe211     1.0  0.59789  0.24308  0.92814  1.0000
  H   H2584     1.0  0.53599  0.19599  0.95746  1.0000
  C   C3246     1.0  0.66051  0.19591  0.75830  1.0000
  C   C3247     1.0  0.66941  0.19397  0.79778  1.0000
  C   C3248     1.0  0.67619  0.24488  0.52537  1.0000
  H   H2585     1.0  0.65478  0.23704  0.57151  1.0000
  S   S424      1.0  0.51752  0.00357  0.66287  1.0000
  C   C3249     1.0  0.66951  0.16373  0.51848  1.0000
  H   H2586     1.0  0.60115  0.18869  0.88873  1.0000
  C   C3250     1.0  0.55616  0.13911  0.61945  1.0000
  H   H2587     1.0  0.62971  0.24787  0.86092  1.0000
  C   C3251     1.0  0.50782  0.03608  0.92139  1.0000
  P   P109      1.0  0.57965  0.01434  0.74486  1.0000
  H   H2588     1.0  0.53898  0.02881  0.72691  1.0000
  C   C3252     1.0  0.57567  0.00254  0.77711  1.0000
  C   C3253     1.0  0.54623  0.00368  0.86855  1.0000
  C   C3254     1.0  0.55287  0.07085  0.84522  1.0000
  C   C3255     1.0  0.55065  0.04751  0.87280  1.0000
  H   H2589     1.0  0.55399  0.07994  0.83454  1.0000
  S   S425      1.0  0.57832  0.23880  0.93927  1.0000
  C   C3256     1.0  0.56120  0.11079  0.96700  1.0000
  C   C3257     1.0  0.51131  0.13324  0.97545  1.0000
  C   C3258     1.0  0.68444  0.23957  0.51247  1.0000
  C   C3259     1.0  0.59049  0.02666  0.74724  1.0000
  H   H2590     1.0  0.62703  0.22725  0.88572  1.0000
  H   H2591     1.0  0.56481  0.12016  0.96300  1.0000
  C   C3260     1.0  0.66600  0.20793  0.74940  1.0000
  C   C3261     1.0  0.67494  0.20600  0.78897  1.0000
  H   H2592     1.0  0.64250  0.23884  0.49536  1.0000
  C   C3262     1.0  0.59947  0.20829  0.51624  1.0000
  H   H2593     1.0  0.53745  0.09165  0.96151  1.0000
  C   C3263     1.0  0.55115  0.17788  0.54242  1.0000
  C   C3264     1.0  0.71335  0.23911  0.76594  1.0000
  H   H2594     1.0  0.69950  0.23267  0.63287  1.0000
  P   P110      1.0  0.68124  0.22839  0.75072  1.0000
  C   C3265     1.0  0.67192  0.23820  0.75538  1.0000
  C   C3266     1.0  0.58824  0.13334  0.96066  1.0000
  H   H2595     1.0  0.55595  0.01016  0.78197  1.0000
  C   C3267     1.0  0.69523  0.24185  0.54791  1.0000
  C   C3268     1.0  0.66438  0.20620  0.94445  1.0000
  C   C3269     1.0  0.68913  0.23923  0.66355  1.0000
  C   C3270     1.0  0.69279  0.23230  0.76777  1.0000
  C   C3271     1.0  0.68717  0.23009  0.71324  1.0000
  C   C3272     1.0  0.68479  0.23844  0.69241  1.0000
  C   C3273     1.0  0.60718  0.12334  0.48432  1.0000
  H   H2596     1.0  0.68083  0.23015  0.80849  1.0000
  H   H2597     1.0  0.68737  0.24573  0.64753  1.0000
  C   C3274     1.0  0.51340  0.01428  0.53510  1.0000
  H   H2598     1.0  0.60316  0.21039  0.53325  1.0000
  C   C3275     1.0  0.62997  0.23403  0.89587  1.0000
  H   H2599     1.0  0.54902  0.09482  0.49037  1.0000
  C   C3276     1.0  0.54399  0.00897  0.84317  1.0000
  C   C3277     1.0  0.63186  0.23118  0.92314  1.0000
  H   H2600     1.0  0.61959  0.17273  0.94933  1.0000
  H   H2601     1.0  0.69566  0.21592  0.72051  1.0000
  H   H2602     1.0  0.53616  0.11251  0.49835  1.0000
  C   C3278     1.0  0.59815  0.24646  0.79059  1.0000
  C   C3279     1.0  0.65977  0.23431  0.76008  1.0000
  C   C3280     1.0  0.63541  0.24027  0.93571  1.0000
  H   H2603     1.0  0.53844  0.01632  0.77384  1.0000
  C   C3281     1.0  0.55043  0.10670  0.96162  1.0000
  C   C3282     1.0  0.65044  0.17756  0.50366  1.0000
  H   H2604     1.0  0.55697  0.03465  0.68787  1.0000
  H   H2605     1.0  0.58123  0.20817  0.97799  1.0000
  H   H2606     1.0  0.65896  0.13975  0.59052  1.0000
  H   H2607     1.0  0.50618  0.07231  0.56896  1.0000
  C   C3283     1.0  0.58968  0.13045  0.58725  1.0000
  C   C3284     1.0  0.69596  0.23184  0.65527  1.0000
  Fe  Fe212     1.0  0.53610  0.00253  0.65315  1.0000
  C   C3285     1.0  0.69384  0.22251  0.70474  1.0000
  C   C3286     1.0  0.51956  0.15267  0.97985  1.0000
  S   S426      1.0  0.63861  0.13330  0.95549  1.0000
  C   C3287     1.0  0.60563  0.12641  0.96106  1.0000
  H   H2608     1.0  0.62285  0.22761  0.52468  1.0000
  C   C3288     1.0  0.54643  0.01913  0.75696  1.0000
  C   C3289     1.0  0.56733  0.10284  0.97708  1.0000
  H   H2609     1.0  0.67251  0.20384  0.94550  1.0000
  C   C3290     1.0  0.54567  0.05474  0.88762  1.0000
  H   H2610     1.0  0.60094  0.16042  0.54730  1.0000
  C   C3291     1.0  0.61869  0.19671  0.88938  1.0000
  C   C3292     1.0  0.60404  0.20124  0.50008  1.0000
  C   C3293     1.0  0.64055  0.18136  0.49963  1.0000
  C   C3294     1.0  0.51450  0.03268  0.63817  1.0000
  C   C3295     1.0  0.52626  0.14031  0.49372  1.0000
  H   H2611     1.0  0.61043  0.22468  0.96980  1.0000
  H   H2612     1.0  0.61928  0.10276  0.96560  1.0000
  H   H2613     1.0  0.54251  0.16055  0.56932  1.0000
  C   C3296     1.0  0.59020  0.21279  0.51028  1.0000
  C   C3297     1.0  0.59155  0.09453  0.95853  1.0000
  H   H2614     1.0  0.58670  0.21829  0.52273  1.0000
  C   C3298     1.0  0.60652  0.19383  0.89911  1.0000
  H   H2615     1.0  0.54996  0.12342  0.65414  1.0000
  C   C3299     1.0  0.58557  0.21037  0.48796  1.0000
  P   P111      1.0  0.62955  0.21603  0.94225  1.0000
  C   C3300     1.0  0.66503  0.15832  0.57018  1.0000
  H   H2616     1.0  0.65063  0.17348  0.52502  1.0000
  C   C3301     1.0  0.64341  0.21236  0.94112  1.0000
  H   H2617     1.0  0.54671  0.18225  0.55660  1.0000
  H   H2618     1.0  0.63325  0.18007  0.51769  1.0000
  H   H2619     1.0  0.58723  0.03934  0.71395  1.0000
  H   H2620     1.0  0.65318  0.22996  0.93870  1.0000
  C   C3302     1.0  0.56221  0.13966  0.51786  1.0000
  H   H2621     1.0  0.53199  0.08294  0.83497  1.0000
  C   C3303     1.0  0.66866  0.16694  0.54432  1.0000
  C   C3304     1.0  0.57798  0.10431  0.48636  1.0000
  P   P112      1.0  0.55075  0.14404  0.53937  1.0000
  H   H2622     1.0  0.61218  0.01156  0.66955  1.0000
  C   C3305     1.0  0.65989  0.17905  0.48030  1.0000
  C   C3306     1.0  0.62229  0.21403  0.97921  1.0000
  C   C3307     1.0  0.50668  0.09321  0.88329  1.0000
  H   H2623     1.0  0.51326  0.07892  0.51640  1.0000
  H   H2624     1.0  0.58416  0.07335  0.94805  1.0000
  C   C3308     1.0  0.61212  0.15702  0.51198  1.0000
  H   H2625     1.0  0.60395  0.20686  0.95345  1.0000
  H   H2626     1.0  0.60837  0.13325  0.57745  1.0000
  H   H2627     1.0  0.66059  0.13395  0.54526  1.0000
  C   C3309     1.0  0.60287  0.00866  0.67952  1.0000
  H   H2628     1.0  0.70764  0.19559  0.51071  1.0000
  C   C3310     1.0  0.54883  0.16560  0.54960  1.0000
  C   C3311     1.0  0.60487  0.16323  0.52458  1.0000
  H   H2629     1.0  0.61391  0.14948  0.52488  1.0000
  H   H2630     1.0  0.52646  0.13102  0.57301  1.0000
  S   S427      1.0  0.61364  0.24540  0.82431  1.0000
  C   C3312     1.0  0.55643  0.01566  0.76145  1.0000
  C   C3313     1.0  0.51529  0.03002  0.90896  1.0000
  C   C3314     1.0  0.55696  0.09660  0.49742  1.0000
  H   H2631     1.0  0.56048  0.19399  0.51050  1.0000
  H   H2632     1.0  0.59133  0.24413  0.81010  1.0000
  H   H2633     1.0  0.52226  0.08311  0.92814  1.0000
  H   H2634     1.0  0.60503  0.09400  0.49354  1.0000
  H   H2635     1.0  0.57851  0.21402  0.48297  1.0000
  C   C3315     1.0  0.52658  0.00601  0.57128  1.0000
  H   H2636     1.0  0.50819  0.13056  0.50784  1.0000
  S   S428      1.0  0.64984  0.25034  0.61421  1.0000
  C   C3316     1.0  0.63711  0.25200  0.92122  1.0000
  C   C3317     1.0  0.61002  0.09838  0.97123  1.0000
  C   C3318     1.0  0.61854  0.25059  0.76589  1.0000
  C   C3319     1.0  0.60395  0.25112  0.73873  1.0000
  H   H2637     1.0  0.55229  0.20133  0.97931  1.0000
  C   C3320     1.0  0.50368  0.10155  0.79189  1.0000
  C   C3321     1.0  0.53626  0.19027  0.97716  1.0000
  C   C3322     1.0  0.50598  0.08454  0.86836  1.0000
  H   H2638     1.0  0.58619  0.24715  0.76388  1.0000
  H   H2639     1.0  0.50461  0.11037  0.82559  1.0000
  H   H2640     1.0  0.64220  0.15469  0.48109  1.0000
  H   H2641     1.0  0.50173  0.07607  0.80971  1.0000
  H   H2642     1.0  0.58072  0.18748  0.97939  1.0000
  H   H2643     1.0  0.62455  0.24938  0.48972  1.0000
  H   H2644     1.0  0.70721  0.21543  0.48474  1.0000
  H   H2645     1.0  0.54825  0.07748  0.97853  1.0000
  H   H2646     1.0  0.67259  0.40736  0.05095  1.0000
  H   H2647     1.0  0.65579  0.28826  0.29747  1.0000
  C   C3323     1.0  0.65655  0.44204  0.36337  1.0000
  C   C3324     1.0  0.54511  0.40175  0.36346  1.0000
  C   C3325     1.0  0.70271  0.41900  0.08033  1.0000
  H   H2648     1.0  0.65794  0.42150  0.17602  1.0000
  C   C3326     1.0  0.53492  0.38933  0.02101  1.0000
  C   C3327     1.0  0.73618  0.30855  0.26593  1.0000
  Fe  Fe213     1.0  0.60700  0.34716  0.37954  1.0000
  S   S429      1.0  0.61877  0.34588  0.33939  1.0000
  H   H2649     1.0  0.73445  0.28485  0.98610  1.0000
  S   S430      1.0  0.58761  0.34403  0.38667  1.0000
  C   C3328     1.0  0.57307  0.43774  0.00174  1.0000
  S   S431      1.0  0.72326  0.46159  0.42629  1.0000
  S   S432      1.0  0.69974  0.47022  0.42488  1.0000
  Fe  Fe214     1.0  0.71063  0.46747  0.45595  1.0000
  C   C3329     1.0  0.71681  0.41710  0.32118  1.0000
  Fe  Fe215     1.0  0.71343  0.46587  0.39376  1.0000
  S   S433      1.0  0.70991  0.45125  0.37155  1.0000
  Fe  Fe216     1.0  0.64244  0.37063  0.13768  1.0000
  S   S434      1.0  0.62544  0.37583  0.14095  1.0000
  S   S435      1.0  0.66046  0.38308  0.12347  1.0000
  Fe  Fe217     1.0  0.63059  0.34468  0.15864  1.0000
  S   S436      1.0  0.61266  0.34767  0.16355  1.0000
  S   S437      1.0  0.63264  0.32654  0.17539  1.0000
  Fe  Fe218     1.0  0.62012  0.36099  0.12117  1.0000
  S   S438      1.0  0.60794  0.36175  0.09162  1.0000
  Fe  Fe219     1.0  0.61934  0.36210  0.18277  1.0000
  S   S439      1.0  0.60790  0.36489  0.22165  1.0000
  S   S440      1.0  0.63764  0.35677  0.11465  1.0000
  S   S441      1.0  0.63679  0.35818  0.18094  1.0000
  Fe  Fe220     1.0  0.70588  0.44898  0.15609  1.0000
  S   S442      1.0  0.70673  0.43022  0.16074  1.0000
  S   S443      1.0  0.70638  0.46203  0.11552  1.0000
  Fe  Fe221     1.0  0.70170  0.44694  0.22047  1.0000
  S   S444      1.0  0.70214  0.42801  0.23004  1.0000
  S   S445      1.0  0.69782  0.45800  0.25150  1.0000
  Fe  Fe222     1.0  0.71755  0.43380  0.19149  1.0000
  S   S446      1.0  0.73347  0.42663  0.19294  1.0000
  Fe  Fe223     1.0  0.69135  0.42612  0.19853  1.0000
  S   S447      1.0  0.67455  0.41176  0.21066  1.0000
  S   S448      1.0  0.71783  0.45293  0.18410  1.0000
  S   S449      1.0  0.68974  0.44466  0.19188  1.0000
  H   H2650     1.0  0.63954  0.26883  0.03965  1.0000
  Fe  Fe224     1.0  0.61885  0.27396  0.11749  1.0000
  S   S450      1.0  0.62734  0.29290  0.09390  1.0000
  C   C3330     1.0  0.57279  0.28031  0.41495  1.0000
  H   H2651     1.0  0.69956  0.43399  0.43228  1.0000
  C   C3331     1.0  0.64867  0.27508  0.99534  1.0000
  Fe  Fe225     1.0  0.53606  0.48166  0.13291  1.0000
  S   S451      1.0  0.53990  0.46408  0.13927  1.0000
  C   C3332     1.0  0.55007  0.38147  0.32865  1.0000
  H   H2652     1.0  0.54691  0.42928  0.22551  1.0000
  Fe  Fe226     1.0  0.60238  0.25665  0.17094  1.0000
  Fe  Fe227     1.0  0.56440  0.44917  0.38520  1.0000
  C   C3333     1.0  0.73803  0.46208  0.10440  1.0000
  S   S452      1.0  0.58239  0.46064  0.36231  1.0000
  C   C3334     1.0  0.68677  0.42532  0.06417  1.0000
  H   H2653     1.0  0.60266  0.47961  0.35371  1.0000
  H   H2654     1.0  0.71113  0.41243  0.34201  1.0000
  Fe  Fe228     1.0  0.53984  0.44048  0.37939  1.0000
  H   H2655     1.0  0.64123  0.41774  0.34981  1.0000
  C   C3335     1.0  0.67250  0.44098  0.04419  1.0000
  H   H2656     1.0  0.74612  0.45511  0.07149  1.0000
  S   S453      1.0  0.55594  0.43371  0.37128  1.0000
  Fe  Fe229     1.0  0.69787  0.28111  0.15007  1.0000
  C   C3336     1.0  0.59065  0.48734  0.41314  1.0000
  C   C3337     1.0  0.59891  0.48758  0.38862  1.0000
  C   C3338     1.0  0.59631  0.47951  0.37256  1.0000
  C   C3339     1.0  0.58550  0.47119  0.38118  1.0000
  C   C3340     1.0  0.57718  0.47121  0.40519  1.0000
  C   C3341     1.0  0.57973  0.47928  0.42106  1.0000
  H   H2657     1.0  0.70911  0.27645  0.06643  1.0000
  C   C3342     1.0  0.74127  0.25920  0.20764  1.0000
  H   H2658     1.0  0.56873  0.46501  0.41178  1.0000
  H   H2659     1.0  0.57321  0.47916  0.43964  1.0000
  C   C3343     1.0  0.52299  0.44994  0.27083  1.0000
  C   C3344     1.0  0.56494  0.46697  0.19676  1.0000
  S   S454      1.0  0.52563  0.47785  0.17809  1.0000
  H   H2660     1.0  0.51623  0.45198  0.26086  1.0000
  H   H2661     1.0  0.67213  0.26949  0.08604  1.0000
  S   S455      1.0  0.54883  0.45661  0.38989  1.0000
  S   S456      1.0  0.59949  0.26608  0.13003  1.0000
  C   C3345     1.0  0.56089  0.38702  0.44186  1.0000
  C   C3346     1.0  0.69235  0.42563  0.03622  1.0000
  C   C3347     1.0  0.62269  0.42799  0.32078  1.0000
  C   C3348     1.0  0.55356  0.38962  0.03226  1.0000
  H   H2662     1.0  0.61254  0.29416  0.04299  1.0000
  H   H2663     1.0  0.54183  0.40790  0.15436  1.0000
  H   H2664     1.0  0.64601  0.30408  0.30400  1.0000
  H   H2665     1.0  0.51325  0.44911  0.31310  1.0000
  C   C3349     1.0  0.67493  0.44741  0.13141  1.0000
  H   H2666     1.0  0.59870  0.44135  0.28895  1.0000
  H   H2667     1.0  0.58108  0.48649  0.33077  1.0000
  H   H2668     1.0  0.53601  0.39845  0.40749  1.0000
  H   H2669     1.0  0.74394  0.26945  0.45641  1.0000
  H   H2670     1.0  0.58080  0.26354  0.03189  1.0000
  H   H2671     1.0  0.73139  0.33092  0.31771  1.0000
  H   H2672     1.0  0.74072  0.47089  0.35155  1.0000
  C   C3350     1.0  0.66437  0.39087  0.14801  1.0000
  C   C3351     1.0  0.67578  0.39797  0.14214  1.0000
  C   C3352     1.0  0.67904  0.40442  0.16117  1.0000
  C   C3353     1.0  0.67090  0.40376  0.18626  1.0000
  C   C3354     1.0  0.65953  0.39656  0.19223  1.0000
  C   C3355     1.0  0.65626  0.39015  0.17319  1.0000
  H   H2673     1.0  0.68210  0.39845  0.12282  1.0000
  H   H2674     1.0  0.68783  0.40987  0.15647  1.0000
  H   H2675     1.0  0.65323  0.39592  0.21169  1.0000
  H   H2676     1.0  0.64746  0.38469  0.17799  1.0000
  C   C3356     1.0  0.63149  0.31730  0.15251  1.0000
  C   C3357     1.0  0.62606  0.30532  0.16402  1.0000
  C   C3358     1.0  0.62497  0.29777  0.14617  1.0000
  C   C3359     1.0  0.62943  0.30209  0.11676  1.0000
  C   C3360     1.0  0.63529  0.31397  0.10540  1.0000
  C   C3361     1.0  0.63618  0.32163  0.12314  1.0000
  H   H2677     1.0  0.62241  0.30192  0.18670  1.0000
  H   H2678     1.0  0.62047  0.28866  0.15524  1.0000
  H   H2679     1.0  0.63923  0.31723  0.08286  1.0000
  H   H2680     1.0  0.64064  0.33083  0.11420  1.0000
  S   S457      1.0  0.57612  0.31335  0.44905  1.0000
  C   C3362     1.0  0.71872  0.44810  0.05099  1.0000
  C   C3363     1.0  0.71537  0.44990  0.07825  1.0000
  C   C3364     1.0  0.71067  0.45937  0.08175  1.0000
  C   C3365     1.0  0.70938  0.46702  0.05779  1.0000
  C   C3366     1.0  0.71252  0.46509  0.03062  1.0000
  H   H2681     1.0  0.72254  0.44089  0.04836  1.0000
  H   H2682     1.0  0.71648  0.44400  0.09650  1.0000
  H   H2683     1.0  0.70581  0.47441  0.06031  1.0000
  H   H2684     1.0  0.57904  0.44480  0.23685  1.0000
  C   C3367     1.0  0.70688  0.45345  0.33779  1.0000
  C   C3368     1.0  0.70532  0.46415  0.32395  1.0000
  C   C3369     1.0  0.70258  0.46541  0.29745  1.0000
  C   C3370     1.0  0.70164  0.45609  0.28433  1.0000
  C   C3371     1.0  0.70328  0.44541  0.29809  1.0000
  C   C3372     1.0  0.70578  0.44408  0.32485  1.0000
  H   H2685     1.0  0.70609  0.47141  0.33377  1.0000
  H   H2686     1.0  0.70125  0.47368  0.28700  1.0000
  H   H2687     1.0  0.70252  0.43815  0.28827  1.0000
  H   H2688     1.0  0.70681  0.43575  0.33569  1.0000
  Fe  Fe230     1.0  0.71245  0.27054  0.18523  1.0000
  C   C3373     1.0  0.60597  0.28537  0.01354  1.0000
  S   S458      1.0  0.56947  0.26678  0.40502  1.0000
  C   C3374     1.0  0.64728  0.44540  0.37860  1.0000
  H   H2689     1.0  0.70678  0.41661  0.09743  1.0000
  H   H2690     1.0  0.65678  0.39051  0.05311  1.0000
  H   H2691     1.0  0.72776  0.42888  0.33751  1.0000
  H   H2692     1.0  0.73487  0.28843  0.21441  1.0000
  C   C3375     1.0  0.61200  0.41833  0.29218  1.0000
  H   H2693     1.0  0.57722  0.41664  0.25745  1.0000
  C   C3376     1.0  0.61469  0.35006  0.30753  1.0000
  C   C3377     1.0  0.60592  0.35601  0.30608  1.0000
  C   C3378     1.0  0.60361  0.36017  0.27974  1.0000
  C   C3379     1.0  0.61013  0.35852  0.25476  1.0000
  C   C3380     1.0  0.61845  0.35203  0.25654  1.0000
  C   C3381     1.0  0.62073  0.34783  0.28284  1.0000
  H   H2694     1.0  0.60114  0.35767  0.32509  1.0000
  H   H2695     1.0  0.59693  0.36489  0.27860  1.0000
  H   H2696     1.0  0.62321  0.35032  0.23768  1.0000
  H   H2697     1.0  0.62737  0.34304  0.28395  1.0000
  C   C3382     1.0  0.74813  0.44173  0.34294  1.0000
  C   C3383     1.0  0.60396  0.35598  0.01590  1.0000
  C   C3384     1.0  0.60185  0.35647  0.04454  1.0000
  C   C3385     1.0  0.61111  0.36058  0.05606  1.0000
  C   C3386     1.0  0.62253  0.36422  0.03866  1.0000
  C   C3387     1.0  0.62463  0.36382  0.00999  1.0000
  H   H2698     1.0  0.59676  0.35291  0.00722  1.0000
  H   H2699     1.0  0.59300  0.35378  0.05775  1.0000
  H   H2700     1.0  0.62971  0.36751  0.04719  1.0000
  H   H2701     1.0  0.67473  0.26367  0.45201  1.0000
  H   H2702     1.0  0.60681  0.30745  0.06625  1.0000
  C   C3388     1.0  0.70814  0.41919  0.05252  1.0000
  C   C3389     1.0  0.74629  0.33024  0.35547  1.0000
  H   H2703     1.0  0.58406  0.33746  0.29194  1.0000
  H   H2704     1.0  0.60252  0.40284  0.36131  1.0000
  H   H2705     1.0  0.52074  0.45113  0.42958  1.0000
  C   C3390     1.0  0.55997  0.27180  0.31864  1.0000
  C   C3391     1.0  0.62399  0.33749  0.07114  1.0000
  C   C3392     1.0  0.59597  0.28176  0.06336  1.0000
  C   C3393     1.0  0.58891  0.42929  0.27036  1.0000
  C   C3394     1.0  0.71048  0.31865  0.12899  1.0000
  C   C3395     1.0  0.71764  0.32962  0.11306  1.0000
  C   C3396     1.0  0.71275  0.33806  0.09959  1.0000
  C   C3397     1.0  0.70070  0.33548  0.10188  1.0000
  C   C3398     1.0  0.69343  0.32443  0.11786  1.0000
  C   C3399     1.0  0.69845  0.31604  0.13140  1.0000
  P   P113      1.0  0.67793  0.32070  0.11973  1.0000
  C   C3400     1.0  0.66960  0.31236  0.15520  1.0000
  C   C3401     1.0  0.67309  0.33399  0.11137  1.0000
  C   C3402     1.0  0.67542  0.34040  0.08293  1.0000
  C   C3403     1.0  0.67233  0.35106  0.07640  1.0000
  C   C3404     1.0  0.66685  0.35535  0.09818  1.0000
  C   C3405     1.0  0.66423  0.34888  0.12645  1.0000
  C   C3406     1.0  0.66731  0.33823  0.13309  1.0000
  C   C3407     1.0  0.67380  0.31385  0.17892  1.0000
  C   C3408     1.0  0.66708  0.30775  0.20640  1.0000
  C   C3409     1.0  0.65608  0.30028  0.21042  1.0000
  C   C3410     1.0  0.65179  0.29887  0.18693  1.0000
  C   C3411     1.0  0.65849  0.30489  0.15949  1.0000
  C   C3412     1.0  0.67503  0.31202  0.09506  1.0000
  C   C3413     1.0  0.66485  0.31163  0.08544  1.0000
  C   C3414     1.0  0.66187  0.30406  0.06866  1.0000
  C   C3415     1.0  0.66917  0.29699  0.06087  1.0000
  C   C3416     1.0  0.67947  0.29751  0.06980  1.0000
  C   C3417     1.0  0.68238  0.30497  0.08688  1.0000
  H   H2706     1.0  0.71432  0.31210  0.13916  1.0000
  H   H2707     1.0  0.72698  0.33150  0.11107  1.0000
  H   H2708     1.0  0.71831  0.34657  0.08719  1.0000
  H   H2709     1.0  0.69717  0.34214  0.09111  1.0000
  H   H2710     1.0  0.69309  0.30743  0.14361  1.0000
  H   H2711     1.0  0.67979  0.33725  0.06588  1.0000
  H   H2712     1.0  0.67425  0.35606  0.05449  1.0000
  H   H2713     1.0  0.66457  0.36368  0.09326  1.0000
  H   H2714     1.0  0.65978  0.35213  0.14327  1.0000
  H   H2715     1.0  0.66513  0.33340  0.15519  1.0000
  H   H2716     1.0  0.68219  0.31981  0.17624  1.0000
  H   H2717     1.0  0.67038  0.30891  0.22459  1.0000
  H   H2718     1.0  0.65088  0.29559  0.23172  1.0000
  H   H2719     1.0  0.64325  0.29318  0.18970  1.0000
  H   H2720     1.0  0.65484  0.30376  0.14182  1.0000
  H   H2721     1.0  0.65899  0.31686  0.09185  1.0000
  H   H2722     1.0  0.65371  0.30345  0.06244  1.0000
  H   H2723     1.0  0.66675  0.29096  0.04837  1.0000
  H   H2724     1.0  0.68506  0.29188  0.06426  1.0000
  H   H2725     1.0  0.69015  0.30485  0.09441  1.0000
  H   H2726     1.0  0.66013  0.28469  0.12734  1.0000
  C   C3418     1.0  0.58256  0.43085  0.31854  1.0000
  H   H2727     1.0  0.62883  0.34582  0.07276  1.0000
  C   C3419     1.0  0.68254  0.45949  0.00908  1.0000
  C   C3420     1.0  0.54368  0.41102  0.22523  1.0000
  C   C3421     1.0  0.54255  0.40813  0.13217  1.0000
  C   C3422     1.0  0.68379  0.25817  0.08591  1.0000
  C   C3423     1.0  0.56478  0.45623  0.19005  1.0000
  C   C3424     1.0  0.50466  0.44192  0.42301  1.0000
  H   H2728     1.0  0.56958  0.43985  0.19944  1.0000
  H   H2729     1.0  0.56045  0.45405  0.17405  1.0000
  S   S459      1.0  0.58447  0.37594  0.38873  1.0000
  C   C3425     1.0  0.57555  0.38432  0.40386  1.0000
  H   H2730     1.0  0.63630  0.38915  0.07723  1.0000
  Fe  Fe231     1.0  0.71616  0.27025  0.12241  1.0000
  Fe  Fe232     1.0  0.72018  0.27012  0.36976  1.0000
  C   C3426     1.0  0.59285  0.31329  0.28003  1.0000
  C   C3427     1.0  0.56807  0.38016  0.43126  1.0000
  H   H2731     1.0  0.73641  0.43449  0.24629  1.0000
  C   C3428     1.0  0.73360  0.43272  0.29153  1.0000
  C   C3429     1.0  0.64321  0.39672  0.07599  1.0000
  C   C3430     1.0  0.59382  0.32691  0.23561  1.0000
  H   H2732     1.0  0.58000  0.26796  0.07873  1.0000
  C   C3431     1.0  0.62307  0.32067  0.05143  1.0000
  C   C3432     1.0  0.68278  0.44984  0.02996  1.0000
  C   C3433     1.0  0.58255  0.28515  0.18070  1.0000
  C   C3434     1.0  0.68248  0.26766  0.32914  1.0000
  C   C3435     1.0  0.64062  0.40551  0.08878  1.0000
  C   C3436     1.0  0.74284  0.46278  0.34901  1.0000
  H   H2733     1.0  0.63170  0.40475  0.09992  1.0000
  Fe  Fe233     1.0  0.52804  0.45956  0.18332  1.0000
  C   C3437     1.0  0.67440  0.25271  0.42316  1.0000
  C   C3438     1.0  0.66971  0.26131  0.15538  1.0000
  C   C3439     1.0  0.54762  0.42062  0.23560  1.0000
  C   C3440     1.0  0.57536  0.46176  0.23231  1.0000
  C   C3441     1.0  0.57468  0.47520  0.01560  1.0000
  H   H2734     1.0  0.68814  0.42206  0.10773  1.0000
  C   C3442     1.0  0.66971  0.26087  0.30085  1.0000
  C   C3443     1.0  0.65029  0.36684  0.25122  1.0000
  C   C3444     1.0  0.66200  0.37094  0.23596  1.0000
  C   C3445     1.0  0.66925  0.38032  0.24163  1.0000
  C   C3446     1.0  0.66474  0.38575  0.26216  1.0000
  C   C3447     1.0  0.65290  0.38188  0.27714  1.0000
  C   C3448     1.0  0.64576  0.37220  0.27185  1.0000
  P   P114      1.0  0.64667  0.38933  0.30233  1.0000
  C   C3449     1.0  0.64579  0.38132  0.33806  1.0000
  C   C3450     1.0  0.65534  0.40437  0.29411  1.0000
  C   C3451     1.0  0.66620  0.40676  0.30078  1.0000
  C   C3452     1.0  0.67322  0.41827  0.29327  1.0000
  C   C3453     1.0  0.66947  0.42752  0.27908  1.0000
  C   C3454     1.0  0.65862  0.42527  0.27272  1.0000
  C   C3455     1.0  0.65157  0.41376  0.28019  1.0000
  C   C3456     1.0  0.64793  0.38727  0.35876  1.0000
  C   C3457     1.0  0.64636  0.38097  0.38686  1.0000
  C   C3458     1.0  0.64224  0.36873  0.39475  1.0000
  C   C3459     1.0  0.63996  0.36277  0.37437  1.0000
  C   C3460     1.0  0.64181  0.36902  0.34614  1.0000
  C   C3461     1.0  0.63199  0.38895  0.29903  1.0000
  C   C3462     1.0  0.62252  0.38559  0.32329  1.0000
  C   C3463     1.0  0.61108  0.38401  0.32044  1.0000
  C   C3464     1.0  0.60901  0.38593  0.29343  1.0000
  C   C3465     1.0  0.61837  0.38946  0.26920  1.0000
  C   C3466     1.0  0.62982  0.39102  0.27196  1.0000
  H   H2735     1.0  0.64463  0.35965  0.24662  1.0000
  H   H2736     1.0  0.66540  0.36702  0.21933  1.0000
  H   H2737     1.0  0.67825  0.38376  0.22919  1.0000
  H   H2738     1.0  0.67047  0.39326  0.26519  1.0000
  H   H2739     1.0  0.63661  0.36896  0.28316  1.0000
  H   H2740     1.0  0.66937  0.39965  0.31111  1.0000
  H   H2741     1.0  0.68173  0.42003  0.29772  1.0000
  H   H2742     1.0  0.67510  0.43639  0.27249  1.0000
  H   H2743     1.0  0.65585  0.43241  0.26116  1.0000
  H   H2744     1.0  0.64334  0.41223  0.27443  1.0000
  H   H2745     1.0  0.65057  0.39676  0.35349  1.0000
  H   H2746     1.0  0.64812  0.38556  0.40271  1.0000
  H   H2747     1.0  0.64059  0.36385  0.41674  1.0000
  H   H2748     1.0  0.63647  0.35330  0.38053  1.0000
  H   H2749     1.0  0.63972  0.36421  0.33093  1.0000
  H   H2750     1.0  0.62386  0.38377  0.34446  1.0000
  H   H2751     1.0  0.60381  0.38098  0.33927  1.0000
  H   H2752     1.0  0.60013  0.38435  0.29126  1.0000
  H   H2753     1.0  0.61673  0.39046  0.24829  1.0000
  H   H2754     1.0  0.63697  0.39338  0.25298  1.0000
  C   C3467     1.0  0.56316  0.36943  0.34001  1.0000
  C   C3468     1.0  0.74549  0.48696  0.00283  1.0000
  C   C3469     1.0  0.71882  0.26471  0.30109  1.0000
  H   H2755     1.0  0.62378  0.27851  0.03472  1.0000
  C   C3470     1.0  0.55188  0.37050  0.33974  1.0000
  H   H2756     1.0  0.57628  0.44621  0.00549  1.0000
  H   H2757     1.0  0.73342  0.49548  0.98595  1.0000
  H   H2758     1.0  0.73254  0.28442  0.45638  1.0000
  C   C3471     1.0  0.73512  0.45932  0.25732  1.0000
  C   C3472     1.0  0.57401  0.29106  0.17592  1.0000
  H   H2759     1.0  0.70540  0.27920  0.24269  1.0000
  H   H2760     1.0  0.58583  0.32210  0.00405  1.0000
  H   H2761     1.0  0.60727  0.49391  0.38212  1.0000
  C   C3473     1.0  0.63068  0.28623  0.98920  1.0000
  C   C3474     1.0  0.62233  0.30818  0.98353  1.0000
  H   H2762     1.0  0.68705  0.26066  0.10316  1.0000
  C   C3475     1.0  0.66197  0.44201  0.03730  1.0000
  H   H2763     1.0  0.56674  0.45242  0.07493  1.0000
  H   H2764     1.0  0.62970  0.38587  0.43301  1.0000
  H   H2765     1.0  0.74510  0.45787  0.39131  1.0000
  H   H2766     1.0  0.62458  0.29925  0.32398  1.0000
  P   P115      1.0  0.64672  0.26286  0.30778  1.0000
  C   C3476     1.0  0.71497  0.27476  0.30323  1.0000
  H   H2767     1.0  0.74132  0.45181  0.16855  1.0000
  H   H2768     1.0  0.62035  0.25772  0.99575  1.0000
  H   H2769     1.0  0.58065  0.27779  0.19918  1.0000
  H   H2770     1.0  0.68188  0.45053  0.08658  1.0000
  C   C3477     1.0  0.63904  0.49706  0.27245  1.0000
  S   S460      1.0  0.71247  0.28781  0.11031  1.0000
  H   H2771     1.0  0.66214  0.48237  0.43492  1.0000
  C   C3478     1.0  0.74828  0.44884  0.17587  1.0000
  C   C3479     1.0  0.56984  0.44822  0.20451  1.0000
  H   H2772     1.0  0.63410  0.40575  0.40115  1.0000
  C   C3480     1.0  0.55076  0.49562  0.99719  1.0000
  H   H2773     1.0  0.56764  0.37156  0.44408  1.0000
  H   H2774     1.0  0.57976  0.46386  0.24821  1.0000
  S   S461      1.0  0.53555  0.44970  0.21717  1.0000
  S   S462      1.0  0.52086  0.47666  0.11456  1.0000
  C   C3481     1.0  0.60541  0.28784  0.04008  1.0000
  C   C3482     1.0  0.74582  0.45681  0.25931  1.0000
  C   C3483     1.0  0.73472  0.46859  0.23566  1.0000
  S   S463      1.0  0.62143  0.26573  0.15975  1.0000
  H   H2775     1.0  0.69086  0.26873  0.33437  1.0000
  H   H2776     1.0  0.63066  0.28419  0.23501  1.0000
  Fe  Fe234     1.0  0.52412  0.45861  0.12320  1.0000
  C   C3484     1.0  0.53324  0.44857  0.25435  1.0000
  C   C3485     1.0  0.74879  0.27187  0.23565  1.0000
  C   C3486     1.0  0.54033  0.44440  0.29739  1.0000
  C   C3487     1.0  0.54192  0.44590  0.26781  1.0000
  H   H2777     1.0  0.54705  0.44226  0.30741  1.0000
  H   H2778     1.0  0.54995  0.44505  0.25520  1.0000
  C   C3488     1.0  0.52132  0.44828  0.30050  1.0000
  C   C3489     1.0  0.60851  0.30263  0.37802  1.0000
  C   C3490     1.0  0.57513  0.45099  0.22563  1.0000
  H   H2779     1.0  0.56097  0.47308  0.18529  1.0000
  H   H2780     1.0  0.67947  0.45611  0.13185  1.0000
  H   H2781     1.0  0.68338  0.48397  0.42420  1.0000
  H   H2782     1.0  0.51655  0.45935  0.00195  1.0000
  H   H2783     1.0  0.51452  0.45736  0.05363  1.0000
  H   H2784     1.0  0.54124  0.38223  0.32942  1.0000
  H   H2785     1.0  0.64691  0.26940  0.19108  1.0000
  H   H2786     1.0  0.61289  0.27844  0.33737  1.0000
  C   C3491     1.0  0.52978  0.45082  0.05431  1.0000
  C   C3492     1.0  0.52297  0.45628  0.01172  1.0000
  C   C3493     1.0  0.52184  0.45524  0.04104  1.0000
  C   C3494     1.0  0.59083  0.43449  0.29226  1.0000
  H   H2787     1.0  0.58396  0.43491  0.33554  1.0000
  C   C3495     1.0  0.52993  0.44544  0.31401  1.0000
  H   H2788     1.0  0.63817  0.33538  0.04021  1.0000
  C   C3496     1.0  0.65773  0.46285  0.30092  1.0000
  S   S464      1.0  0.52729  0.44706  0.09213  1.0000
  H   H2789     1.0  0.61176  0.30326  0.39655  1.0000
  C   C3497     1.0  0.53211  0.45307  0.99511  1.0000
  H   H2790     1.0  0.59535  0.43207  0.25002  1.0000
  H   H2791     1.0  0.60241  0.37989  0.01851  1.0000
  C   C3498     1.0  0.52863  0.41405  0.35175  1.0000
  C   C3499     1.0  0.57007  0.46975  0.21826  1.0000
  C   C3500     1.0  0.71342  0.26536  0.25626  1.0000
  C   C3501     1.0  0.57862  0.42059  0.27460  1.0000
  C   C3502     1.0  0.54024  0.44894  0.00817  1.0000
  C   C3503     1.0  0.53903  0.44779  0.03756  1.0000
  H   H2792     1.0  0.55495  0.42654  0.26756  1.0000
  H   H2793     1.0  0.61358  0.26972  0.26924  1.0000
  H   H2794     1.0  0.62877  0.44162  0.39540  1.0000
  H   H2795     1.0  0.58594  0.27655  0.43619  1.0000
  S   S465      1.0  0.52704  0.44280  0.35173  1.0000
  C   C3504     1.0  0.63965  0.27404  0.01897  1.0000
  H   H2796     1.0  0.58548  0.34228  0.16611  1.0000
  C   C3505     1.0  0.58313  0.33965  0.14802  1.0000
  C   C3506     1.0  0.53062  0.48791  0.99673  1.0000
  C   C3507     1.0  0.57021  0.41701  0.30087  1.0000
  Fe  Fe235     1.0  0.51044  0.47157  0.16041  1.0000
  H   H2797     1.0  0.58914  0.29535  0.45098  1.0000
  H   H2798     1.0  0.59571  0.28364  0.08383  1.0000
  C   C3508     1.0  0.60258  0.29175  0.37586  1.0000
  H   H2799     1.0  0.60150  0.28387  0.39232  1.0000
  P   P116      1.0  0.57112  0.48409  0.22475  1.0000
  H   H2800     1.0  0.62897  0.25828  0.22846  1.0000
  C   C3509     1.0  0.72763  0.34103  0.25210  1.0000
  S   S466      1.0  0.51226  0.45279  0.16804  1.0000
  C   C3510     1.0  0.58118  0.28293  0.43005  1.0000
  C   C3511     1.0  0.60548  0.28280  0.28216  1.0000
  C   C3512     1.0  0.61428  0.27903  0.26648  1.0000
  H   H2801     1.0  0.59811  0.27627  0.29728  1.0000
  H   H2802     1.0  0.74148  0.49108  0.10176  1.0000
  H   H2803     1.0  0.71647  0.41702  0.04796  1.0000
  C   C3513     1.0  0.72506  0.39611  0.22603  1.0000
  C   C3514     1.0  0.57238  0.42204  0.32288  1.0000
  C   C3515     1.0  0.55208  0.41903  0.25953  1.0000
  H   H2804     1.0  0.74140  0.42046  0.45757  1.0000
  H   H2805     1.0  0.66712  0.44176  0.17658  1.0000
  C   C3516     1.0  0.59945  0.30108  0.33081  1.0000
  C   C3517     1.0  0.73547  0.29405  0.22869  1.0000
  C   C3518     1.0  0.59785  0.29099  0.35270  1.0000
  C   C3519     1.0  0.62397  0.28723  0.24724  1.0000
  S   S467      1.0  0.60926  0.36277  0.39770  1.0000
  H   H2806     1.0  0.56616  0.41918  0.34338  1.0000
  S   S468      1.0  0.70572  0.25734  0.40498  1.0000
  H   H2807     1.0  0.54005  0.41229  0.20694  1.0000
  C   C3520     1.0  0.58755  0.27050  0.03404  1.0000
  C   C3521     1.0  0.56775  0.27492  0.29171  1.0000
  C   C3522     1.0  0.69212  0.42214  0.08611  1.0000
  C   C3523     1.0  0.60624  0.29486  0.27840  1.0000
  H   H2808     1.0  0.59313  0.28246  0.35173  1.0000
  H   H2809     1.0  0.61375  0.25551  0.04759  1.0000
  H   H2810     1.0  0.55861  0.43228  0.03865  1.0000
  S   S469      1.0  0.55106  0.49730  0.10925  1.0000
  P   P117      1.0  0.59059  0.31638  0.10195  1.0000
  C   C3524     1.0  0.65474  0.39752  0.06221  1.0000
  C   C3525     1.0  0.66372  0.40710  0.06122  1.0000
  Fe  Fe236     1.0  0.58960  0.35916  0.40747  1.0000
  Fe  Fe237     1.0  0.55061  0.42470  0.41812  1.0000
  C   C3526     1.0  0.56127  0.39819  0.42547  1.0000
  S   S470      1.0  0.53363  0.43023  0.42566  1.0000
  H   H2811     1.0  0.54531  0.44455  0.04738  1.0000
  H   H2812     1.0  0.56270  0.30503  0.41226  1.0000
  C   C3527     1.0  0.72744  0.42914  0.46157  1.0000
  C   C3528     1.0  0.62496  0.29925  0.24385  1.0000
  P   P118      1.0  0.59490  0.29967  0.29900  1.0000
  H   H2813     1.0  0.53741  0.41752  0.30806  1.0000
  H   H2814     1.0  0.56096  0.39389  0.03882  1.0000
  S   S471      1.0  0.64863  0.49914  0.42968  1.0000
  H   H2815     1.0  0.69100  0.44934  0.03506  1.0000
  C   C3529     1.0  0.60597  0.31192  0.33238  1.0000
  C   C3530     1.0  0.58304  0.29364  0.43826  1.0000
  C   C3531     1.0  0.61022  0.31270  0.35625  1.0000
  C   C3532     1.0  0.61618  0.30307  0.25962  1.0000
  C   C3533     1.0  0.55230  0.40774  0.27385  1.0000
  H   H2816     1.0  0.56101  0.37534  0.02477  1.0000
  S   S472      1.0  0.55166  0.40628  0.43921  1.0000
  C   C3534     1.0  0.57593  0.39551  0.38750  1.0000
  C   C3535     1.0  0.56901  0.40249  0.39845  1.0000
  H   H2817     1.0  0.63240  0.30568  0.22866  1.0000
  C   C3536     1.0  0.53734  0.41326  0.32944  1.0000
  H   H2818     1.0  0.58614  0.31853  0.31807  1.0000
  C   C3537     1.0  0.71706  0.45551  0.02719  1.0000
  P   P119      1.0  0.55693  0.40576  0.30649  1.0000
  P   P120      1.0  0.54488  0.40912  0.03758  1.0000
  C   C3538     1.0  0.54423  0.39981  0.23876  1.0000
  Fe  Fe238     1.0  0.73401  0.48025  0.41131  1.0000
  C   C3539     1.0  0.58734  0.33077  0.13844  1.0000
  C   C3540     1.0  0.66123  0.41599  0.07406  1.0000
  P   P121      1.0  0.67274  0.42869  0.07183  1.0000
  C   C3541     1.0  0.59176  0.43551  0.39786  1.0000
  H   H2819     1.0  0.58157  0.39879  0.36621  1.0000
  H   H2820     1.0  0.56955  0.41115  0.38597  1.0000
  H   H2821     1.0  0.54773  0.39156  0.08574  1.0000
  C   C3542     1.0  0.57266  0.37929  0.32885  1.0000
  C   C3543     1.0  0.54568  0.40710  0.33507  1.0000
  C   C3544     1.0  0.55366  0.37917  0.02413  1.0000
  C   C3545     1.0  0.66431  0.42460  0.13068  1.0000
  C   C3546     1.0  0.53416  0.41961  0.99833  1.0000
  Fe  Fe239     1.0  0.58686  0.33237  0.42916  1.0000
  S   S473      1.0  0.60618  0.33477  0.42061  1.0000
  C   C3547     1.0  0.54849  0.39815  0.26306  1.0000
  H   H2822     1.0  0.57487  0.29043  0.34949  1.0000
  H   H2823     1.0  0.53968  0.42534  0.07218  1.0000
  H   H2824     1.0  0.54113  0.39236  0.23076  1.0000
  C   C3548     1.0  0.54418  0.39480  0.03076  1.0000
  H   H2825     1.0  0.55495  0.38361  0.46285  1.0000
  C   C3549     1.0  0.54416  0.40867  0.07463  1.0000
  C   C3550     1.0  0.54593  0.39901  0.09307  1.0000
  C   C3551     1.0  0.62066  0.42752  0.29428  1.0000
  C   C3552     1.0  0.74560  0.39853  0.22452  1.0000
  C   C3553     1.0  0.54149  0.41798  0.08552  1.0000
  C   C3554     1.0  0.53317  0.41471  0.02716  1.0000
  H   H2826     1.0  0.68661  0.44608  0.41711  1.0000
  H   H2827     1.0  0.62922  0.43536  0.32203  1.0000
  C   C3555     1.0  0.71449  0.41394  0.29699  1.0000
  H   H2828     1.0  0.66060  0.41555  0.13116  1.0000
  S   S474      1.0  0.72175  0.48597  0.44339  1.0000
  H   H2829     1.0  0.61714  0.31243  0.25690  1.0000
  H   H2830     1.0  0.71581  0.33173  0.29291  1.0000
  H   H2831     1.0  0.54649  0.39129  0.13578  1.0000
  C   C3556     1.0  0.54517  0.39879  0.12167  1.0000
  C   C3557     1.0  0.59614  0.29815  0.13753  1.0000
  C   C3558     1.0  0.72166  0.42017  0.27012  1.0000
  C   C3559     1.0  0.59358  0.28871  0.16158  1.0000
  H   H2832     1.0  0.60476  0.30075  0.12306  1.0000
  C   C3560     1.0  0.57646  0.30178  0.43172  1.0000
  Fe  Fe240     1.0  0.72369  0.29317  0.13858  1.0000
  Fe  Fe241     1.0  0.71543  0.26455  0.43446  1.0000
  H   H2833     1.0  0.57321  0.35243  0.14085  1.0000
  C   C3561     1.0  0.54067  0.41771  0.11409  1.0000
  C   C3562     1.0  0.57090  0.39027  0.31763  1.0000
  C   C3563     1.0  0.58107  0.28902  0.30659  1.0000
  C   C3564     1.0  0.67078  0.43283  0.10506  1.0000
  C   C3565     1.0  0.60763  0.40986  0.34295  1.0000
  H   H2834     1.0  0.70707  0.40677  0.29898  1.0000
  H   H2835     1.0  0.53839  0.42490  0.12219  1.0000
  C   C3566     1.0  0.54448  0.37387  0.01418  1.0000
  Fe  Fe242     1.0  0.54378  0.44613  0.43570  1.0000
  S   S475      1.0  0.56021  0.43985  0.43139  1.0000
  C   C3567     1.0  0.73376  0.33527  0.29525  1.0000
  C   C3568     1.0  0.52292  0.41405  0.04750  1.0000
  H   H2836     1.0  0.57836  0.39780  0.30988  1.0000
  C   C3569     1.0  0.67629  0.44420  0.10571  1.0000
  H   H2837     1.0  0.71126  0.47090  0.01245  1.0000
  H   H2838     1.0  0.55195  0.26496  0.32361  1.0000
  C   C3570     1.0  0.57302  0.28615  0.33321  1.0000
  H   H2839     1.0  0.52772  0.39323  0.01887  1.0000
  H   H2840     1.0  0.56810  0.34667  0.09891  1.0000
  C   C3571     1.0  0.64701  0.26795  0.21325  1.0000
  H   H2841     1.0  0.54866  0.38937  0.27343  1.0000
  H   H2842     1.0  0.58422  0.28580  0.26471  1.0000
  C   C3572     1.0  0.53511  0.37893  0.01271  1.0000
  H   H2843     1.0  0.56795  0.28823  0.06064  1.0000
  C   C3573     1.0  0.74787  0.39712  0.19673  1.0000
  H   H2844     1.0  0.54472  0.36598  0.00704  1.0000
  H   H2845     1.0  0.56573  0.27054  0.27567  1.0000
  H   H2846     1.0  0.67670  0.25920  0.16417  1.0000
  C   C3574     1.0  0.66284  0.42791  0.15627  1.0000
  H   H2847     1.0  0.50671  0.44667  0.40080  1.0000
  C   C3575     1.0  0.57824  0.28355  0.28561  1.0000
  C   C3576     1.0  0.57637  0.30481  0.03000  1.0000
  H   H2848     1.0  0.57540  0.33105  0.08182  1.0000
  C   C3577     1.0  0.57325  0.29707  0.05706  1.0000
  C   C3578     1.0  0.52819  0.40879  0.37984  1.0000
  C   C3579     1.0  0.74451  0.32520  0.18007  1.0000
  S   S476      1.0  0.72479  0.48433  0.37653  1.0000
  Fe  Fe243     1.0  0.60642  0.35008  0.44010  1.0000
  C   C3580     1.0  0.58731  0.31977  0.04732  1.0000
  C   C3581     1.0  0.64957  0.41514  0.08771  1.0000
  C   C3582     1.0  0.66807  0.43932  0.15662  1.0000
  H   H2849     1.0  0.60012  0.28407  0.16551  1.0000
  H   H2850     1.0  0.59596  0.32930  0.21261  1.0000
  H   H2851     1.0  0.59288  0.32656  0.14943  1.0000
  H   H2852     1.0  0.60854  0.33755  0.10094  1.0000
  C   C3583     1.0  0.57339  0.34215  0.11006  1.0000
  C   C3584     1.0  0.57761  0.33330  0.10034  1.0000
  C   C3585     1.0  0.58334  0.31617  0.02517  1.0000
  C   C3586     1.0  0.71800  0.26003  0.27771  1.0000
  C   C3587     1.0  0.61243  0.33270  0.08731  1.0000
  C   C3588     1.0  0.57716  0.30064  0.07932  1.0000
  H   H2853     1.0  0.57488  0.29440  0.09988  1.0000
  Fe  Fe244     1.0  0.71152  0.48849  0.41000  1.0000
  H   H2854     1.0  0.72637  0.47029  0.23402  1.0000
  H   H2855     1.0  0.61491  0.32114  0.35782  1.0000
  H   H2856     1.0  0.60785  0.31980  0.31530  1.0000
  H   H2857     1.0  0.52090  0.50072  0.98721  1.0000
  C   C3589     1.0  0.60602  0.32197  0.08508  1.0000
  C   C3590     1.0  0.57622  0.34538  0.13375  1.0000
  C   C3591     1.0  0.56633  0.46012  0.05980  1.0000
  H   H2858     1.0  0.59297  0.32852  0.04305  1.0000
  C   C3592     1.0  0.52923  0.49932  0.98996  1.0000
  C   C3593     1.0  0.58422  0.31204  0.07461  1.0000
  H   H2859     1.0  0.72705  0.45406  0.27241  1.0000
  S   S477      1.0  0.68039  0.28463  0.14860  1.0000
  C   C3594     1.0  0.56258  0.27747  0.33929  1.0000
  C   C3595     1.0  0.58474  0.32765  0.11428  1.0000
  H   H2860     1.0  0.64741  0.42187  0.09775  1.0000
  C   C3596     1.0  0.59525  0.31626  0.25022  1.0000
  C   C3597     1.0  0.62923  0.33162  0.05272  1.0000
  C   C3598     1.0  0.58841  0.32081  0.29503  1.0000
  C   C3599     1.0  0.57652  0.30051  0.15198  1.0000
  C   C3600     1.0  0.74570  0.27043  0.21059  1.0000
  H   H2861     1.0  0.66676  0.49691  0.28207  1.0000
  H   H2862     1.0  0.71989  0.41779  0.25129  1.0000
  H   H2863     1.0  0.54735  0.44648  0.99574  1.0000
  H   H2864     1.0  0.59833  0.31045  0.23817  1.0000
  H   H2865     1.0  0.55662  0.27497  0.36031  1.0000
  C   C3601     1.0  0.65122  0.25480  0.14404  1.0000
  C   C3602     1.0  0.66955  0.27305  0.14579  1.0000
  C   C3603     1.0  0.58983  0.33456  0.25063  1.0000
  H   H2866     1.0  0.56982  0.30501  0.14857  1.0000
  C   C3604     1.0  0.58760  0.30412  0.13259  1.0000
  H   H2867     1.0  0.61227  0.46145  0.42910  1.0000
  C   C3605     1.0  0.55957  0.39146  0.31763  1.0000
  C   C3606     1.0  0.67942  0.49994  0.00575  1.0000
  C   C3607     1.0  0.61153  0.31587  0.06758  1.0000
  H   H2868     1.0  0.55223  0.26436  0.47372  1.0000
  C   C3608     1.0  0.74558  0.44902  0.32029  1.0000
  C   C3609     1.0  0.74095  0.28606  0.46135  1.0000
  H   H2869     1.0  0.56456  0.36102  0.34940  1.0000
  H   H2870     1.0  0.64213  0.46383  0.32885  1.0000
  H   H2871     1.0  0.60872  0.45864  0.38332  1.0000
  H   H2872     1.0  0.62574  0.43434  0.27539  1.0000
  H   H2873     1.0  0.62728  0.31580  0.03830  1.0000
  C   C3610     1.0  0.66031  0.27564  0.13484  1.0000
  H   H2874     1.0  0.68850  0.42826  0.01886  1.0000
  H   H2875     1.0  0.64738  0.49591  0.26223  1.0000
  C   C3611     1.0  0.74825  0.29171  0.00439  1.0000
  H   H2876     1.0  0.73030  0.31247  0.17435  1.0000
  C   C3612     1.0  0.63697  0.25980  0.26306  1.0000
  C   C3613     1.0  0.68032  0.49181  0.42016  1.0000
  S   S478      1.0  0.58992  0.25656  0.21171  1.0000
  C   C3614     1.0  0.66823  0.49093  0.42634  1.0000
  H   H2877     1.0  0.73978  0.30319  0.40152  1.0000
  C   C3615     1.0  0.62860  0.47456  0.40948  1.0000
  C   C3616     1.0  0.70302  0.42264  0.03043  1.0000
  C   C3617     1.0  0.58707  0.33148  0.28032  1.0000
  C   C3618     1.0  0.71001  0.27989  0.28224  1.0000
  H   H2878     1.0  0.67282  0.25701  0.21762  1.0000
  C   C3619     1.0  0.73107  0.42962  0.26735  1.0000
  H   H2879     1.0  0.74440  0.30480  0.05884  1.0000
  H   H2880     1.0  0.69052  0.46628  0.99800  1.0000
  S   S479      1.0  0.70864  0.28829  0.17763  1.0000
  H   H2881     1.0  0.66514  0.27480  0.25462  1.0000
  C   C3620     1.0  0.59110  0.43581  0.42606  1.0000
  C   C3621     1.0  0.72633  0.42645  0.31851  1.0000
  H   H2882     1.0  0.62287  0.39001  0.99241  1.0000
  H   H2883     1.0  0.58553  0.43864  0.38740  1.0000
  H   H2884     1.0  0.72089  0.31257  0.25472  1.0000
  H   H2885     1.0  0.73257  0.39945  0.26018  1.0000
  H   H2886     1.0  0.61040  0.41794  0.27170  1.0000
  C   C3622     1.0  0.56504  0.48001  0.02085  1.0000
  H   H2887     1.0  0.50649  0.41879  0.05514  1.0000
  H   H2888     1.0  0.62896  0.25521  0.27931  1.0000
  C   C3623     1.0  0.58467  0.49539  0.28634  1.0000
  C   C3624     1.0  0.54137  0.48605  0.00016  1.0000
  C   C3625     1.0  0.62770  0.27168  0.32549  1.0000
  C   C3626     1.0  0.62455  0.47144  0.35785  1.0000
  H   H2889     1.0  0.64902  0.45325  0.38617  1.0000
  H   H2890     1.0  0.56546  0.28830  0.19082  1.0000
  H   H2891     1.0  0.58900  0.34294  0.23924  1.0000
  C   C3627     1.0  0.66089  0.26516  0.31520  1.0000
  S   S480      1.0  0.58686  0.34717  0.45135  1.0000
  C   C3628     1.0  0.61629  0.41906  0.34533  1.0000
  C   C3629     1.0  0.56636  0.28852  0.40823  1.0000
  C   C3630     1.0  0.72486  0.33569  0.28123  1.0000
  H   H2892     1.0  0.58445  0.43928  0.43720  1.0000
  H   H2893     1.0  0.55143  0.39698  0.36861  1.0000
  S   S481      1.0  0.72855  0.27874  0.39923  1.0000
  H   H2894     1.0  0.59854  0.40259  0.31517  1.0000
  H   H2895     1.0  0.71470  0.43907  0.46980  1.0000
  C   C3631     1.0  0.53629  0.49476  0.23617  1.0000
  C   C3632     1.0  0.56426  0.41636  0.99055  1.0000
  C   C3633     1.0  0.61616  0.32603  0.98657  1.0000
  H   H2896     1.0  0.65389  0.43542  0.04796  1.0000
  C   C3634     1.0  0.62227  0.28063  0.32912  1.0000
  S   S482      1.0  0.71612  0.28104  0.33196  1.0000
  C   C3635     1.0  0.72722  0.30062  0.23246  1.0000
  H   H2897     1.0  0.65597  0.27315  0.34961  1.0000
  H   H2898     1.0  0.67857  0.26000  0.40456  1.0000
  H   H2899     1.0  0.63347  0.36678  0.99660  1.0000
  C   C3636     1.0  0.53637  0.40257  0.38568  1.0000
  H   H2900     1.0  0.52168  0.40994  0.06976  1.0000
  H   H2901     1.0  0.52229  0.41890  0.34723  1.0000
  C   C3637     1.0  0.70816  0.27332  0.02573  1.0000
  C   C3638     1.0  0.63655  0.48123  0.38388  1.0000
  C   C3639     1.0  0.61339  0.31399  0.98828  1.0000
  H   H2902     1.0  0.74076  0.46530  0.30659  1.0000
  C   C3640     1.0  0.74530  0.45544  0.37149  1.0000
  S   S483      1.0  0.53837  0.45737  0.46577  1.0000
  C   C3641     1.0  0.74505  0.47555  0.21605  1.0000
  C   C3642     1.0  0.74270  0.48327  0.09520  1.0000
  H   H2903     1.0  0.68748  0.25940  0.29574  1.0000
  C   C3643     1.0  0.71755  0.25866  0.01214  1.0000
  C   C3644     1.0  0.55855  0.41897  0.01519  1.0000
  C   C3645     1.0  0.65432  0.43206  0.35308  1.0000
  C   C3646     1.0  0.64094  0.29501  0.31023  1.0000
  H   H2904     1.0  0.65528  0.45334  0.30599  1.0000
  C   C3647     1.0  0.71162  0.27158  0.05130  1.0000
  C   C3648     1.0  0.73801  0.42709  0.46587  1.0000
  C   C3649     1.0  0.64645  0.28603  0.30676  1.0000
  C   C3650     1.0  0.74541  0.46304  0.07792  1.0000
  H   H2905     1.0  0.70678  0.28752  0.28410  1.0000
  C   C3651     1.0  0.74728  0.27755  0.46177  1.0000
  C   C3652     1.0  0.63070  0.27960  0.01601  1.0000
  H   H2906     1.0  0.64404  0.48771  0.38468  1.0000
  S   S484      1.0  0.59362  0.49689  0.43458  1.0000
  H   H2907     1.0  0.52155  0.40961  0.39708  1.0000
  C   C3653     1.0  0.67483  0.44168  0.45893  1.0000
  H   H2908     1.0  0.63009  0.47607  0.42934  1.0000
  H   H2909     1.0  0.74629  0.46611  0.99012  1.0000
  H   H2910     1.0  0.52825  0.47645  0.24157  1.0000
  C   C3654     1.0  0.60030  0.43105  0.38332  1.0000
  C   C3655     1.0  0.61553  0.49222  0.07254  1.0000
  C   C3656     1.0  0.60537  0.40964  0.31659  1.0000
  C   C3657     1.0  0.57920  0.48611  0.31053  1.0000
  H   H2911     1.0  0.56227  0.46821  0.28175  1.0000
  C   C3658     1.0  0.67160  0.48134  0.27498  1.0000
  C   C3659     1.0  0.56816  0.29912  0.41650  1.0000
  S   S485      1.0  0.71260  0.25916  0.22736  1.0000
  H   H2912     1.0  0.74883  0.46865  0.46566  1.0000
  C   C3660     1.0  0.61862  0.46635  0.40931  1.0000
  H   H2913     1.0  0.54895  0.47886  0.05139  1.0000
  H   H2914     1.0  0.61307  0.42315  0.43700  1.0000
  C   C3661     1.0  0.65729  0.27078  0.24936  1.0000
  C   C3662     1.0  0.73423  0.39803  0.23908  1.0000
  C   C3663     1.0  0.59523  0.39302  0.99680  1.0000
  C   C3664     1.0  0.72090  0.25683  0.03787  1.0000
  C   C3665     1.0  0.74200  0.32141  0.38099  1.0000
  C   C3666     1.0  0.65027  0.46886  0.31377  1.0000
  C   C3667     1.0  0.61665  0.46473  0.38350  1.0000
  C   C3668     1.0  0.74289  0.45956  0.32351  1.0000
  C   C3669     1.0  0.57465  0.48476  0.25799  1.0000
  S   S486      1.0  0.73822  0.30969  0.11772  1.0000
  H   H2915     1.0  0.62232  0.26277  0.33058  1.0000
  H   H2916     1.0  0.60055  0.43085  0.36157  1.0000
  C   C3670     1.0  0.62511  0.40076  0.40951  1.0000
  H   H2917     1.0  0.72243  0.26052  0.31736  1.0000
  C   C3671     1.0  0.63986  0.27428  0.31480  1.0000
  H   H2918     1.0  0.71632  0.39609  0.23695  1.0000
  C   C3672     1.0  0.63347  0.42851  0.37416  1.0000
  C   C3673     1.0  0.74303  0.31000  0.38169  1.0000
  H   H2919     1.0  0.58187  0.47936  0.99688  1.0000
  H   H2920     1.0  0.54179  0.41990  0.98210  1.0000
  C   C3674     1.0  0.59696  0.27663  0.01064  1.0000
  H   H2921     1.0  0.62267  0.47036  0.33801  1.0000
  H   H2922     1.0  0.65548  0.27065  0.99778  1.0000
  C   C3675     1.0  0.74891  0.44902  0.99076  1.0000
  H   H2923     1.0  0.56673  0.46924  0.32761  1.0000
  C   C3676     1.0  0.72724  0.39465  0.19845  1.0000
  C   C3677     1.0  0.64283  0.42537  0.35827  1.0000
  H   H2924     1.0  0.72017  0.39351  0.18809  1.0000
  C   C3678     1.0  0.73859  0.39515  0.18382  1.0000
  C   C3679     1.0  0.63451  0.47984  0.35782  1.0000
  H   H2925     1.0  0.67183  0.46789  0.98626  1.0000
  C   C3680     1.0  0.54697  0.47989  0.23313  1.0000
  C   C3681     1.0  0.66282  0.27026  0.33739  1.0000
  H   H2926     1.0  0.59702  0.40201  0.41086  1.0000
  H   H2927     1.0  0.66719  0.48389  0.03173  1.0000
  H   H2928     1.0  0.58132  0.37843  0.32988  1.0000
  H   H2929     1.0  0.54451  0.36287  0.34879  1.0000
  H   H2930     1.0  0.74336  0.29714  0.01389  1.0000
  C   C3682     1.0  0.59428  0.49371  0.19420  1.0000
  H   H2931     1.0  0.70308  0.27959  0.02133  1.0000
  H   H2932     1.0  0.55967  0.28654  0.39721  1.0000
  H   H2933     1.0  0.66151  0.42955  0.34096  1.0000
  C   C3683     1.0  0.62885  0.29230  0.32149  1.0000
  C   C3684     1.0  0.63690  0.26162  0.23440  1.0000
  C   C3685     1.0  0.57115  0.47634  0.30872  1.0000
  H   H2934     1.0  0.74019  0.39434  0.16216  1.0000
  P   P122      1.0  0.56511  0.49347  0.99691  1.0000
  H   H2935     1.0  0.66919  0.44702  0.45217  1.0000
  C   C3686     1.0  0.55687  0.46506  0.06544  1.0000
  C   C3687     1.0  0.74313  0.28473  0.98865  1.0000
  C   C3688     1.0  0.69196  0.43432  0.44778  1.0000
  C   C3689     1.0  0.58768  0.25350  0.26895  1.0000
  H   H2936     1.0  0.61575  0.27477  0.45551  1.0000
  C   C3690     1.0  0.70925  0.27522  0.25875  1.0000
  H   H2937     1.0  0.72040  0.29990  0.22130  1.0000
  C   C3691     1.0  0.74532  0.29653  0.46806  1.0000
  C   C3692     1.0  0.66412  0.48739  0.28754  1.0000
  C   C3693     1.0  0.74552  0.34019  0.28014  1.0000
  H   H2938     1.0  0.66547  0.44725  0.35923  1.0000
  C   C3694     1.0  0.66175  0.45169  0.01647  1.0000
  C   C3695     1.0  0.73662  0.47219  0.11290  1.0000
  H   H2939     1.0  0.61816  0.49115  0.11446  1.0000
  H   H2940     1.0  0.60123  0.44083  0.01472  1.0000
  S   S487      1.0  0.72033  0.45229  0.99378  1.0000
  C   C3696     1.0  0.55745  0.50009  0.22627  1.0000
  H   H2941     1.0  0.59653  0.48917  0.21269  1.0000
  S   S488      1.0  0.70067  0.26305  0.16030  1.0000
  S   S489      1.0  0.72834  0.27592  0.14836  1.0000
  C   C3697     1.0  0.65344  0.48120  0.30728  1.0000
  C   C3698     1.0  0.68054  0.26234  0.30747  1.0000
  C   C3699     1.0  0.74748  0.26183  0.25757  1.0000
  C   C3700     1.0  0.58232  0.49481  0.26021  1.0000
  H   H2942     1.0  0.52809  0.49724  0.23924  1.0000
  H   H2943     1.0  0.59305  0.38206  0.44150  1.0000
  H   H2944     1.0  0.66494  0.27768  0.20424  1.0000
  C   C3701     1.0  0.60816  0.42667  0.39717  1.0000
  C   C3702     1.0  0.56875  0.47572  0.28263  1.0000
  C   C3703     1.0  0.51259  0.44440  0.43915  1.0000
  C   C3704     1.0  0.72747  0.30774  0.25134  1.0000
  H   H2945     1.0  0.74541  0.33904  0.35528  1.0000
  C   C3705     1.0  0.67547  0.26324  0.07605  1.0000
  C   C3706     1.0  0.73905  0.31804  0.16499  1.0000
  C   C3707     1.0  0.55758  0.48838  0.22719  1.0000
  H   H2946     1.0  0.73634  0.31399  0.28073  1.0000
  H   H2947     1.0  0.68019  0.27258  0.99807  1.0000
  H   H2948     1.0  0.58284  0.46171  0.03083  1.0000
  H   H2949     1.0  0.66466  0.26388  0.04679  1.0000
  C   C3708     1.0  0.61536  0.35978  0.99843  1.0000
  H   H2950     1.0  0.73789  0.32341  0.40031  1.0000
  C   C3709     1.0  0.74484  0.31829  0.13746  1.0000
  C   C3710     1.0  0.61118  0.38276  0.43898  1.0000
  H   H2951     1.0  0.66825  0.25641  0.28456  1.0000
  H   H2952     1.0  0.73060  0.47146  0.13295  1.0000
  C   C3711     1.0  0.66843  0.46908  0.28173  1.0000
  C   C3712     1.0  0.65125  0.26655  0.13364  1.0000
  Fe  Fe245     1.0  0.73952  0.26584  0.39884  1.0000
  H   H2953     1.0  0.54240  0.47716  0.00454  1.0000
  H   H2954     1.0  0.58626  0.38844  0.00794  1.0000
  H   H2955     1.0  0.57349  0.30199  0.01264  1.0000
  H   H2956     1.0  0.52811  0.37497  0.00436  1.0000
  H   H2957     1.0  0.50873  0.42804  0.00420  1.0000
  C   C3713     1.0  0.53638  0.48308  0.23732  1.0000
  C   C3714     1.0  0.52064  0.50204  0.05816  1.0000
  S   S490      1.0  0.62293  0.25984  0.09683  1.0000
  H   H2958     1.0  0.74854  0.35906  0.16215  1.0000
  H   H2959     1.0  0.63884  0.46848  0.47709  1.0000
  H   H2960     1.0  0.74740  0.37475  0.18703  1.0000
  C   C3715     1.0  0.71105  0.26682  0.00613  1.0000
  C   C3716     1.0  0.73929  0.34608  0.23705  1.0000
  C   C3717     1.0  0.64724  0.26414  0.27075  1.0000
  H   H2961     1.0  0.72268  0.42422  0.44971  1.0000
  C   C3718     1.0  0.58709  0.27300  0.06042  1.0000
  C   C3719     1.0  0.67203  0.46041  0.00238  1.0000
  C   C3720     1.0  0.68463  0.44115  0.43916  1.0000
  H   H2962     1.0  0.74669  0.27798  0.19327  1.0000
  H   H2963     1.0  0.70016  0.49248  0.47214  1.0000
  H   H2964     1.0  0.67433  0.46443  0.27211  1.0000
  H   H2965     1.0  0.67992  0.48615  0.26011  1.0000
  C   C3721     1.0  0.74682  0.43694  0.18821  1.0000
  C   C3722     1.0  0.65718  0.27255  0.22073  1.0000
  H   H2966     1.0  0.74002  0.32505  0.20133  1.0000
  H   H2967     1.0  0.74014  0.30290  0.46841  1.0000
  C   C3723     1.0  0.72296  0.43753  0.47276  1.0000
  C   C3724     1.0  0.67133  0.26008  0.05368  1.0000
  C   C3725     1.0  0.63578  0.43870  0.38393  1.0000
  C   C3726     1.0  0.71785  0.26318  0.05770  1.0000
  C   C3727     1.0  0.60433  0.39864  0.41511  1.0000
  C   C3728     1.0  0.55622  0.47502  0.04618  1.0000
  C   C3729     1.0  0.57530  0.46526  0.03494  1.0000
  H   H2968     1.0  0.72076  0.34119  0.24114  1.0000
  P   P123      1.0  0.61863  0.41996  0.37969  1.0000
  H   H2969     1.0  0.73762  0.32279  0.05781  1.0000
  C   C3730     1.0  0.61591  0.40541  0.40293  1.0000
  H   H2970     1.0  0.51950  0.49442  0.04959  1.0000
  H   H2971     1.0  0.56074  0.40842  0.98493  1.0000
  C   C3731     1.0  0.60731  0.42680  0.42570  1.0000
  P   P124      1.0  0.64415  0.48914  0.32450  1.0000
  S   S491      1.0  0.61900  0.35206  0.46845  1.0000
  C   C3732     1.0  0.56301  0.42980  0.02050  1.0000
  C   C3733     1.0  0.60432  0.38817  0.00269  1.0000
  C   C3734     1.0  0.60200  0.38734  0.43281  1.0000
  H   H2972     1.0  0.60682  0.48636  0.08015  1.0000
  H   H2973     1.0  0.60822  0.46135  0.98424  1.0000
  C   C3735     1.0  0.52527  0.42423  0.99017  1.0000
  H   H2974     1.0  0.54682  0.47078  0.23487  1.0000
  C   C3736     1.0  0.59886  0.43144  0.44000  1.0000
  H   H2975     1.0  0.73856  0.48010  0.01847  1.0000
  H   H2976     1.0  0.60939  0.37395  0.45239  1.0000
  H   H2977     1.0  0.58641  0.50227  0.24194  1.0000
  H   H2978     1.0  0.64427  0.26868  0.12471  1.0000
  C   C3737     1.0  0.62039  0.49707  0.04338  1.0000
  H   H2979     1.0  0.55001  0.46116  0.08483  1.0000
  C   C3738     1.0  0.57984  0.49896  0.17003  1.0000
  H   H2980     1.0  0.73314  0.45352  0.11809  1.0000
  H   H2981     1.0  0.65362  0.45246  0.01126  1.0000
  H   H2982     1.0  0.71978  0.25355  0.99733  1.0000
  H   H2983     1.0  0.65253  0.49376  0.05110  1.0000
  C   C3739     1.0  0.62190  0.49497  0.09186  1.0000
  S   S492      1.0  0.72130  0.25991  0.09087  1.0000
  H   H2984     1.0  0.70745  0.42325  0.00871  1.0000
  C   C3740     1.0  0.58256  0.49336  0.19461  1.0000
  C   C3741     1.0  0.74592  0.32322  0.04373  1.0000
  H   H2985     1.0  0.59670  0.27848  0.47371  1.0000
  C   C3742     1.0  0.63523  0.49441  0.30222  1.0000
  H   H2986     1.0  0.62157  0.49480  0.33756  1.0000
  C   C3743     1.0  0.67361  0.27158  0.34416  1.0000
  S   S493      1.0  0.73196  0.25797  0.36660  1.0000
  C   C3744     1.0  0.61751  0.50044  0.29785  1.0000
  C   C3745     1.0  0.74418  0.29470  0.24357  1.0000
  C   C3746     1.0  0.51538  0.42406  0.01061  1.0000
  H   H2987     1.0  0.73850  0.25821  0.18870  1.0000
  S   S494      1.0  0.59785  0.25552  0.39094  1.0000
  C   C3747     1.0  0.62270  0.38949  0.42761  1.0000
  H   H2988     1.0  0.60291  0.42422  0.99374  1.0000
  C   C3748     1.0  0.60319  0.49979  0.16971  1.0000
  C   C3749     1.0  0.63214  0.50147  0.25555  1.0000
  C   C3750     1.0  0.74463  0.30225  0.26169  1.0000
  H   H2989     1.0  0.67512  0.27564  0.36106  1.0000
  C   C3751     1.0  0.51025  0.43795  0.46739  1.0000
  C   C3752     1.0  0.51416  0.41890  0.03927  1.0000
  C   C3753     1.0  0.74820  0.34577  0.25103  1.0000
  H   H2990     1.0  0.66583  0.49228  0.34298  1.0000
  H   H2991     1.0  0.74492  0.28041  0.30000  1.0000
  C   C3754     1.0  0.66398  0.50100  0.42137  1.0000
  C   C3755     1.0  0.67220  0.25476  0.45021  1.0000
  H   H2992     1.0  0.63449  0.25509  0.36827  1.0000
  H   H2993     1.0  0.52342  0.48049  0.99897  1.0000
  P   P125      1.0  0.74605  0.44474  0.28742  1.0000
  H   H2994     1.0  0.60929  0.33055  0.98981  1.0000
  C   C3756     1.0  0.62449  0.49632  0.31473  1.0000
  H   H2995     1.0  0.59725  0.27433  0.99063  1.0000
  H   H2996     1.0  0.59815  0.43142  0.46209  1.0000
  H   H2997     1.0  0.61224  0.50024  0.16958  1.0000
  H   H2998     1.0  0.61548  0.49495  0.02830  1.0000
  C   C3757     1.0  0.74788  0.44489  0.36852  1.0000
  H   H2999     1.0  0.74151  0.35001  0.21437  1.0000
  C   C3758     1.0  0.74813  0.30734  0.35675  1.0000
  C   C3759     1.0  0.61382  0.27685  0.47589  1.0000
  C   C3760     1.0  0.66065  0.49903  0.03624  1.0000
  H   H3000     1.0  0.60429  0.30927  0.99271  1.0000
  H   H3001     1.0  0.74644  0.48874  0.46133  1.0000
  C   C3761     1.0  0.61589  0.39395  0.98803  1.0000
  H   H3002     1.0  0.58017  0.25709  0.26909  1.0000
  C   C3762     1.0  0.66893  0.49338  0.02533  1.0000
  H   H3003     1.0  0.57084  0.49857  0.16957  1.0000
  H   H3004     1.0  0.53659  0.49980  0.06885  1.0000
  C   C3763     1.0  0.65329  0.50167  0.33103  1.0000
  H   H3005     1.0  0.60919  0.50172  0.30780  1.0000
  H   H3006     1.0  0.74878  0.29843  0.35727  1.0000
  C   C3764     1.0  0.66345  0.50058  0.33983  1.0000
  C   C3765     1.0  0.62783  0.33233  0.98034  1.0000
  H   H3007     1.0  0.53200  0.27962  0.98954  1.0000
  P   P126      1.0  0.61870  0.29275  0.98447  1.0000
  C   C3766     1.0  0.61149  0.25292  0.00717  1.0000
  C   C3767     1.0  0.60521  0.44248  0.99220  1.0000
  H   H3008     1.0  0.50926  0.49877  0.18869  1.0000
  H   H3009     1.0  0.68572  0.49555  0.99679  1.0000
  C   C3768     1.0  0.74252  0.49566  0.98441  1.0000
  H   H3010     1.0  0.74474  0.48263  0.19902  1.0000
  H   H3011     1.0  0.63464  0.47098  0.98525  1.0000
  C   C3769     1.0  0.68954  0.42802  0.47622  1.0000
  S   S495      1.0  0.70641  0.27010  0.47236  1.0000
  C   C3770     1.0  0.49980  0.42916  0.48003  1.0000
  H   H3012     1.0  0.51668  0.43971  0.47928  1.0000
  C   C3771     1.0  0.67346  0.25826  0.98074  1.0000
  H   H3013     1.0  0.51453  0.41409  0.47631  1.0000
  H   H3014     1.0  0.67161  0.25315  0.55945  1.0000
  C   C3772     1.0  0.64227  0.43620  0.69242  1.0000
  H   H3015     1.0  0.74594  0.46311  0.81034  1.0000
  C   C3773     1.0  0.62863  0.46742  0.86193  1.0000
  C   C3774     1.0  0.71155  0.26909  0.50350  1.0000
  S   S496      1.0  0.72712  0.27583  0.90151  1.0000
  C   C3775     1.0  0.57999  0.30382  0.53761  1.0000
  C   C3776     1.0  0.72149  0.30054  0.85292  1.0000
  Fe  Fe246     1.0  0.60627  0.35037  0.87803  1.0000
  S   S497      1.0  0.61948  0.35256  0.83663  1.0000
  C   C3777     1.0  0.64082  0.46910  0.85554  1.0000
  S   S498      1.0  0.58718  0.34141  0.88900  1.0000
  H   H3016     1.0  0.60248  0.29973  0.74381  1.0000
  S   S499      1.0  0.73207  0.46758  0.91359  1.0000
  S   S500      1.0  0.70378  0.46239  0.93569  1.0000
  Fe  Fe247     1.0  0.71901  0.46509  0.95493  1.0000
  C   C3778     1.0  0.50907  0.45874  0.86710  1.0000
  Fe  Fe248     1.0  0.71692  0.46671  0.89357  1.0000
  S   S501      1.0  0.71450  0.45447  0.86466  1.0000
  Fe  Fe249     1.0  0.64659  0.37576  0.63519  1.0000
  S   S502      1.0  0.63021  0.38195  0.63607  1.0000
  S   S503      1.0  0.66480  0.38784  0.62573  1.0000
  Fe  Fe250     1.0  0.63327  0.34996  0.65121  1.0000
  S   S504      1.0  0.61600  0.35426  0.65397  1.0000
  S   S505      1.0  0.63313  0.33096  0.66675  1.0000
  Fe  Fe251     1.0  0.62512  0.36804  0.61323  1.0000
  S   S506      1.0  0.61464  0.37082  0.58024  1.0000
  Fe  Fe252     1.0  0.62254  0.36752  0.67654  1.0000
  S   S507      1.0  0.61040  0.36968  0.71537  1.0000
  S   S508      1.0  0.64222  0.36294  0.60895  1.0000
  S   S509      1.0  0.63921  0.36217  0.67689  1.0000
  Fe  Fe253     1.0  0.71183  0.45747  0.64728  1.0000
  S   S510      1.0  0.71062  0.43818  0.65362  1.0000
  S   S511      1.0  0.71512  0.47139  0.60622  1.0000
  Fe  Fe254     1.0  0.70809  0.45611  0.71098  1.0000
  S   S512      1.0  0.70621  0.43666  0.72258  1.0000
  S   S513      1.0  0.70764  0.46849  0.73981  1.0000
  Fe  Fe255     1.0  0.72158  0.44062  0.68466  1.0000
  C   C3779     1.0  0.57938  0.27880  0.93520  1.0000
  Fe  Fe256     1.0  0.69540  0.43575  0.69071  1.0000
  S   S514      1.0  0.67733  0.42337  0.70059  1.0000
  S   S515      1.0  0.72408  0.46016  0.67500  1.0000
  S   S516      1.0  0.69596  0.45492  0.68240  1.0000
  C   C3780     1.0  0.69764  0.40816  0.76279  1.0000
  Fe  Fe257     1.0  0.62396  0.27743  0.60876  1.0000
  S   S517      1.0  0.62902  0.29675  0.58636  1.0000
  C   C3781     1.0  0.60717  0.29644  0.81581  1.0000
  H   H3017     1.0  0.65193  0.27933  0.57750  1.0000
  C   C3782     1.0  0.49970  0.49579  0.73220  1.0000
  Fe  Fe258     1.0  0.53578  0.47844  0.64030  1.0000
  S   S518      1.0  0.52952  0.45892  0.65537  1.0000
  S   S519      1.0  0.55507  0.48594  0.63001  1.0000
  H   H3018     1.0  0.67302  0.29458  0.68302  1.0000
  S   S520      1.0  0.60608  0.48760  0.95882  1.0000
  Fe  Fe259     1.0  0.56871  0.45050  0.88924  1.0000
  C   C3783     1.0  0.58491  0.28285  0.58470  1.0000
  S   S521      1.0  0.58774  0.46037  0.87433  1.0000
  C   C3784     1.0  0.64325  0.39836  0.55710  1.0000
  C   C3785     1.0  0.66835  0.29703  0.60797  1.0000
  S   S522      1.0  0.57467  0.26915  0.89096  1.0000
  Fe  Fe260     1.0  0.54779  0.44492  0.86420  1.0000
  H   H3019     1.0  0.52561  0.40864  0.56798  1.0000
  H   H3020     1.0  0.59759  0.26722  0.82106  1.0000
  H   H3021     1.0  0.59192  0.28295  0.84173  1.0000
  S   S523      1.0  0.56285  0.43666  0.86762  1.0000
  H   H3022     1.0  0.64183  0.41936  0.85389  1.0000
  C   C3786     1.0  0.60101  0.48002  0.93527  1.0000
  C   C3787     1.0  0.59164  0.46996  0.94582  1.0000
  C   C3788     1.0  0.58741  0.46395  0.92714  1.0000
  C   C3789     1.0  0.59276  0.46778  0.89802  1.0000
  C   C3790     1.0  0.60233  0.47761  0.88755  1.0000
  C   C3791     1.0  0.60637  0.48378  0.90611  1.0000
  S   S524      1.0  0.50442  0.49896  0.64125  1.0000
  H   H3023     1.0  0.60644  0.46677  0.54619  1.0000
  H   H3024     1.0  0.60644  0.48063  0.86497  1.0000
  H   H3025     1.0  0.72462  0.30953  0.58089  1.0000
  C   C3792     1.0  0.72557  0.26826  0.74901  1.0000
  H   H3026     1.0  0.63280  0.35236  0.50885  1.0000
  S   S525      1.0  0.55442  0.45935  0.88389  1.0000
  H   H3027     1.0  0.53691  0.46200  0.72640  1.0000
  H   H3028     1.0  0.54996  0.46212  0.75914  1.0000
  H   H3029     1.0  0.62188  0.41558  0.88385  1.0000
  H   H3030     1.0  0.57833  0.42226  0.95258  1.0000
  S   S526      1.0  0.71832  0.48611  0.88458  1.0000
  C   C3793     1.0  0.74518  0.32132  0.51786  1.0000
  H   H3031     1.0  0.74524  0.44463  0.61363  1.0000
  H   H3032     1.0  0.53259  0.47268  0.50050  1.0000
  C   C3794     1.0  0.57887  0.31083  0.81502  1.0000
  C   C3795     1.0  0.66435  0.26290  0.50819  1.0000
  C   C3796     1.0  0.53340  0.45762  0.74875  1.0000
  H   H3033     1.0  0.61281  0.31022  0.56561  1.0000
  C   C3797     1.0  0.71173  0.29894  0.87536  1.0000
  C   C3798     1.0  0.74170  0.48678  0.50666  1.0000
  H   H3034     1.0  0.55991  0.48489  0.82813  1.0000
  Fe  Fe261     1.0  0.55221  0.42611  0.91131  1.0000
  H   H3035     1.0  0.63479  0.39756  0.57100  1.0000
  H   H3036     1.0  0.67063  0.31940  0.70536  1.0000
  C   C3799     1.0  0.56634  0.26159  0.49248  1.0000
  S   S527      1.0  0.60535  0.26713  0.62701  1.0000
  C   C3800     1.0  0.66808  0.39781  0.64646  1.0000
  C   C3801     1.0  0.67971  0.40418  0.64182  1.0000
  C   C3802     1.0  0.68266  0.41211  0.65805  1.0000
  C   C3803     1.0  0.67397  0.41378  0.67905  1.0000
  C   C3804     1.0  0.66230  0.40761  0.68325  1.0000
  C   C3805     1.0  0.65935  0.39964  0.66709  1.0000
  H   H3037     1.0  0.68650  0.40292  0.62570  1.0000
  H   H3038     1.0  0.69166  0.41684  0.65447  1.0000
  H   H3039     1.0  0.65550  0.40886  0.69933  1.0000
  H   H3040     1.0  0.65035  0.39485  0.67077  1.0000
  C   C3806     1.0  0.63054  0.32179  0.64411  1.0000
  C   C3807     1.0  0.62677  0.30963  0.65575  1.0000
  C   C3808     1.0  0.62637  0.30191  0.63816  1.0000
  C   C3809     1.0  0.62930  0.30634  0.60871  1.0000
  C   C3810     1.0  0.63236  0.31854  0.59699  1.0000
  C   C3811     1.0  0.63294  0.32628  0.61469  1.0000
  H   H3041     1.0  0.62428  0.30617  0.67850  1.0000
  H   H3042     1.0  0.62386  0.29253  0.64737  1.0000
  H   H3043     1.0  0.63443  0.32203  0.57419  1.0000
  H   H3044     1.0  0.63560  0.33567  0.60552  1.0000
  C   C3812     1.0  0.61058  0.28805  0.90011  1.0000
  C   C3813     1.0  0.70354  0.45166  0.55566  1.0000
  C   C3814     1.0  0.70616  0.45507  0.57948  1.0000
  C   C3815     1.0  0.71087  0.46690  0.57749  1.0000
  C   C3816     1.0  0.71258  0.47533  0.55187  1.0000
  C   C3817     1.0  0.71020  0.47189  0.52785  1.0000
  H   H3045     1.0  0.69989  0.44248  0.55742  1.0000
  H   H3046     1.0  0.70460  0.44853  0.59927  1.0000
  H   H3047     1.0  0.71608  0.48452  0.55032  1.0000
  C   C3818     1.0  0.57112  0.49290  0.96104  1.0000
  C   C3819     1.0  0.71311  0.45872  0.82955  1.0000
  C   C3820     1.0  0.71358  0.47033  0.81655  1.0000
  C   C3821     1.0  0.71197  0.47325  0.78892  1.0000
  C   C3822     1.0  0.71009  0.46462  0.77396  1.0000
  C   C3823     1.0  0.70988  0.45306  0.78675  1.0000
  C   C3824     1.0  0.71135  0.45012  0.81446  1.0000
  H   H3048     1.0  0.71515  0.47704  0.82782  1.0000
  H   H3049     1.0  0.71223  0.48223  0.77907  1.0000
  H   H3050     1.0  0.70835  0.44634  0.77548  1.0000
  H   H3051     1.0  0.71103  0.44113  0.82436  1.0000
  C   C3825     1.0  0.74029  0.32013  0.64894  1.0000
  H   H3052     1.0  0.74435  0.26158  0.61513  1.0000
  H   H3053     1.0  0.64909  0.48728  0.64261  1.0000
  C   C3826     1.0  0.60013  0.28086  0.51358  1.0000
  C   C3827     1.0  0.52457  0.47188  0.82780  1.0000
  C   C3828     1.0  0.65385  0.26617  0.51591  1.0000
  S   S528      1.0  0.70965  0.26308  0.66475  1.0000
  S   S529      1.0  0.73338  0.28442  0.63701  1.0000
  S   S530      1.0  0.62996  0.26896  0.64586  1.0000
  C   C3829     1.0  0.65440  0.43807  0.68514  1.0000
  C   C3830     1.0  0.61689  0.35789  0.80333  1.0000
  C   C3831     1.0  0.62525  0.35837  0.77872  1.0000
  C   C3832     1.0  0.62339  0.36208  0.75172  1.0000
  C   C3833     1.0  0.61319  0.36546  0.74903  1.0000
  C   C3834     1.0  0.60494  0.36530  0.77365  1.0000
  C   C3835     1.0  0.60676  0.36147  0.80080  1.0000
  H   H3054     1.0  0.63324  0.35596  0.78046  1.0000
  H   H3055     1.0  0.62988  0.36232  0.73306  1.0000
  H   H3056     1.0  0.59704  0.36797  0.77175  1.0000
  H   H3057     1.0  0.60029  0.36121  0.81968  1.0000
  S   S531      1.0  0.59964  0.25265  0.70655  1.0000
  C   C3836     1.0  0.60768  0.36106  0.51045  1.0000
  C   C3837     1.0  0.60704  0.36533  0.53494  1.0000
  C   C3838     1.0  0.61557  0.36483  0.55032  1.0000
  C   C3839     1.0  0.62473  0.35990  0.54108  1.0000
  C   C3840     1.0  0.62555  0.35593  0.51616  1.0000
  C   C3841     1.0  0.64795  0.49519  0.84700  1.0000
  H   H3058     1.0  0.59987  0.36906  0.54203  1.0000
  H   H3059     1.0  0.63129  0.35935  0.55283  1.0000
  H   H3060     1.0  0.73970  0.42679  0.75952  1.0000
  H   H3061     1.0  0.60277  0.30114  0.61570  1.0000
  C   C3842     1.0  0.60859  0.28153  0.52920  1.0000
  C   C3843     1.0  0.51000  0.41548  0.51976  1.0000
  H   H3062     1.0  0.61588  0.27186  0.78310  1.0000
  H   H3063     1.0  0.65845  0.43276  0.67298  1.0000
  P   P127      1.0  0.74696  0.44953  0.51400  1.0000
  C   C3844     1.0  0.69790  0.48480  0.67822  1.0000
  H   H3064     1.0  0.68443  0.44162  0.80940  1.0000
  C   C3845     1.0  0.57983  0.49159  0.90532  1.0000
  C   C3846     1.0  0.66472  0.28646  0.50664  1.0000
  C   C3847     1.0  0.56188  0.45003  0.63696  1.0000
  C   C3848     1.0  0.57226  0.44746  0.64123  1.0000
  C   C3849     1.0  0.58301  0.45561  0.62751  1.0000
  C   C3850     1.0  0.60848  0.46936  0.58694  1.0000
  C   C3851     1.0  0.61439  0.46679  0.60811  1.0000
  C   C3852     1.0  0.62297  0.46057  0.60443  1.0000
  C   C3853     1.0  0.62563  0.45677  0.57973  1.0000
  C   C3854     1.0  0.61961  0.45905  0.55889  1.0000
  C   C3855     1.0  0.61104  0.46527  0.56249  1.0000
  H   H3065     1.0  0.55352  0.44380  0.64781  1.0000
  H   H3066     1.0  0.57194  0.43918  0.65540  1.0000
  H   H3067     1.0  0.59090  0.45347  0.63141  1.0000
  H   H3068     1.0  0.61227  0.46943  0.62768  1.0000
  H   H3069     1.0  0.62749  0.45862  0.62083  1.0000
  H   H3070     1.0  0.63224  0.45191  0.57690  1.0000
  H   H3071     1.0  0.62154  0.45593  0.53994  1.0000
  C   C3856     1.0  0.51010  0.48728  0.76481  1.0000
  C   C3857     1.0  0.59064  0.48642  0.51414  1.0000
  H   H3072     1.0  0.60819  0.28214  0.73286  1.0000
  Fe  Fe262     1.0  0.71863  0.26592  0.87414  1.0000
  H   H3073     1.0  0.57526  0.31942  0.54564  1.0000
  P   P128      1.0  0.58620  0.28359  0.52752  1.0000
  C   C3858     1.0  0.61688  0.32312  0.73987  1.0000
  C   C3859     1.0  0.66381  0.40844  0.53711  1.0000
  C   C3860     1.0  0.65283  0.40758  0.55482  1.0000
  P   P129      1.0  0.67634  0.42032  0.53303  1.0000
  C   C3861     1.0  0.67341  0.42888  0.55831  1.0000
  C   C3862     1.0  0.68815  0.41447  0.54187  1.0000
  C   C3863     1.0  0.68590  0.40295  0.55869  1.0000
  C   C3864     1.0  0.69494  0.39874  0.56724  1.0000
  C   C3865     1.0  0.70630  0.40600  0.55906  1.0000
  C   C3866     1.0  0.70860  0.41751  0.54250  1.0000
  C   C3867     1.0  0.69953  0.42178  0.53424  1.0000
  C   C3868     1.0  0.67552  0.44116  0.54961  1.0000
  C   C3869     1.0  0.67437  0.44770  0.56980  1.0000
  C   C3870     1.0  0.67111  0.44204  0.59881  1.0000
  C   C3871     1.0  0.66890  0.42982  0.60762  1.0000
  C   C3872     1.0  0.67010  0.42328  0.58749  1.0000
  C   C3873     1.0  0.60915  0.45402  0.97514  1.0000
  C   C3874     1.0  0.56026  0.30777  0.86247  1.0000
  S   S532      1.0  0.68081  0.27227  0.68744  1.0000
  Fe  Fe263     1.0  0.73826  0.26308  0.90342  1.0000
  H   H3074     1.0  0.73201  0.29200  0.57637  1.0000
  C   C3875     1.0  0.59806  0.30717  0.50168  1.0000
  H   H3075     1.0  0.73846  0.30226  0.67156  1.0000
  H   H3076     1.0  0.64401  0.25281  0.67166  1.0000
  C   C3876     1.0  0.64885  0.28180  0.96867  1.0000
  C   C3877     1.0  0.64242  0.46512  0.94940  1.0000
  H   H3077     1.0  0.65160  0.41394  0.56690  1.0000
  H   H3078     1.0  0.67711  0.39727  0.56596  1.0000
  H   H3079     1.0  0.69302  0.38991  0.58074  1.0000
  H   H3080     1.0  0.71328  0.40276  0.56589  1.0000
  C   C3878     1.0  0.71491  0.27117  0.75617  1.0000
  H   H3081     1.0  0.63416  0.30692  0.87836  1.0000
  C   C3879     1.0  0.61646  0.28085  0.94274  1.0000
  C   C3880     1.0  0.66498  0.40011  0.52136  1.0000
  H   H3082     1.0  0.67055  0.44712  0.61444  1.0000
  H   H3083     1.0  0.66655  0.42539  0.63003  1.0000
  H   H3084     1.0  0.66867  0.41384  0.59466  1.0000
  H   H3085     1.0  0.50625  0.45156  0.88621  1.0000
  C   C3881     1.0  0.57641  0.26528  0.62348  1.0000
  H   H3086     1.0  0.55557  0.28372  0.89221  1.0000
  C   C3882     1.0  0.74622  0.47150  0.48474  1.0000
  C   C3883     1.0  0.58209  0.27723  0.61366  1.0000
  C   C3884     1.0  0.65850  0.25552  0.63560  1.0000
  H   H3087     1.0  0.58463  0.28203  0.62841  1.0000
  H   H3088     1.0  0.58973  0.29199  0.57751  1.0000
  C   C3885     1.0  0.58941  0.42903  0.88577  1.0000
  C   C3886     1.0  0.58564  0.41807  0.88073  1.0000
  C   C3887     1.0  0.59007  0.40875  0.89161  1.0000
  C   C3888     1.0  0.59813  0.41033  0.90791  1.0000
  C   C3889     1.0  0.60183  0.42128  0.91353  1.0000
  C   C3890     1.0  0.59749  0.43068  0.90202  1.0000
  P   P130      1.0  0.61237  0.42318  0.93444  1.0000
  H   H3089     1.0  0.64549  0.25972  0.52288  1.0000
  C   C3891     1.0  0.62695  0.42630  0.91160  1.0000
  Fe  Fe264     1.0  0.71436  0.26217  0.93846  1.0000
  S   S533      1.0  0.50309  0.46274  0.66231  1.0000
  S   S534      1.0  0.61848  0.36004  0.96188  1.0000
  H   H3090     1.0  0.68691  0.26802  0.63184  1.0000
  C   C3892     1.0  0.63647  0.43339  0.91745  1.0000
  H   H3091     1.0  0.51945  0.47898  0.89906  1.0000
  H   H3092     1.0  0.56808  0.29590  0.80697  1.0000
  C   C3893     1.0  0.61115  0.43515  0.95084  1.0000
  C   C3894     1.0  0.61535  0.44679  0.93411  1.0000
  C   C3895     1.0  0.61423  0.45615  0.94611  1.0000
  H   H3093     1.0  0.57232  0.49415  0.65727  1.0000
  H   H3094     1.0  0.61974  0.47362  0.48268  1.0000
  C   C3896     1.0  0.60291  0.27872  0.48657  1.0000
  H   H3095     1.0  0.58597  0.43624  0.87728  1.0000
  H   H3096     1.0  0.57917  0.41677  0.86864  1.0000
  H   H3097     1.0  0.58710  0.40023  0.88772  1.0000
  H   H3098     1.0  0.60138  0.40292  0.91622  1.0000
  H   H3099     1.0  0.60005  0.43924  0.90578  1.0000
  H   H3100     1.0  0.54322  0.32937  0.88502  1.0000
  H   H3101     1.0  0.52617  0.42823  0.96800  1.0000
  C   C3897     1.0  0.55939  0.30036  0.84414  1.0000
  H   H3102     1.0  0.64344  0.45717  0.96239  1.0000
  H   H3103     1.0  0.50801  0.41548  0.56411  1.0000
  H   H3104     1.0  0.73716  0.48211  0.55252  1.0000
  Fe  Fe265     1.0  0.61018  0.25416  0.60305  1.0000
  H   H3105     1.0  0.61940  0.44860  0.91167  1.0000
  H   H3106     1.0  0.61727  0.46511  0.93291  1.0000
  H   H3107     1.0  0.55295  0.28388  0.48345  1.0000
  C   C3898     1.0  0.73877  0.44161  0.91856  1.0000
  C   C3899     1.0  0.74221  0.49127  0.60446  1.0000
  C   C3900     1.0  0.63944  0.29791  0.70366  1.0000
  C   C3901     1.0  0.63651  0.28563  0.71126  1.0000
  C   C3902     1.0  0.64264  0.27968  0.69480  1.0000
  C   C3903     1.0  0.65160  0.28596  0.67060  1.0000
  C   C3904     1.0  0.65441  0.29827  0.66236  1.0000
  C   C3905     1.0  0.64831  0.30421  0.67926  1.0000
  P   P131      1.0  0.66665  0.30620  0.63235  1.0000
  C   C3906     1.0  0.66445  0.32005  0.61489  1.0000
  C   C3907     1.0  0.66433  0.34033  0.61406  1.0000
  C   C3908     1.0  0.66584  0.32952  0.62746  1.0000
  H   H3108     1.0  0.63458  0.30262  0.71596  1.0000
  H   H3109     1.0  0.62942  0.28068  0.72962  1.0000
  H   H3110     1.0  0.64039  0.27018  0.70055  1.0000
  H   H3111     1.0  0.65633  0.28120  0.65823  1.0000
  H   H3112     1.0  0.65013  0.31368  0.67335  1.0000
  H   H3113     1.0  0.66505  0.34749  0.62426  1.0000
  H   H3114     1.0  0.66799  0.32852  0.64775  1.0000
  H   H3115     1.0  0.65005  0.29301  0.60786  1.0000
  C   C3909     1.0  0.65816  0.35484  0.75694  1.0000
  C   C3910     1.0  0.65910  0.35819  0.72774  1.0000
  C   C3911     1.0  0.66026  0.36992  0.71434  1.0000
  C   C3912     1.0  0.66029  0.37826  0.73015  1.0000
  C   C3913     1.0  0.65935  0.37502  0.75943  1.0000
  C   C3914     1.0  0.65833  0.36322  0.77277  1.0000
  P   P132      1.0  0.65975  0.38613  0.77907  1.0000
  C   C3915     1.0  0.65401  0.37908  0.81670  1.0000
  C   C3916     1.0  0.67458  0.39483  0.77245  1.0000
  C   C3917     1.0  0.67795  0.40023  0.79308  1.0000
  C   C3918     1.0  0.68945  0.40680  0.78832  1.0000
  C   C3919     1.0  0.69427  0.40319  0.74177  1.0000
  C   C3920     1.0  0.68280  0.39656  0.74651  1.0000
  C   C3921     1.0  0.64229  0.37784  0.83045  1.0000
  C   C3922     1.0  0.63798  0.37236  0.85951  1.0000
  C   C3923     1.0  0.64525  0.36796  0.87509  1.0000
  C   C3924     1.0  0.65689  0.36902  0.86154  1.0000
  C   C3925     1.0  0.66125  0.37452  0.83245  1.0000
  C   C3926     1.0  0.65076  0.39548  0.76729  1.0000
  C   C3927     1.0  0.64006  0.39048  0.76233  1.0000
  C   C3928     1.0  0.63299  0.39755  0.75325  1.0000
  C   C3929     1.0  0.63657  0.40971  0.74889  1.0000
  C   C3930     1.0  0.64729  0.41482  0.75340  1.0000
  C   C3931     1.0  0.65437  0.40773  0.76258  1.0000
  H   H3116     1.0  0.65728  0.34573  0.76729  1.0000
  H   H3117     1.0  0.65893  0.35174  0.71543  1.0000
  H   H3118     1.0  0.66111  0.37261  0.69163  1.0000
  H   H3119     1.0  0.66111  0.38727  0.71952  1.0000
  H   H3120     1.0  0.65752  0.36042  0.79533  1.0000
  H   H3121     1.0  0.67168  0.39939  0.81283  1.0000
  H   H3122     1.0  0.69204  0.41088  0.80434  1.0000
  H   H3123     1.0  0.68041  0.39296  0.72969  1.0000
  H   H3124     1.0  0.63632  0.38087  0.81893  1.0000
  H   H3125     1.0  0.62889  0.37127  0.86984  1.0000
  H   H3126     1.0  0.64177  0.36363  0.89758  1.0000
  H   H3127     1.0  0.66251  0.36553  0.87358  1.0000
  H   H3128     1.0  0.67025  0.37514  0.82218  1.0000
  H   H3129     1.0  0.63718  0.38109  0.76556  1.0000
  H   H3130     1.0  0.62475  0.39353  0.74946  1.0000
  H   H3131     1.0  0.63109  0.41517  0.74175  1.0000
  H   H3132     1.0  0.65024  0.42427  0.74922  1.0000
  H   H3133     1.0  0.66273  0.41189  0.76532  1.0000
  C   C3932     1.0  0.60461  0.28751  0.71836  1.0000
  H   H3134     1.0  0.61220  0.33038  0.54271  1.0000
  H   H3135     1.0  0.63200  0.48365  0.62240  1.0000
  C   C3933     1.0  0.73176  0.26623  0.76976  1.0000
  C   C3934     1.0  0.52999  0.40750  0.52458  1.0000
  C   C3935     1.0  0.68728  0.48035  0.64382  1.0000
  C   C3936     1.0  0.65855  0.29152  0.60012  1.0000
  H   H3136     1.0  0.60564  0.27680  0.68873  1.0000
  H   H3137     1.0  0.60112  0.34129  0.57050  1.0000
  C   C3937     1.0  0.68024  0.30196  0.67061  1.0000
  H   H3138     1.0  0.70054  0.40458  0.72160  1.0000
  C   C3938     1.0  0.60139  0.29740  0.72443  1.0000
  C   C3939     1.0  0.60305  0.28440  0.69363  1.0000
  C   C3940     1.0  0.54079  0.45760  0.76739  1.0000
  C   C3941     1.0  0.58344  0.46639  0.60922  1.0000
  C   C3942     1.0  0.63758  0.33381  0.83459  1.0000
  S   S535      1.0  0.52473  0.48066  0.60958  1.0000
  H   H3139     1.0  0.59055  0.33229  0.62030  1.0000
  H   H3140     1.0  0.72360  0.43818  0.90215  1.0000
  H   H3141     1.0  0.70591  0.48871  0.68311  1.0000
  C   C3943     1.0  0.67759  0.26452  0.64078  1.0000
  C   C3944     1.0  0.67960  0.30913  0.64514  1.0000
  C   C3945     1.0  0.52548  0.44168  0.55115  1.0000
  H   H3142     1.0  0.53191  0.43614  0.51336  1.0000
  H   H3143     1.0  0.52346  0.43301  0.56532  1.0000
  C   C3946     1.0  0.60145  0.33252  0.58058  1.0000
  C   C3947     1.0  0.64779  0.43556  0.90020  1.0000
  H   H3144     1.0  0.53706  0.47461  0.91233  1.0000
  P   P133      1.0  0.59722  0.47717  0.59236  1.0000
  C   C3948     1.0  0.53578  0.48664  0.73626  1.0000
  H   H3145     1.0  0.71542  0.43027  0.60137  1.0000
  H   H3146     1.0  0.62597  0.28048  0.53047  1.0000
  C   C3949     1.0  0.67921  0.29475  0.59804  1.0000
  Fe  Fe266     1.0  0.51745  0.46116  0.62687  1.0000
  C   C3950     1.0  0.53026  0.44343  0.52173  1.0000
  C   C3951     1.0  0.59659  0.30418  0.70575  1.0000
  C   C3952     1.0  0.59808  0.29101  0.67518  1.0000
  C   C3953     1.0  0.59559  0.32738  0.60918  1.0000
  H   H3147     1.0  0.59654  0.28801  0.65698  1.0000
  C   C3954     1.0  0.68934  0.48497  0.83548  1.0000
  Fe  Fe267     1.0  0.58998  0.33126  0.92936  1.0000
  C   C3955     1.0  0.63082  0.30992  0.83683  1.0000
  C   C3956     1.0  0.66176  0.32167  0.58839  1.0000
  C   C3957     1.0  0.66169  0.34186  0.58769  1.0000
  H   H3148     1.0  0.57993  0.45645  0.93522  1.0000
  S   S536      1.0  0.51632  0.44813  0.59934  1.0000
  C   C3958     1.0  0.52329  0.45105  0.56250  1.0000
  S   S537      1.0  0.52333  0.48171  0.67581  1.0000
  C   C3959     1.0  0.59488  0.30106  0.68081  1.0000
  C   C3960     1.0  0.60765  0.32636  0.56489  1.0000
  H   H3149     1.0  0.59399  0.31164  0.71138  1.0000
  H   H3150     1.0  0.56353  0.30956  0.68814  1.0000
  S   S538      1.0  0.60395  0.36505  0.89828  1.0000
  H   H3151     1.0  0.56066  0.30891  0.93618  1.0000
  H   H3152     1.0  0.56236  0.38320  0.87119  1.0000
  H   H3153     1.0  0.66034  0.35018  0.57752  1.0000
  H   H3154     1.0  0.69098  0.29821  0.69916  1.0000
  H   H3155     1.0  0.55655  0.32409  0.71085  1.0000
  H   H3156     1.0  0.68488  0.28170  0.90781  1.0000
  C   C3961     1.0  0.53278  0.45461  0.50322  1.0000
  Fe  Fe268     1.0  0.51616  0.46217  0.68929  1.0000
  C   C3962     1.0  0.56979  0.31737  0.68816  1.0000
  C   C3963     1.0  0.56578  0.32559  0.70117  1.0000
  C   C3964     1.0  0.59606  0.31603  0.62267  1.0000
  H   H3157     1.0  0.61215  0.45710  0.85991  1.0000
  H   H3158     1.0  0.52725  0.45875  0.86068  1.0000
  H   H3159     1.0  0.61100  0.30776  0.94005  1.0000
  H   H3160     1.0  0.74164  0.49262  0.84325  1.0000
  S   S539      1.0  0.62841  0.26517  0.58229  1.0000
  H   H3161     1.0  0.57986  0.29431  0.86956  1.0000
  H   H3162     1.0  0.66050  0.31457  0.57820  1.0000
  C   C3965     1.0  0.66048  0.33256  0.57480  1.0000
  C   C3966     1.0  0.69045  0.30400  0.67989  1.0000
  H   H3163     1.0  0.70657  0.41324  0.75903  1.0000
  H   H3164     1.0  0.55201  0.26559  0.92932  1.0000
  H   H3165     1.0  0.52749  0.32067  0.82225  1.0000
  P   P134      1.0  0.58714  0.30879  0.65860  1.0000
  C   C3967     1.0  0.58175  0.31933  0.67533  1.0000
  C   C3968     1.0  0.60796  0.31501  0.57779  1.0000
  C   C3969     1.0  0.53648  0.45173  0.79647  1.0000
  S   S540      1.0  0.54636  0.45234  0.81881  1.0000
  C   C3970     1.0  0.52601  0.46226  0.54404  1.0000
  C   C3971     1.0  0.54902  0.48942  0.88042  1.0000
  C   C3972     1.0  0.51560  0.30760  0.85844  1.0000
  C   C3973     1.0  0.58035  0.29256  0.89142  1.0000
  H   H3166     1.0  0.53527  0.29791  0.95241  1.0000
  C   C3974     1.0  0.65958  0.28379  0.58283  1.0000
  C   C3975     1.0  0.68020  0.28707  0.58057  1.0000
  H   H3167     1.0  0.67130  0.44089  0.73604  1.0000
  H   H3168     1.0  0.68686  0.29861  0.60426  1.0000
  H   H3169     1.0  0.62852  0.29200  0.76579  1.0000
  C   C3976     1.0  0.57367  0.33579  0.70151  1.0000
  C   C3977     1.0  0.60228  0.30989  0.60653  1.0000
  H   H3170     1.0  0.57272  0.28595  0.69594  1.0000
  C   C3978     1.0  0.53064  0.46399  0.51459  1.0000
  H   H3171     1.0  0.57056  0.34221  0.71136  1.0000
  H   H3172     1.0  0.63688  0.42951  0.68559  1.0000
  H   H3173     1.0  0.52811  0.48462  0.72845  1.0000
  H   H3174     1.0  0.58754  0.47055  0.54669  1.0000
  S   S541      1.0  0.60929  0.33935  0.91680  1.0000
  H   H3175     1.0  0.55529  0.39996  0.88364  1.0000
  C   C3979     1.0  0.52149  0.45195  0.75897  1.0000
  C   C3980     1.0  0.58557  0.33776  0.68893  1.0000
  C   C3981     1.0  0.58962  0.32956  0.67597  1.0000
  C   C3982     1.0  0.57877  0.28089  0.90683  1.0000
  C   C3983     1.0  0.58240  0.30198  0.90421  1.0000
  C   C3984     1.0  0.56318  0.38534  0.89091  1.0000
  C   C3985     1.0  0.67037  0.28153  0.57315  1.0000
  H   H3176     1.0  0.65817  0.33366  0.55465  1.0000
  H   H3177     1.0  0.68851  0.28509  0.57356  1.0000
  C   C3986     1.0  0.68936  0.31828  0.62893  1.0000
  C   C3987     1.0  0.61345  0.27876  0.79209  1.0000
  C   C3988     1.0  0.55920  0.39489  0.89787  1.0000
  S   S542      1.0  0.51174  0.45206  0.73631  1.0000
  C   C3989     1.0  0.56960  0.28775  0.67696  1.0000
  C   C3990     1.0  0.57499  0.29811  0.65519  1.0000
  H   H3178     1.0  0.52431  0.46955  0.55238  1.0000
  H   H3179     1.0  0.59164  0.34574  0.68903  1.0000
  C   C3991     1.0  0.53701  0.28053  0.96814  1.0000
  H   H3180     1.0  0.62835  0.30063  0.83799  1.0000
  H   H3181     1.0  0.59888  0.33118  0.66624  1.0000
  Fe  Fe269     1.0  0.58488  0.35559  0.91202  1.0000
  Fe  Fe270     1.0  0.51130  0.48234  0.64658  1.0000
  C   C3992     1.0  0.63710  0.44285  0.70878  1.0000
  H   H3182     1.0  0.62767  0.44137  0.71448  1.0000
  C   C3993     1.0  0.64072  0.48702  0.60833  1.0000
  S   S543      1.0  0.57152  0.36562  0.90090  1.0000
  H   H3183     1.0  0.68916  0.32371  0.60883  1.0000
  C   C3994     1.0  0.50525  0.47613  0.76176  1.0000
  C   C3995     1.0  0.71073  0.27256  0.78349  1.0000
  C   C3996     1.0  0.73984  0.47922  0.53352  1.0000
  C   C3997     1.0  0.56017  0.27953  0.67424  1.0000
  C   C3998     1.0  0.57050  0.30032  0.63123  1.0000
  H   H3184     1.0  0.55619  0.27146  0.69086  1.0000
  H   H3185     1.0  0.57434  0.30833  0.61439  1.0000
  H   H3186     1.0  0.52111  0.44128  0.82891  1.0000
  C   C3999     1.0  0.66138  0.44660  0.69407  1.0000
  C   C4000     1.0  0.64406  0.45133  0.71801  1.0000
  H   H3187     1.0  0.67077  0.44785  0.68817  1.0000
  H   H3188     1.0  0.54868  0.27525  0.64786  1.0000
  C   C4001     1.0  0.56793  0.37834  0.90949  1.0000
  H   H3189     1.0  0.71245  0.29547  0.74647  1.0000
  H   H3190     1.0  0.73990  0.26376  0.76452  1.0000
  H   H3191     1.0  0.73244  0.26613  0.81291  1.0000
  C   C4002     1.0  0.56450  0.39049  0.94244  1.0000
  H   H3192     1.0  0.67334  0.40070  0.50737  1.0000
  H   H3193     1.0  0.74666  0.41807  0.59625  1.0000
  C   C4003     1.0  0.56105  0.29209  0.62863  1.0000
  C   C4004     1.0  0.55592  0.28167  0.65005  1.0000
  H   H3194     1.0  0.64983  0.46156  0.90995  1.0000
  Fe  Fe271     1.0  0.60531  0.35325  0.93839  1.0000
  C   C4005     1.0  0.65629  0.45323  0.71088  1.0000
  H   H3195     1.0  0.67960  0.43157  0.77279  1.0000
  C   C4006     1.0  0.55962  0.39740  0.92394  1.0000
  H   H3196     1.0  0.67102  0.27520  0.56061  1.0000
  C   C4007     1.0  0.70575  0.46002  0.52965  1.0000
  C   C4008     1.0  0.70011  0.31314  0.66372  1.0000
  C   C4009     1.0  0.57522  0.27742  0.51103  1.0000
  H   H3197     1.0  0.62144  0.31833  0.72713  1.0000
  C   C4010     1.0  0.66038  0.26054  0.67955  1.0000
  H   H3198     1.0  0.68714  0.48087  0.62187  1.0000
  H   H3199     1.0  0.63982  0.45632  0.73066  1.0000
  C   C4011     1.0  0.57294  0.46895  0.60543  1.0000
  S   S544      1.0  0.55914  0.43965  0.93320  1.0000
  C   C4012     1.0  0.58255  0.29985  0.93283  1.0000
  S   S545      1.0  0.53639  0.43313  0.90673  1.0000
  C   C4013     1.0  0.67769  0.43998  0.77308  1.0000
  C   C4014     1.0  0.67296  0.44538  0.75206  1.0000
  C   C4015     1.0  0.56224  0.46075  0.61904  1.0000
  C   C4016     1.0  0.56129  0.49675  0.53344  1.0000
  H   H3200     1.0  0.70401  0.32425  0.85285  1.0000
  C   C4017     1.0  0.58192  0.27655  0.56523  1.0000
  C   C4018     1.0  0.56010  0.32575  0.94342  1.0000
  S   S546      1.0  0.70267  0.45537  0.50004  1.0000
  H   H3201     1.0  0.73991  0.33167  0.83211  1.0000
  H   H3202     1.0  0.68868  0.47771  0.72204  1.0000
  C   C4019     1.0  0.63739  0.32539  0.85878  1.0000
  H   H3203     1.0  0.55774  0.29374  0.60990  1.0000
  C   C4020     1.0  0.67271  0.48608  0.51543  1.0000
  S   S547      1.0  0.73602  0.43133  0.68749  1.0000
  C   C4021     1.0  0.56880  0.38113  0.93511  1.0000
  H   H3204     1.0  0.67648  0.45720  0.56287  1.0000
  C   C4022     1.0  0.69958  0.32025  0.63823  1.0000
  C   C4023     1.0  0.56563  0.49386  0.50804  1.0000
  H   H3205     1.0  0.50796  0.30809  0.85044  1.0000
  H   H3206     1.0  0.71181  0.47842  0.50801  1.0000
  H   H3207     1.0  0.63520  0.43713  0.93555  1.0000
  C   C4024     1.0  0.68040  0.44563  0.79366  1.0000
  C   C4025     1.0  0.67081  0.45648  0.75151  1.0000
  C   C4026     1.0  0.68808  0.47846  0.70035  1.0000
  S   S548      1.0  0.72990  0.31641  0.62996  1.0000
  S   S549      1.0  0.70866  0.28785  0.62202  1.0000
  H   H3208     1.0  0.50589  0.29447  0.89706  1.0000
  H   H3209     1.0  0.60233  0.49706  0.82135  1.0000
  P   P135      1.0  0.66547  0.46396  0.72318  1.0000
  H   H3210     1.0  0.74520  0.27218  0.96390  1.0000
  C   C4027     1.0  0.61553  0.29110  0.95130  1.0000
  C   C4028     1.0  0.70686  0.27425  0.52464  1.0000
  S   S550      1.0  0.72051  0.48428  0.95040  1.0000
  C   C4029     1.0  0.67786  0.47277  0.69440  1.0000
  H   H3211     1.0  0.66518  0.48857  0.70022  1.0000
  S   S551      1.0  0.72454  0.26623  0.58478  1.0000
  C   C4030     1.0  0.62448  0.48677  0.50464  1.0000
  C   C4031     1.0  0.54824  0.27262  0.93421  1.0000
  C   C4032     1.0  0.53794  0.48220  0.89517  1.0000
  Fe  Fe272     1.0  0.54414  0.44721  0.92647  1.0000
  H   H3212     1.0  0.70812  0.31454  0.67051  1.0000
  S   S552      1.0  0.58600  0.34460  0.95383  1.0000
  H   H3213     1.0  0.65629  0.38446  0.51165  1.0000
  C   C4033     1.0  0.54524  0.49154  0.77229  1.0000
  Fe  Fe273     1.0  0.73278  0.48660  0.90773  1.0000
  C   C4034     1.0  0.67065  0.25947  0.62483  1.0000
  C   C4035     1.0  0.67845  0.45671  0.79317  1.0000
  C   C4036     1.0  0.67373  0.46215  0.77214  1.0000
  H   H3214     1.0  0.54616  0.46923  0.57394  1.0000
  H   H3215     1.0  0.63601  0.26379  0.88339  1.0000
  C   C4037     1.0  0.52460  0.44587  0.80668  1.0000
  H   H3216     1.0  0.60442  0.30401  0.48871  1.0000
  C   C4038     1.0  0.60617  0.43306  0.98013  1.0000
  C   C4039     1.0  0.53890  0.29088  0.94701  1.0000
  H   H3217     1.0  0.65400  0.50147  0.71938  1.0000
  C   C4040     1.0  0.65724  0.47353  0.73668  1.0000
  C   C4041     1.0  0.65895  0.48514  0.72084  1.0000
  C   C4042     1.0  0.55181  0.47608  0.55571  1.0000
  C   C4043     1.0  0.55432  0.48777  0.55716  1.0000
  C   C4044     1.0  0.51715  0.44606  0.78807  1.0000
  H   H3218     1.0  0.63709  0.38297  0.54327  1.0000
  C   C4045     1.0  0.55059  0.33731  0.91429  1.0000
  C   C4046     1.0  0.51311  0.41367  0.54573  1.0000
  C   C4047     1.0  0.67742  0.47404  0.66591  1.0000
  H   H3219     1.0  0.55417  0.46284  0.61624  1.0000
  C   C4048     1.0  0.69754  0.48564  0.64997  1.0000
  C   C4049     1.0  0.74918  0.48596  0.68163  1.0000
  H   H3220     1.0  0.54825  0.34550  0.90758  1.0000
  S   S553      1.0  0.55287  0.40799  0.93579  1.0000
  H   H3221     1.0  0.70136  0.43082  0.52215  1.0000
  H   H3222     1.0  0.73346  0.33057  0.70558  1.0000
  Fe  Fe274     1.0  0.70597  0.48193  0.92817  1.0000
  H   H3223     1.0  0.68107  0.46127  0.80842  1.0000
  H   H3224     1.0  0.66959  0.46996  0.66066  1.0000
  C   C4050     1.0  0.51443  0.29993  0.88471  1.0000
  C   C4051     1.0  0.50452  0.47282  0.83131  1.0000
  H   H3225     1.0  0.50288  0.44632  0.51157  1.0000
  C   C4052     1.0  0.55615  0.47326  0.53043  1.0000
  H   H3226     1.0  0.55394  0.46423  0.52908  1.0000
  H   H3227     1.0  0.66376  0.30339  0.74987  1.0000
  H   H3228     1.0  0.57229  0.47155  0.81871  1.0000
  Fe  Fe275     1.0  0.71927  0.27452  0.62101  1.0000
  C   C4053     1.0  0.67051  0.48364  0.82478  1.0000
  C   C4054     1.0  0.64910  0.46943  0.76337  1.0000
  C   C4055     1.0  0.72431  0.43086  0.59026  1.0000
  H   H3229     1.0  0.67273  0.47093  0.77148  1.0000
  H   H3230     1.0  0.64762  0.46050  0.77581  1.0000
  C   C4056     1.0  0.57433  0.42426  0.97198  1.0000
  H   H3231     1.0  0.60833  0.28669  0.88081  1.0000
  H   H3232     1.0  0.58611  0.31192  0.79692  1.0000
  C   C4057     1.0  0.74104  0.46777  0.53602  1.0000
  C   C4058     1.0  0.64453  0.39007  0.54152  1.0000
  H   H3233     1.0  0.63474  0.48845  0.82652  1.0000
  H   H3234     1.0  0.70713  0.27753  0.56579  1.0000
  C   C4059     1.0  0.68252  0.27846  0.95318  1.0000
  C   C4060     1.0  0.60458  0.33531  0.77199  1.0000
  H   H3235     1.0  0.58374  0.31091  0.89210  1.0000
  C   C4061     1.0  0.64275  0.47680  0.77401  1.0000
  C   C4062     1.0  0.67860  0.27000  0.97934  1.0000
  H   H3236     1.0  0.49937  0.45764  0.54673  1.0000
  C   C4063     1.0  0.55664  0.33607  0.93540  1.0000
  C   C4064     1.0  0.55840  0.26784  0.48487  1.0000
  C   C4065     1.0  0.64062  0.31577  0.75794  1.0000
  C   C4066     1.0  0.72944  0.43894  0.56384  1.0000
  H   H3237     1.0  0.72729  0.44010  0.77103  1.0000
  H   H3238     1.0  0.74389  0.33874  0.63047  1.0000
  C   C4067     1.0  0.67243  0.26521  0.66802  1.0000
  C   C4068     1.0  0.50087  0.46371  0.85629  1.0000
  H   H3239     1.0  0.63638  0.47356  0.79446  1.0000
  C   C4069     1.0  0.72914  0.44408  0.48762  1.0000
  C   C4070     1.0  0.70894  0.31767  0.85299  1.0000
  H   H3240     1.0  0.57231  0.37578  0.94977  1.0000
  C   C4071     1.0  0.55125  0.31774  0.90949  1.0000
  C   C4072     1.0  0.59307  0.49448  0.82277  1.0000
  H   H3241     1.0  0.73368  0.43934  0.94048  1.0000
  C   C4073     1.0  0.51644  0.47710  0.81690  1.0000
  S   S554      1.0  0.73128  0.26702  0.71443  1.0000
  H   H3242     1.0  0.70013  0.27875  0.52173  1.0000
  H   H3243     1.0  0.68675  0.48623  0.79354  1.0000
  S   S555      1.0  0.58427  0.31141  0.95032  1.0000
  H   H3244     1.0  0.72548  0.45051  0.49623  1.0000
  H   H3245     1.0  0.57393  0.49816  0.57397  1.0000
  C   C4074     1.0  0.60968  0.29831  0.90838  1.0000
  H   H3246     1.0  0.72037  0.29573  0.78848  1.0000
  H   H3247     1.0  0.60678  0.28334  0.54987  1.0000
  H   H3248     1.0  0.60687  0.30502  0.89529  1.0000
  H   H3249     1.0  0.52312  0.29332  0.91553  1.0000
  C   C4075     1.0  0.57111  0.48226  0.92447  1.0000
  C   C4076     1.0  0.72015  0.26318  0.50761  1.0000
  C   C4077     1.0  0.72408  0.26249  0.53250  1.0000
  H   H3250     1.0  0.54492  0.49359  0.79258  1.0000
  H   H3251     1.0  0.63960  0.49407  0.76633  1.0000
  H   H3252     1.0  0.70724  0.32712  0.62543  1.0000
  H   H3253     1.0  0.63966  0.32813  0.87682  1.0000
  C   C4078     1.0  0.65537  0.39093  0.52366  1.0000
  C   C4079     1.0  0.64483  0.32513  0.73323  1.0000
  C   C4080     1.0  0.61141  0.32861  0.78397  1.0000
  H   H3254     1.0  0.61011  0.33084  0.70576  1.0000
  H   H3255     1.0  0.72372  0.25905  0.49170  1.0000
  C   C4081     1.0  0.71870  0.31927  0.83050  1.0000
  C   C4082     1.0  0.58811  0.48348  0.81934  1.0000
  H   H3256     1.0  0.57437  0.25926  0.56085  1.0000
  H   H3257     1.0  0.63996  0.34307  0.83393  1.0000
  C   C4083     1.0  0.54649  0.48644  0.71957  1.0000
  C   C4084     1.0  0.72330  0.30337  0.77044  1.0000
  S   S556      1.0  0.71218  0.27393  0.83696  1.0000
  C   C4085     1.0  0.73528  0.32311  0.74720  1.0000
  H   H3258     1.0  0.74479  0.45623  0.68143  1.0000
  Fe  Fe276     1.0  0.72265  0.27425  0.68090  1.0000
  P   P136      1.0  0.62673  0.31397  0.78272  1.0000
  C   C4086     1.0  0.73574  0.30022  0.56020  1.0000
  C   C4087     1.0  0.63418  0.31345  0.85972  1.0000
  H   H3259     1.0  0.61801  0.49553  0.58756  1.0000
  C   C4088     1.0  0.60933  0.40958  0.96151  1.0000
  C   C4089     1.0  0.59974  0.31930  0.49794  1.0000
  H   H3260     1.0  0.71737  0.42318  0.53635  1.0000
  C   C4090     1.0  0.66319  0.49641  0.57220  1.0000
  C   C4091     1.0  0.72520  0.31083  0.83063  1.0000
  H   H3261     1.0  0.68697  0.28736  0.95221  1.0000
  C   C4092     1.0  0.56681  0.48286  0.95228  1.0000
  H   H3262     1.0  0.68317  0.26917  0.49425  1.0000
  C   C4093     1.0  0.65035  0.48911  0.61976  1.0000
  C   C4094     1.0  0.60653  0.50145  0.64962  1.0000
  H   H3263     1.0  0.65241  0.26012  0.76107  1.0000
  H   H3264     1.0  0.74856  0.32954  0.50177  1.0000
  C   C4095     1.0  0.61412  0.27940  0.91718  1.0000
  C   C4096     1.0  0.59996  0.28500  0.82522  1.0000
  H   H3265     1.0  0.59348  0.47748  0.81555  1.0000
  C   C4097     1.0  0.74471  0.30092  0.53677  1.0000
  C   C4098     1.0  0.74370  0.43571  0.75951  1.0000
  H   H3266     1.0  0.72119  0.32707  0.81294  1.0000
  C   C4099     1.0  0.61176  0.49471  0.60728  1.0000
  C   C4100     1.0  0.64972  0.43056  0.87723  1.0000
  H   H3267     1.0  0.50797  0.44158  0.79627  1.0000
  H   H3268     1.0  0.70896  0.29092  0.89241  1.0000
  H   H3269     1.0  0.61486  0.27141  0.91108  1.0000
  H   H3270     1.0  0.56790  0.47441  0.91796  1.0000
  H   H3271     1.0  0.65507  0.46177  0.83973  1.0000
  C   C4101     1.0  0.67206  0.48239  0.87311  1.0000
  H   H3272     1.0  0.73499  0.44411  0.85188  1.0000
  C   C4102     1.0  0.71943  0.26766  0.55362  1.0000
  C   C4103     1.0  0.63069  0.31836  0.81277  1.0000
  C   C4104     1.0  0.63864  0.45164  0.83765  1.0000
  C   C4105     1.0  0.61956  0.27991  0.51818  1.0000
  C   C4106     1.0  0.53646  0.31406  0.85288  1.0000
  H   H3273     1.0  0.59986  0.34012  0.78429  1.0000
  H   H3274     1.0  0.63905  0.49382  0.90340  1.0000
  C   C4107     1.0  0.70550  0.30753  0.87552  1.0000
  H   H3275     1.0  0.55662  0.48731  0.88642  1.0000
  S   S557      1.0  0.70446  0.25376  0.91106  1.0000
  C   C4108     1.0  0.73951  0.44438  0.86855  1.0000
  C   C4109     1.0  0.63436  0.33031  0.81156  1.0000
  H   H3276     1.0  0.53373  0.47443  0.81693  1.0000
  C   C4110     1.0  0.73985  0.44223  0.49158  1.0000
  H   H3277     1.0  0.62100  0.44300  0.83861  1.0000
  H   H3278     1.0  0.58346  0.49087  0.88419  1.0000
  C   C4111     1.0  0.72240  0.31302  0.72346  1.0000
  C   C4112     1.0  0.68088  0.49595  0.93094  1.0000
  H   H3279     1.0  0.59937  0.34192  0.73418  1.0000
  C   C4113     1.0  0.66512  0.48212  0.85361  1.0000
  H   H3280     1.0  0.64249  0.44543  0.82857  1.0000
  C   C4114     1.0  0.66236  0.31851  0.72021  1.0000
  C   C4115     1.0  0.71872  0.30323  0.74682  1.0000
  C   C4116     1.0  0.62655  0.45026  0.84330  1.0000
  C   C4117     1.0  0.56702  0.50034  0.65545  1.0000
  H   H3281     1.0  0.67856  0.44580  0.52736  1.0000
  C   C4118     1.0  0.62065  0.29021  0.78246  1.0000
  C   C4119     1.0  0.60078  0.48657  0.61509  1.0000
  C   C4120     1.0  0.65557  0.32638  0.71432  1.0000
  C   C4121     1.0  0.62155  0.45818  0.85532  1.0000
  C   C4122     1.0  0.57629  0.26451  0.57528  1.0000
  C   C4123     1.0  0.58825  0.29932  0.52187  1.0000
  C   C4124     1.0  0.65781  0.25397  0.75992  1.0000
  H   H3282     1.0  0.73803  0.47107  0.84970  1.0000
  H   H3283     1.0  0.63453  0.33692  0.79297  1.0000
  C   C4125     1.0  0.60420  0.33624  0.74375  1.0000
  C   C4126     1.0  0.59637  0.48568  0.55851  1.0000
  H   H3284     1.0  0.64489  0.30118  0.78369  1.0000
  C   C4127     1.0  0.64771  0.30816  0.76421  1.0000
  C   C4128     1.0  0.68410  0.48368  0.86408  1.0000
  C   C4129     1.0  0.71709  0.27088  0.80398  1.0000
  C   C4130     1.0  0.57469  0.26634  0.50555  1.0000
  C   C4131     1.0  0.67518  0.28327  0.49895  1.0000
  C   C4132     1.0  0.59156  0.32370  0.51387  1.0000
  C   C4133     1.0  0.65846  0.30945  0.74524  1.0000
  C   C4134     1.0  0.68257  0.48499  0.81580  1.0000
  Fe  Fe277     1.0  0.70005  0.27711  0.66686  1.0000
  C   C4135     1.0  0.61794  0.32278  0.76762  1.0000
  C   C4136     1.0  0.56715  0.28360  0.50342  1.0000
  H   H3285     1.0  0.56497  0.32482  0.95943  1.0000
  H   H3286     1.0  0.65852  0.33339  0.69486  1.0000
  H   H3287     1.0  0.64579  0.33152  0.97113  1.0000
  C   C4137     1.0  0.60312  0.27614  0.81349  1.0000
  Fe  Fe278     1.0  0.72204  0.29686  0.64147  1.0000
  H   H3288     1.0  0.70259  0.27502  0.78870  1.0000
  C   C4138     1.0  0.58110  0.28820  0.94820  1.0000
  H   H3289     1.0  0.66540  0.48398  0.80922  1.0000
  C   C4139     1.0  0.51685  0.41298  0.49643  1.0000
  H   H3290     1.0  0.74054  0.49558  0.50476  1.0000
  H   H3291     1.0  0.71914  0.31280  0.70482  1.0000
  H   H3292     1.0  0.72591  0.29359  0.85276  1.0000
  C   C4140     1.0  0.64577  0.46099  0.84383  1.0000
  C   C4141     1.0  0.61763  0.29911  0.79449  1.0000
  S   S558      1.0  0.71232  0.28745  0.68638  1.0000
  H   H3293     1.0  0.63991  0.33152  0.72826  1.0000
  H   H3294     1.0  0.56617  0.47996  0.48686  1.0000
  C   C4142     1.0  0.73054  0.32301  0.72383  1.0000
  C   C4143     1.0  0.61028  0.33006  0.72778  1.0000
  H   H3295     1.0  0.66485  0.29552  0.50640  1.0000
  C   C4144     1.0  0.54170  0.27140  0.96174  1.0000
  H   H3296     1.0  0.66907  0.49553  0.61051  1.0000
  C   C4145     1.0  0.73671  0.44324  0.76580  1.0000
  H   H3297     1.0  0.61167  0.32821  0.80579  1.0000
  H   H3298     1.0  0.58950  0.49267  0.67753  1.0000
  C   C4146     1.0  0.73629  0.32061  0.54158  1.0000
  C   C4147     1.0  0.62644  0.47796  0.49128  1.0000
  H   H3299     1.0  0.60459  0.30317  0.82531  1.0000
  H   H3300     1.0  0.67194  0.50035  0.55852  1.0000
  C   C4148     1.0  0.68142  0.27526  0.92820  1.0000
  H   H3301     1.0  0.66469  0.43577  0.50242  1.0000
  H   H3302     1.0  0.64601  0.28038  0.52165  1.0000
  H   H3303     1.0  0.64013  0.29251  0.94475  1.0000
  H   H3304     1.0  0.55055  0.48987  0.57657  1.0000
  H   H3305     1.0  0.63949  0.25893  0.93143  1.0000
  C   C4149     1.0  0.54025  0.50170  0.85060  1.0000
  C   C4150     1.0  0.73307  0.44098  0.89695  1.0000
  C   C4151     1.0  0.63617  0.48314  0.94553  1.0000
  C   C4152     1.0  0.57038  0.31698  0.85622  1.0000
  C   C4153     1.0  0.55587  0.49088  0.75593  1.0000
  C   C4154     1.0  0.57355  0.25893  0.60427  1.0000
  C   C4155     1.0  0.71080  0.27357  0.54960  1.0000
  C   C4156     1.0  0.59771  0.40368  0.97630  1.0000
  P   P137      1.0  0.52101  0.48903  0.78475  1.0000
  C   C4157     1.0  0.64230  0.48948  0.57882  1.0000
  C   C4158     1.0  0.61209  0.29985  0.93391  1.0000
  H   H3306     1.0  0.63224  0.48912  0.95546  1.0000
  H   H3307     1.0  0.68940  0.48394  0.87927  1.0000
  C   C4159     1.0  0.55879  0.27882  0.49040  1.0000
  H   H3308     1.0  0.74295  0.44730  0.97765  1.0000
  H   H3309     1.0  0.50475  0.49637  0.82558  1.0000
  C   C4160     1.0  0.56300  0.48215  0.50660  1.0000
  C   C4161     1.0  0.74486  0.48913  0.82563  1.0000
  C   C4162     1.0  0.59281  0.48576  0.64073  1.0000
  C   C4163     1.0  0.73178  0.31320  0.77058  1.0000
  P   P138      1.0  0.73767  0.31296  0.80121  1.0000
  H   H3310     1.0  0.72439  0.44447  0.55471  1.0000
  S   S559      1.0  0.68847  0.48588  0.94484  1.0000
  S   S560      1.0  0.53295  0.45451  0.95826  1.0000
  S   S561      1.0  0.70602  0.26881  0.97497  1.0000
  H   H3311     1.0  0.59054  0.40727  0.97181  1.0000
  H   H3312     1.0  0.57812  0.26989  0.94745  1.0000
  H   H3313     1.0  0.69795  0.30625  0.89293  1.0000
  H   H3314     1.0  0.58089  0.26145  0.51084  1.0000
  H   H3315     1.0  0.63474  0.48781  0.57038  1.0000
  C   C4164     1.0  0.56871  0.30182  0.82067  1.0000
  C   C4165     1.0  0.52802  0.48469  0.88770  1.0000
  C   C4166     1.0  0.64496  0.47805  0.90279  1.0000
  H   H3316     1.0  0.70985  0.27231  0.74075  1.0000
  H   H3317     1.0  0.57225  0.29793  0.55281  1.0000
  H   H3318     1.0  0.58427  0.47958  0.64732  1.0000
  H   H3319     1.0  0.73305  0.32823  0.54373  1.0000
  C   C4167     1.0  0.65263  0.49250  0.73162  1.0000
  C   C4168     1.0  0.53502  0.48913  0.76285  1.0000
  H   H3320     1.0  0.56621  0.25321  0.48752  1.0000
  C   C4169     1.0  0.52311  0.40976  0.54805  1.0000
  H   H3321     1.0  0.67586  0.26106  0.90985  1.0000
  C   C4170     1.0  0.55021  0.28299  0.91304  1.0000
  C   C4171     1.0  0.57967  0.31842  0.83275  1.0000
  H   H3322     1.0  0.60098  0.36141  0.49908  1.0000
  H   H3323     1.0  0.57293  0.47733  0.59231  1.0000
  C   C4172     1.0  0.58167  0.31597  0.53365  1.0000
  C   C4173     1.0  0.64007  0.49611  0.82989  1.0000
  C   C4174     1.0  0.63997  0.48576  0.91591  1.0000
  C   C4175     1.0  0.59572  0.49317  0.65795  1.0000
  C   C4176     1.0  0.73154  0.31006  0.56264  1.0000
  C   C4177     1.0  0.74865  0.32636  0.79607  1.0000
  H   H3324     1.0  0.62461  0.47331  0.87201  1.0000
  C   C4178     1.0  0.67988  0.42875  0.49641  1.0000
  C   C4179     1.0  0.72751  0.26749  0.79722  1.0000
  H   H3325     1.0  0.56476  0.39225  0.96277  1.0000
  P   P139      1.0  0.64966  0.48111  0.86456  1.0000
  C   C4180     1.0  0.62899  0.42127  0.88853  1.0000
  H   H3326     1.0  0.66837  0.48194  0.89518  1.0000
  H   H3327     1.0  0.54692  0.48432  0.69928  1.0000
  C   C4181     1.0  0.61710  0.35657  0.50057  1.0000
  C   C4182     1.0  0.52090  0.46283  0.85284  1.0000
  C   C4183     1.0  0.74502  0.30134  0.80655  1.0000
  C   C4184     1.0  0.59118  0.47998  0.54047  1.0000
  C   C4185     1.0  0.64603  0.46763  0.91973  1.0000
  H   H3328     1.0  0.55156  0.29337  0.84817  1.0000
  H   H3329     1.0  0.50757  0.46845  0.77237  1.0000
  H   H3330     1.0  0.73628  0.46067  0.76896  1.0000
  C   C4186     1.0  0.64453  0.48834  0.75816  1.0000
  C   C4187     1.0  0.73060  0.42350  0.60218  1.0000
  H   H3331     1.0  0.59288  0.33313  0.51060  1.0000
  H   H3332     1.0  0.61366  0.49140  0.89779  1.0000
  C   C4188     1.0  0.57616  0.48012  0.82122  1.0000
  H   H3333     1.0  0.72667  0.41737  0.62293  1.0000
  H   H3334     1.0  0.74780  0.29316  0.53532  1.0000
  H   H3335     1.0  0.58129  0.28642  0.97031  1.0000
  H   H3336     1.0  0.74161  0.48325  0.67376  1.0000
  C   C4189     1.0  0.64414  0.49002  0.51140  1.0000
  C   C4190     1.0  0.59485  0.49863  0.50604  1.0000
  C   C4191     1.0  0.64033  0.42339  0.87146  1.0000
  C   C4192     1.0  0.60063  0.49800  0.55002  1.0000
  H   H3337     1.0  0.60735  0.32534  0.48244  1.0000
  C   C4193     1.0  0.65408  0.27791  0.51518  1.0000
  H   H3338     1.0  0.58689  0.48199  0.49994  1.0000
  S   S562      1.0  0.60056  0.25691  0.88798  1.0000
  C   C4194     1.0  0.74291  0.31138  0.66805  1.0000
  H   H3339     1.0  0.58635  0.44120  0.96266  1.0000
  H   H3340     1.0  0.65644  0.26087  0.70083  1.0000
  C   C4195     1.0  0.63508  0.25474  0.89425  1.0000
  H   H3341     1.0  0.67464  0.25912  0.60363  1.0000
  H   H3342     1.0  0.68583  0.47629  0.51009  1.0000
  C   C4196     1.0  0.68364  0.48455  0.50327  1.0000
  H   H3343     1.0  0.58750  0.46691  0.96833  1.0000
  Fe  Fe279     1.0  0.63297  0.25581  0.62080  1.0000
  H   H3344     1.0  0.56360  0.49203  0.76385  1.0000
  H   H3345     1.0  0.65439  0.47899  0.49433  1.0000
  C   C4197     1.0  0.56914  0.48770  0.82688  1.0000
  C   C4198     1.0  0.67632  0.26361  0.92935  1.0000
  C   C4199     1.0  0.63676  0.32660  0.97584  1.0000
  H   H3346     1.0  0.73946  0.46209  0.55701  1.0000
  Fe  Fe280     1.0  0.61165  0.25736  0.66209  1.0000
  H   H3347     1.0  0.69518  0.42257  0.48223  1.0000
  H   H3348     1.0  0.54491  0.31969  0.84039  1.0000
  H   H3349     1.0  0.67387  0.26704  0.75346  1.0000
  C   C4200     1.0  0.67499  0.27154  0.49991  1.0000
  C   C4201     1.0  0.74494  0.48292  0.48226  1.0000
  C   C4202     1.0  0.74187  0.45491  0.76448  1.0000
  H   H3350     1.0  0.62744  0.40891  0.95634  1.0000
  H   H3351     1.0  0.56754  0.29232  0.50637  1.0000
  C   C4203     1.0  0.53538  0.30634  0.87921  1.0000
  H   H3352     1.0  0.65852  0.43215  0.86408  1.0000
  C   C4204     1.0  0.58402  0.50170  0.91367  1.0000
  H   H3353     1.0  0.57089  0.50054  0.48914  1.0000
  H   H3354     1.0  0.68634  0.25335  0.74893  1.0000
  H   H3355     1.0  0.74276  0.47205  0.71968  1.0000
  P   P140      1.0  0.54816  0.30594  0.89263  1.0000
  H   H3356     1.0  0.66546  0.48835  0.96583  1.0000
  H   H3357     1.0  0.66651  0.47895  0.53197  1.0000
  P   P141      1.0  0.65569  0.49858  0.52243  1.0000
  C   C4205     1.0  0.55757  0.31669  0.93026  1.0000
  C   C4206     1.0  0.63717  0.47503  0.48829  1.0000
  H   H3358     1.0  0.70530  0.49017  0.63286  1.0000
  C   C4207     1.0  0.61565  0.25248  0.73953  1.0000
  H   H3359     1.0  0.64108  0.31031  0.97382  1.0000
  H   H3360     1.0  0.57124  0.32298  0.86958  1.0000
  C   C4208     1.0  0.74695  0.43192  0.56051  1.0000
  C   C4209     1.0  0.50725  0.49713  0.74989  1.0000
  C   C4210     1.0  0.63749  0.47289  0.96230  1.0000
  H   H3361     1.0  0.61628  0.48921  0.50636  1.0000
  H   H3362     1.0  0.65511  0.44099  0.90489  1.0000
  C   C4211     1.0  0.74421  0.46382  0.51161  1.0000
  H   H3363     1.0  0.61882  0.27384  0.95603  1.0000
  C   C4212     1.0  0.54554  0.29223  0.91923  1.0000
  H   H3364     1.0  0.53781  0.40459  0.52620  1.0000
  C   C4213     1.0  0.54784  0.32817  0.90143  1.0000
  C   C4214     1.0  0.52427  0.29931  0.89514  1.0000
  H   H3365     1.0  0.56473  0.48791  0.71686  1.0000
  C   C4215     1.0  0.55651  0.48843  0.72951  1.0000
  C   C4216     1.0  0.74089  0.43973  0.54908  1.0000
  H   H3366     1.0  0.74807  0.30407  0.84643  1.0000
  H   H3367     1.0  0.74174  0.33089  0.74659  1.0000
  C   C4217     1.0  0.74292  0.47700  0.82930  1.0000
  H   H3368     1.0  0.74410  0.29663  0.76701  1.0000
  C   C4218     1.0  0.64600  0.48104  0.49825  1.0000
  H   H3369     1.0  0.65588  0.28260  0.95036  1.0000
  H   H3370     1.0  0.58751  0.32542  0.82859  1.0000
  C   C4219     1.0  0.52660  0.31467  0.84255  1.0000
  H   H3371     1.0  0.57461  0.26086  0.64582  1.0000
  C   C4220     1.0  0.66988  0.25785  0.75586  1.0000
  C   C4221     1.0  0.55781  0.49840  0.64264  1.0000
  C   C4222     1.0  0.63992  0.28740  0.96560  1.0000
  H   H3372     1.0  0.69871  0.48619  0.82851  1.0000
  C   C4223     1.0  0.63325  0.49276  0.51472  1.0000
  C   C4224     1.0  0.74733  0.47251  0.80677  1.0000
  C   C4225     1.0  0.57400  0.49868  0.83105  1.0000
  H   H3373     1.0  0.68348  0.28983  0.49259  1.0000
  C   C4226     1.0  0.65337  0.25596  0.66311  1.0000
  C   C4227     1.0  0.74189  0.42396  0.58721  1.0000
  C   C4228     1.0  0.74596  0.33195  0.64506  1.0000
  H   H3374     1.0  0.53214  0.40728  0.48068  1.0000
  H   H3375     1.0  0.63166  0.49983  0.52418  1.0000
  C   C4229     1.0  0.66943  0.49511  0.94619  1.0000
  C   C4230     1.0  0.74739  0.33387  0.81405  1.0000
  C   C4231     1.0  0.65355  0.49425  0.56053  1.0000
  C   C4232     1.0  0.67239  0.43540  0.48739  1.0000
  H   H3376     1.0  0.55887  0.34324  0.94503  1.0000
  C   C4233     1.0  0.61842  0.40464  0.96754  1.0000
  C   C4234     1.0  0.52681  0.40905  0.49885  1.0000
  C   C4235     1.0  0.63404  0.31457  0.97740  1.0000
  C   C4236     1.0  0.66159  0.49376  0.60170  1.0000
  H   H3377     1.0  0.56016  0.47545  0.96695  1.0000
  C   C4237     1.0  0.74709  0.29495  0.78619  1.0000
  C   C4238     1.0  0.62217  0.27747  0.49165  1.0000
  H   H3378     1.0  0.73503  0.48782  0.62349  1.0000
  H   H3379     1.0  0.73073  0.25787  0.53547  1.0000
  C   C4239     1.0  0.66978  0.49671  0.50602  1.0000
  C   C4240     1.0  0.74171  0.50042  0.58265  1.0000
  S   S563      1.0  0.73064  0.25394  0.87282  1.0000
  Fe  Fe281     1.0  0.58111  0.25240  0.89804  1.0000
  H   H3380     1.0  0.62239  0.25468  0.71991  1.0000
  C   C4241     1.0  0.58608  0.50211  0.82835  1.0000
  C   C4242     1.0  0.67239  0.25514  0.95545  1.0000
  C   C4243     1.0  0.52916  0.49445  0.86552  1.0000
  H   H3381     1.0  0.63058  0.27592  0.48347  1.0000
  H   H3382     1.0  0.74916  0.26487  0.56286  1.0000
  C   C4244     1.0  0.74913  0.27750  0.97634  1.0000
  C   C4245     1.0  0.55028  0.49920  0.85790  1.0000
  H   H3383     1.0  0.52144  0.49633  0.85989  1.0000
  C   C4246     1.0  0.61454  0.50222  0.62430  1.0000
  C   C4247     1.0  0.74411  0.43348  0.48120  1.0000
  C   C4248     1.0  0.57874  0.43495  0.97755  1.0000
  H   H3384     1.0  0.62992  0.34165  0.97909  1.0000
  H   H3385     1.0  0.54037  0.26341  0.97811  1.0000
  C   C4249     1.0  0.69177  0.49368  0.48200  1.0000
  H   H3386     1.0  0.53964  0.53743  0.13936  1.0000
  C   C4250     1.0  0.68173  0.51218  0.99734  1.0000
  S   S564      1.0  0.52218  0.62733  0.98951  1.0000
  H   H3387     1.0  0.57474  0.52822  0.13865  1.0000
  H   H3388     1.0  0.57263  0.55408  0.07898  1.0000
  Fe  Fe282     1.0  0.52533  0.59508  0.17656  1.0000
  S   S565      1.0  0.51437  0.60755  0.18471  1.0000
  S   S566      1.0  0.51783  0.57637  0.17720  1.0000
  Fe  Fe283     1.0  0.54792  0.61266  0.16872  1.0000
  S   S567      1.0  0.53878  0.62692  0.17600  1.0000
  S   S568      1.0  0.56767  0.61594  0.16004  1.0000
  Fe  Fe284     1.0  0.52593  0.61288  0.21270  1.0000
  S   S569      1.0  0.51581  0.61271  0.25748  1.0000
  Fe  Fe285     1.0  0.52788  0.62050  0.14753  1.0000
  S   S570      1.0  0.52208  0.63297  0.11486  1.0000
  S   S571      1.0  0.53586  0.59921  0.20707  1.0000
  S   S572      1.0  0.53808  0.60750  0.13760  1.0000
  Fe  Fe286     1.0  0.57846  0.53941  0.17881  1.0000
  S   S573      1.0  0.59069  0.52782  0.18226  1.0000
  S   S574      1.0  0.55918  0.53249  0.18544  1.0000
  Fe  Fe287     1.0  0.59698  0.56134  0.16999  1.0000
  S   S575      1.0  0.61116  0.55166  0.17242  1.0000
  S   S576      1.0  0.60086  0.58094  0.16569  1.0000
  Fe  Fe288     1.0  0.60306  0.54161  0.14450  1.0000
  S   S577      1.0  0.61388  0.53454  0.11176  1.0000
  Fe  Fe289     1.0  0.59789  0.53854  0.20982  1.0000
  S   S578      1.0  0.59937  0.52798  0.25234  1.0000
  S   S579      1.0  0.59008  0.55244  0.13902  1.0000
  S   S580      1.0  0.58441  0.54900  0.20935  1.0000
  S   S581      1.0  0.61335  0.52802  0.40910  1.0000
  Fe  Fe290     1.0  0.63760  0.51200  0.41982  1.0000
  S   S582      1.0  0.64121  0.53179  0.40655  1.0000
  C   C4251     1.0  0.56608  0.52266  0.14197  1.0000
  Fe  Fe291     1.0  0.62448  0.52943  0.44008  1.0000
  C   C4252     1.0  0.53801  0.74186  0.26033  1.0000
  Fe  Fe292     1.0  0.62956  0.52861  0.37702  1.0000
  S   S583      1.0  0.63358  0.53941  0.33120  1.0000
  C   C4253     1.0  0.50238  0.54381  0.28803  1.0000
  C   C4254     1.0  0.57775  0.51214  0.35184  1.0000
  H   H3389     1.0  0.63784  0.50476  0.09734  1.0000
  S   S584      1.0  0.51072  0.62997  0.43218  1.0000
  H   H3390     1.0  0.67613  0.51411  0.47685  1.0000
  S   S585      1.0  0.51495  0.65831  0.40636  1.0000
  H   H3391     1.0  0.64251  0.55532  0.99518  1.0000
  Fe  Fe293     1.0  0.51281  0.64212  0.38943  1.0000
  S   S586      1.0  0.52558  0.64170  0.34880  1.0000
  Fe  Fe294     1.0  0.51139  0.64579  0.44989  1.0000
  C   C4255     1.0  0.51627  0.67912  0.45985  1.0000
  C   C4256     1.0  0.66750  0.52088  0.34200  1.0000
  C   C4257     1.0  0.65433  0.52873  0.98197  1.0000
  H   H3392     1.0  0.56790  0.54357  0.37248  1.0000
  H   H3393     1.0  0.62040  0.58579  0.26047  1.0000
  C   C4258     1.0  0.50103  0.56455  0.15694  1.0000
  H   H3394     1.0  0.60588  0.60922  0.01536  1.0000
  C   C4259     1.0  0.50534  0.58577  0.14233  1.0000
  C   C4260     1.0  0.61817  0.52936  0.03233  1.0000
  C   C4261     1.0  0.67353  0.51787  0.00837  1.0000
  H   H3395     1.0  0.55864  0.50635  0.03912  1.0000
  H   H3396     1.0  0.66215  0.54080  0.12589  1.0000
  H   H3397     1.0  0.58674  0.50936  0.12656  1.0000
  C   C4262     1.0  0.51024  0.54526  0.26192  1.0000
  H   H3398     1.0  0.52718  0.72903  0.29790  1.0000
  H   H3399     1.0  0.56906  0.51523  0.31835  1.0000
  C   C4263     1.0  0.61370  0.53618  0.07552  1.0000
  C   C4264     1.0  0.61117  0.54595  0.05970  1.0000
  C   C4265     1.0  0.55680  0.52310  0.16342  1.0000
  C   C4266     1.0  0.56410  0.61190  0.01283  1.0000
  C   C4267     1.0  0.54934  0.50708  0.98995  1.0000
  C   C4268     1.0  0.61704  0.52782  0.06172  1.0000
  H   H3400     1.0  0.60866  0.55249  0.06997  1.0000
  H   H3401     1.0  0.52096  0.67410  0.44807  1.0000
  H   H3402     1.0  0.52761  0.69587  0.43505  1.0000
  H   H3403     1.0  0.61885  0.52015  0.07377  1.0000
  C   C4269     1.0  0.60922  0.53146  0.27336  1.0000
  C   C4270     1.0  0.60674  0.52453  0.30136  1.0000
  C   C4271     1.0  0.61418  0.52679  0.31908  1.0000
  C   C4272     1.0  0.62423  0.53611  0.30904  1.0000
  C   C4273     1.0  0.62676  0.54309  0.28100  1.0000
  C   C4274     1.0  0.61933  0.54075  0.26317  1.0000
  H   H3404     1.0  0.59897  0.51737  0.30951  1.0000
  H   H3405     1.0  0.61211  0.52133  0.34058  1.0000
  H   H3406     1.0  0.63451  0.55034  0.27301  1.0000
  H   H3407     1.0  0.62144  0.54612  0.24159  1.0000
  C   C4275     1.0  0.54559  0.51603  0.16725  1.0000
  H   H3408     1.0  0.53835  0.51649  0.18348  1.0000
  C   C4276     1.0  0.51873  0.62109  0.28217  1.0000
  C   C4277     1.0  0.52941  0.62925  0.27767  1.0000
  C   C4278     1.0  0.53133  0.63547  0.29823  1.0000
  C   C4279     1.0  0.52260  0.63372  0.32340  1.0000
  C   C4280     1.0  0.51186  0.62569  0.32767  1.0000
  C   C4281     1.0  0.50997  0.61939  0.30726  1.0000
  H   H3409     1.0  0.53623  0.63070  0.25851  1.0000
  H   H3410     1.0  0.53966  0.64167  0.29462  1.0000
  H   H3411     1.0  0.51805  0.50765  0.13779  1.0000
  C   C4282     1.0  0.60042  0.50531  0.14532  1.0000
  C   C4283     1.0  0.59965  0.60226  0.06073  1.0000
  H   H3412     1.0  0.54241  0.62849  0.41186  1.0000
  C   C4284     1.0  0.61439  0.57732  0.26386  1.0000
  H   H3413     1.0  0.61077  0.57353  0.46833  1.0000
  H   H3414     1.0  0.50780  0.69798  0.35892  1.0000
  H   H3415     1.0  0.58712  0.61283  0.00916  1.0000
  C   C4285     1.0  0.58931  0.52949  0.35995  1.0000
  H   H3416     1.0  0.59067  0.50313  0.28778  1.0000
  C   C4286     1.0  0.53750  0.62249  0.43220  1.0000
  C   C4287     1.0  0.65309  0.52973  0.47563  1.0000
  C   C4288     1.0  0.57630  0.60561  0.16051  1.0000
  C   C4289     1.0  0.57195  0.59376  0.16140  1.0000
  C   C4290     1.0  0.57922  0.58587  0.16326  1.0000
  C   C4291     1.0  0.59098  0.58998  0.16337  1.0000
  C   C4292     1.0  0.59532  0.60191  0.16129  1.0000
  C   C4293     1.0  0.58806  0.60963  0.15998  1.0000
  H   H3417     1.0  0.56309  0.59080  0.16018  1.0000
  H   H3418     1.0  0.57580  0.57670  0.16438  1.0000
  H   H3419     1.0  0.60437  0.60522  0.16101  1.0000
  H   H3420     1.0  0.59157  0.61877  0.15888  1.0000
  C   C4294     1.0  0.56803  0.50914  0.03055  1.0000
  C   C4295     1.0  0.50747  0.57555  0.15724  1.0000
  H   H3421     1.0  0.67542  0.52736  0.00136  1.0000
  C   C4296     1.0  0.55255  0.59580  0.06942  1.0000
  H   H3422     1.0  0.50165  0.61317  0.31094  1.0000
  H   H3423     1.0  0.51049  0.59430  0.14183  1.0000
  C   C4297     1.0  0.56757  0.55137  0.35754  1.0000
  C   C4298     1.0  0.67197  0.51203  0.41051  1.0000
  C   C4299     1.0  0.68411  0.51291  0.40429  1.0000
  C   C4300     1.0  0.50723  0.75173  0.33732  1.0000
  H   H3424     1.0  0.50179  0.74417  0.26725  1.0000
  H   H3425     1.0  0.66880  0.51986  0.40680  1.0000
  H   H3426     1.0  0.69024  0.52146  0.39584  1.0000
  C   C4301     1.0  0.54620  0.54348  0.06700  1.0000
  H   H3427     1.0  0.51601  0.54178  0.15027  1.0000
  H   H3428     1.0  0.67837  0.50926  0.35190  1.0000
  H   H3429     1.0  0.50696  0.53261  0.20136  1.0000
  H   H3430     1.0  0.50289  0.56048  0.98101  1.0000
  C   C4302     1.0  0.51398  0.69776  0.46805  1.0000
  H   H3431     1.0  0.50065  0.65880  0.17147  1.0000
  C   C4303     1.0  0.54099  0.59672  0.07607  1.0000
  C   C4304     1.0  0.57361  0.50448  0.00945  1.0000
  H   H3432     1.0  0.59296  0.54710  0.27500  1.0000
  C   C4305     1.0  0.50769  0.51515  0.19838  1.0000
  C   C4306     1.0  0.52306  0.52101  0.08313  1.0000
  H   H3433     1.0  0.59707  0.53415  0.45489  1.0000
  C   C4307     1.0  0.54566  0.57486  0.09220  1.0000
  C   C4308     1.0  0.58509  0.51727  0.36672  1.0000
  H   H3434     1.0  0.52712  0.56846  0.11227  1.0000
  H   H3435     1.0  0.57465  0.50265  0.35690  1.0000
  C   C4309     1.0  0.51089  0.50820  0.18034  1.0000
  H   H3436     1.0  0.54544  0.64146  0.05503  1.0000
  C   C4310     1.0  0.51768  0.66048  0.29817  1.0000
  C   C4311     1.0  0.68836  0.50279  0.40897  1.0000
  H   H3437     1.0  0.60187  0.51789  0.00483  1.0000
  H   H3438     1.0  0.50505  0.62424  0.34684  1.0000
  C   C4312     1.0  0.59863  0.55647  0.35629  1.0000
  C   C4313     1.0  0.66895  0.53309  0.09262  1.0000
  C   C4314     1.0  0.51589  0.51330  0.15131  1.0000
  C   C4315     1.0  0.51470  0.53240  0.15846  1.0000
  C   C4316     1.0  0.51814  0.63933  0.06154  1.0000
  C   C4317     1.0  0.57457  0.51924  0.33025  1.0000
  C   C4318     1.0  0.53141  0.51440  0.08183  1.0000
  C   C4319     1.0  0.61239  0.54753  0.03022  1.0000
  C   C4320     1.0  0.53187  0.58687  0.09120  1.0000
  C   C4321     1.0  0.58779  0.60915  0.03032  1.0000
  P   P142      1.0  0.52398  0.53218  0.10252  1.0000
  H   H3439     1.0  0.57023  0.52067  0.05800  1.0000
  C   C4322     1.0  0.56274  0.63302  0.09703  1.0000
  P   P143      1.0  0.59061  0.55265  0.33114  1.0000
  H   H3440     1.0  0.61610  0.56346  0.41106  1.0000
  H   H3441     1.0  0.54748  0.56640  0.09837  1.0000
  H   H3442     1.0  0.58513  0.53862  0.42103  1.0000
  H   H3443     1.0  0.51233  0.62959  0.21036  1.0000
  C   C4323     1.0  0.55671  0.56521  0.34178  1.0000
  C   C4324     1.0  0.57943  0.60150  0.08113  1.0000
  H   H3444     1.0  0.50430  0.60262  0.03677  1.0000
  C   C4325     1.0  0.60989  0.55473  0.35378  1.0000
  H   H3445     1.0  0.54976  0.55032  0.37832  1.0000
  C   C4326     1.0  0.50751  0.63619  0.21229  1.0000
  C   C4327     1.0  0.60553  0.56179  0.24509  1.0000
  C   C4328     1.0  0.58619  0.53675  0.33819  1.0000
  C   C4329     1.0  0.66284  0.51132  0.02759  1.0000
  C   C4330     1.0  0.66020  0.53649  0.10967  1.0000
  C   C4331     1.0  0.50705  0.64408  0.18790  1.0000
  H   H3446     1.0  0.57106  0.61906  0.09543  1.0000
  H   H3447     1.0  0.54877  0.56818  0.34454  1.0000
  C   C4332     1.0  0.56978  0.62314  0.99485  1.0000
  H   H3448     1.0  0.61835  0.57753  0.21938  1.0000
  C   C4333     1.0  0.56417  0.51501  0.12466  1.0000
  H   H3449     1.0  0.51596  0.64496  0.01901  1.0000
  H   H3450     1.0  0.57133  0.51467  0.10807  1.0000
  C   C4334     1.0  0.63771  0.50814  0.05285  1.0000
  H   H3451     1.0  0.51920  0.66936  0.33115  1.0000
  C   C4335     1.0  0.57816  0.60639  0.05405  1.0000
  H   H3452     1.0  0.53519  0.50248  0.15393  1.0000
  H   H3453     1.0  0.65466  0.51304  0.46856  1.0000
  H   H3454     1.0  0.64245  0.51362  0.32164  1.0000
  C   C4336     1.0  0.64893  0.53441  0.10566  1.0000
  H   H3455     1.0  0.63763  0.52750  0.08186  1.0000
  C   C4337     1.0  0.56867  0.53043  0.45231  1.0000
  C   C4338     1.0  0.55805  0.60337  0.00186  1.0000
  H   H3456     1.0  0.59042  0.50330  0.98625  1.0000
  H   H3457     1.0  0.69533  0.51134  0.45622  1.0000
  H   H3458     1.0  0.56593  0.63498  0.11482  1.0000
  C   C4339     1.0  0.51548  0.54231  0.09192  1.0000
  C   C4340     1.0  0.52108  0.63082  0.08091  1.0000
  C   C4341     1.0  0.67056  0.51018  0.34502  1.0000
  C   C4342     1.0  0.61125  0.56166  0.39567  1.0000
  H   H3459     1.0  0.57215  0.59922  0.09981  1.0000
  H   H3460     1.0  0.51822  0.57030  0.05401  1.0000
  S   S587      1.0  0.62717  0.50909  0.38803  1.0000
  H   H3461     1.0  0.56057  0.54715  0.12873  1.0000
  H   H3462     1.0  0.54675  0.51225  0.23038  1.0000
  C   C4343     1.0  0.50092  0.65266  0.19044  1.0000
  C   C4344     1.0  0.51336  0.66544  0.31984  1.0000
  C   C4345     1.0  0.65515  0.52553  0.06726  1.0000
  C   C4346     1.0  0.52111  0.62870  0.02494  1.0000
  C   C4347     1.0  0.51816  0.57765  0.26573  1.0000
  C   C4348     1.0  0.51948  0.58273  0.28810  1.0000
  C   C4349     1.0  0.52882  0.58176  0.30026  1.0000
  C   C4350     1.0  0.53688  0.57579  0.28991  1.0000
  C   C4351     1.0  0.53569  0.57075  0.26723  1.0000
  C   C4352     1.0  0.52627  0.57178  0.25517  1.0000
  P   P144      1.0  0.54701  0.56435  0.25173  1.0000
  C   C4353     1.0  0.56079  0.57531  0.24348  1.0000
  C   C4354     1.0  0.54755  0.55089  0.27524  1.0000
  C   C4355     1.0  0.55428  0.54369  0.26477  1.0000
  C   C4356     1.0  0.55479  0.53330  0.28267  1.0000
  C   C4357     1.0  0.54857  0.52998  0.31124  1.0000
  C   C4358     1.0  0.54181  0.53703  0.32187  1.0000
  C   C4359     1.0  0.54126  0.54743  0.30396  1.0000
  C   C4360     1.0  0.57135  0.57204  0.24302  1.0000
  C   C4361     1.0  0.58189  0.58061  0.23674  1.0000
  C   C4362     1.0  0.58200  0.59250  0.23106  1.0000
  C   C4363     1.0  0.57158  0.59585  0.23129  1.0000
  C   C4364     1.0  0.56105  0.58733  0.23727  1.0000
  C   C4365     1.0  0.54451  0.56168  0.21871  1.0000
  C   C4366     1.0  0.54582  0.57126  0.19581  1.0000
  C   C4367     1.0  0.54331  0.56950  0.17058  1.0000
  C   C4368     1.0  0.53925  0.55812  0.16819  1.0000
  C   C4369     1.0  0.53785  0.54849  0.19090  1.0000
  C   C4370     1.0  0.54037  0.55024  0.21616  1.0000
  H   H3463     1.0  0.51119  0.57877  0.25554  1.0000
  H   H3464     1.0  0.51353  0.58780  0.29524  1.0000
  H   H3465     1.0  0.53000  0.58604  0.31702  1.0000
  H   H3466     1.0  0.54433  0.57555  0.29868  1.0000
  H   H3467     1.0  0.52539  0.56861  0.23673  1.0000
  H   H3468     1.0  0.55903  0.54601  0.24254  1.0000
  H   H3469     1.0  0.55995  0.52781  0.27420  1.0000
  H   H3470     1.0  0.54891  0.52187  0.32507  1.0000
  H   H3471     1.0  0.53692  0.53437  0.34397  1.0000
  H   H3472     1.0  0.53587  0.55266  0.31258  1.0000
  H   H3473     1.0  0.57164  0.56298  0.24688  1.0000
  H   H3474     1.0  0.59006  0.57806  0.23516  1.0000
  H   H3475     1.0  0.59023  0.59913  0.22521  1.0000
  H   H3476     1.0  0.57174  0.60510  0.22557  1.0000
  H   H3477     1.0  0.55318  0.59021  0.23644  1.0000
  H   H3478     1.0  0.54835  0.58012  0.19790  1.0000
  H   H3479     1.0  0.54406  0.57700  0.15331  1.0000
  H   H3480     1.0  0.53701  0.55679  0.14896  1.0000
  H   H3481     1.0  0.53487  0.53963  0.18898  1.0000
  H   H3482     1.0  0.53893  0.54261  0.23350  1.0000
  H   H3483     1.0  0.60485  0.55815  0.22720  1.0000
  H   H3484     1.0  0.59109  0.59575  0.10530  1.0000
  C   C4371     1.0  0.52092  0.74479  0.29072  1.0000
  C   C4372     1.0  0.58760  0.53147  0.46205  1.0000
  H   H3485     1.0  0.53756  0.63616  0.45422  1.0000
  P   P145      1.0  0.65183  0.51866  0.03967  1.0000
  H   H3486     1.0  0.54385  0.73637  0.25557  1.0000
  C   C4373     1.0  0.56131  0.62107  0.06326  1.0000
  C   C4374     1.0  0.51786  0.52545  0.14013  1.0000
  H   H3487     1.0  0.57446  0.62985  0.00295  1.0000
  C   C4375     1.0  0.56639  0.57142  0.31917  1.0000
  C   C4376     1.0  0.53929  0.53957  0.09519  1.0000
  H   H3488     1.0  0.56358  0.58363  0.07119  1.0000
  H   H3489     1.0  0.53866  0.51624  0.09138  1.0000
  C   C4377     1.0  0.53024  0.50502  0.06917  1.0000
  C   C4378     1.0  0.61615  0.55725  0.37345  1.0000
  H   H3490     1.0  0.53593  0.60716  0.41601  1.0000
  C   C4379     1.0  0.50325  0.53893  0.10256  1.0000
  C   C4380     1.0  0.55817  0.54877  0.06115  1.0000
  H   H3491     1.0  0.67339  0.52515  0.05846  1.0000
  C   C4381     1.0  0.55400  0.62751  0.05224  1.0000
  H   H3492     1.0  0.50515  0.71458  0.32453  1.0000
  H   H3493     1.0  0.56597  0.57918  0.30418  1.0000
  H   H3494     1.0  0.67770  0.53475  0.09568  1.0000
  H   H3495     1.0  0.64211  0.53711  0.11865  1.0000
  H   H3496     1.0  0.56553  0.50678  0.22211  1.0000
  C   C4382     1.0  0.59013  0.59947  0.08438  1.0000
  C   C4383     1.0  0.57671  0.56768  0.31583  1.0000
  H   H3497     1.0  0.51149  0.64353  0.16707  1.0000
  C   C4384     1.0  0.51240  0.50869  0.05887  1.0000
  Fe  Fe295     1.0  0.61173  0.50875  0.42215  1.0000
  H   H3498     1.0  0.55019  0.62535  0.03547  1.0000
  H   H3499     1.0  0.53021  0.55661  0.06584  1.0000
  C   C4385     1.0  0.55122  0.63667  0.06334  1.0000
  H   H3500     1.0  0.50287  0.55663  0.16773  1.0000
  S   S588      1.0  0.62172  0.51001  0.45514  1.0000
  C   C4386     1.0  0.51362  0.51818  0.07120  1.0000
  C   C4387     1.0  0.60016  0.56373  0.39788  1.0000
  C   C4388     1.0  0.59884  0.55550  0.27246  1.0000
  H   H3501     1.0  0.52299  0.58774  0.09656  1.0000
  C   C4389     1.0  0.55548  0.63934  0.08591  1.0000
  C   C4390     1.0  0.52083  0.55365  0.07409  1.0000
  C   C4391     1.0  0.50178  0.63679  0.23919  1.0000
  C   C4392     1.0  0.61603  0.53931  0.01633  1.0000
  C   C4393     1.0  0.65737  0.52202  0.33351  1.0000
  C   C4394     1.0  0.64613  0.54807  0.99145  1.0000
  H   H3502     1.0  0.60792  0.60066  0.06343  1.0000
  H   H3503     1.0  0.59503  0.53311  0.37182  1.0000
  C   C4395     1.0  0.50960  0.52725  0.18745  1.0000
  C   C4396     1.0  0.51010  0.65478  0.28459  1.0000
  C   C4397     1.0  0.51406  0.56147  0.06727  1.0000
  H   H3504     1.0  0.58528  0.56281  0.38038  1.0000
  H   H3505     1.0  0.59737  0.55592  0.46372  1.0000
  H   H3506     1.0  0.51359  0.65052  0.26887  1.0000
  C   C4398     1.0  0.59848  0.60709  0.03370  1.0000
  C   C4399     1.0  0.57739  0.55764  0.33508  1.0000
  H   H3507     1.0  0.51822  0.54243  0.26125  1.0000
  H   H3508     1.0  0.62477  0.55565  0.37152  1.0000
  H   H3509     1.0  0.59646  0.56736  0.41479  1.0000
  C   C4400     1.0  0.56564  0.62391  0.08585  1.0000
  C   C4401     1.0  0.60778  0.57103  0.29130  1.0000
  C   C4402     1.0  0.57861  0.53149  0.32376  1.0000
  C   C4403     1.0  0.58087  0.53404  0.44304  1.0000
  H   H3510     1.0  0.51399  0.55184  0.21634  1.0000
  H   H3511     1.0  0.65492  0.53030  0.33139  1.0000
  C   C4404     1.0  0.54459  0.54083  0.11739  1.0000
  H   H3512     1.0  0.52685  0.66053  0.29289  1.0000
  C   C4405     1.0  0.53472  0.62682  0.45602  1.0000
  H   H3513     1.0  0.52562  0.61435  0.08741  1.0000
  H   H3514     1.0  0.56350  0.55163  0.03941  1.0000
  C   C4406     1.0  0.50783  0.55047  0.23666  1.0000
  C   C4407     1.0  0.54681  0.50322  0.23105  1.0000
  H   H3515     1.0  0.61379  0.55124  0.33678  1.0000
  H   H3516     1.0  0.55358  0.59465  0.01522  1.0000
  C   C4408     1.0  0.63150  0.50487  0.03361  1.0000
  C   C4409     1.0  0.52363  0.62104  0.07244  1.0000
  C   C4410     1.0  0.60001  0.55997  0.29592  1.0000
  C   C4411     1.0  0.55652  0.54624  0.11145  1.0000
  H   H3517     1.0  0.65248  0.53322  0.45425  1.0000
  C   C4412     1.0  0.55480  0.58472  0.07695  1.0000
  S   S589      1.0  0.70371  0.50424  0.40152  1.0000
  C   C4413     1.0  0.58878  0.50494  0.14550  1.0000
  C   C4414     1.0  0.64641  0.52894  0.08464  1.0000
  H   H3518     1.0  0.58408  0.57266  0.29817  1.0000
  P   P146      1.0  0.56418  0.60872  0.04996  1.0000
  H   H3519     1.0  0.50360  0.51110  0.22075  1.0000
  H   H3520     1.0  0.62088  0.52298  0.02186  1.0000
  H   H3521     1.0  0.53902  0.60507  0.06972  1.0000
  C   C4415     1.0  0.65029  0.51248  0.32796  1.0000
  C   C4416     1.0  0.50144  0.66487  0.32772  1.0000
  H   H3522     1.0  0.51611  0.64692  0.06787  1.0000
  H   H3523     1.0  0.61066  0.55524  0.01803  1.0000
  C   C4417     1.0  0.52002  0.69136  0.45261  1.0000
  C   C4418     1.0  0.61326  0.57269  0.24074  1.0000
  C   C4419     1.0  0.56332  0.55015  0.08339  1.0000
  H   H3524     1.0  0.57578  0.53683  0.30750  1.0000
  H   H3525     1.0  0.67293  0.52825  0.34653  1.0000
  C   C4420     1.0  0.59384  0.56115  0.37828  1.0000
  H   H3526     1.0  0.58765  0.51174  0.38331  1.0000
  H   H3527     1.0  0.68982  0.51723  0.98186  1.0000
  C   C4421     1.0  0.52385  0.62009  0.04451  1.0000
  C   C4422     1.0  0.51805  0.63824  0.03379  1.0000
  C   C4423     1.0  0.53421  0.57598  0.09976  1.0000
  S   S590      1.0  0.61960  0.54095  0.46969  1.0000
  H   H3528     1.0  0.55295  0.64615  0.09515  1.0000
  H   H3529     1.0  0.60867  0.57489  0.30883  1.0000
  C   C4424     1.0  0.52716  0.60279  0.46067  1.0000
  H   H3530     1.0  0.52615  0.61264  0.03802  1.0000
  H   H3531     1.0  0.54236  0.54228  0.04960  1.0000
  H   H3532     1.0  0.56345  0.53225  0.43743  1.0000
  C   C4425     1.0  0.53857  0.50891  0.98671  1.0000
  C   C4426     1.0  0.55310  0.50749  0.12949  1.0000
  C   C4427     1.0  0.55728  0.55517  0.36089  1.0000
  H   H3533     1.0  0.50489  0.50630  0.05056  1.0000
  C   C4428     1.0  0.53377  0.61047  0.43456  1.0000
  H   H3534     1.0  0.53751  0.51776  0.98136  1.0000
  H   H3535     1.0  0.52465  0.59352  0.46201  1.0000
  C   C4429     1.0  0.50989  0.70678  0.36189  1.0000
  H   H3536     1.0  0.50702  0.52305  0.07199  1.0000
  C   C4430     1.0  0.59241  0.51549  0.01192  1.0000
  H   H3537     1.0  0.51898  0.72123  0.40861  1.0000
  H   H3538     1.0  0.60729  0.50997  0.12628  1.0000
  H   H3539     1.0  0.64405  0.54069  0.03550  1.0000
  P   P147      1.0  0.50859  0.73961  0.32164  1.0000
  C   C4431     1.0  0.51390  0.70863  0.38541  1.0000
  C   C4432     1.0  0.65111  0.52987  0.00992  1.0000
  C   C4433     1.0  0.64697  0.53963  0.01441  1.0000
  C   C4434     1.0  0.51057  0.72753  0.34698  1.0000
  C   C4435     1.0  0.58679  0.52043  0.03213  1.0000
  C   C4436     1.0  0.50829  0.71619  0.34264  1.0000
  C   C4437     1.0  0.51453  0.72931  0.37079  1.0000
  C   C4438     1.0  0.51617  0.71987  0.38995  1.0000
  C   C4439     1.0  0.57460  0.51717  0.04161  1.0000
  C   C4440     1.0  0.66646  0.52764  0.07147  1.0000
  H   H3540     1.0  0.61608  0.50674  0.25524  1.0000
  H   H3541     1.0  0.59188  0.52663  0.04079  1.0000
  H   H3542     1.0  0.51618  0.73789  0.37495  1.0000
  H   H3543     1.0  0.50228  0.63060  0.25781  1.0000
  C   C4441     1.0  0.58587  0.50740  0.00096  1.0000
  C   C4442     1.0  0.52851  0.73772  0.28439  1.0000
  C   C4443     1.0  0.54379  0.50809  0.15057  1.0000
  H   H3544     1.0  0.63515  0.50858  0.01106  1.0000
  H   H3545     1.0  0.51491  0.70126  0.40050  1.0000
  H   H3546     1.0  0.51681  0.70727  0.46226  1.0000
  C   C4444     1.0  0.59434  0.56054  0.47917  1.0000
  H   H3547     1.0  0.50422  0.53973  0.30760  1.0000
  C   C4445     1.0  0.68903  0.50434  0.47300  1.0000
  C   C4446     1.0  0.63303  0.50278  0.08206  1.0000
  C   C4447     1.0  0.50191  0.55802  0.07801  1.0000
  H   H3548     1.0  0.55662  0.51462  0.98638  1.0000
  H   H3549     1.0  0.63519  0.50373  0.23259  1.0000
  C   C4448     1.0  0.62137  0.50315  0.26826  1.0000
  H   H3550     1.0  0.58328  0.61374  0.47896  1.0000
  C   C4449     1.0  0.50802  0.64048  0.72262  1.0000
  C   C4450     1.0  0.53186  0.60860  0.57660  1.0000
  C   C4451     1.0  0.53056  0.52358  0.78630  1.0000
  C   C4452     1.0  0.51695  0.63200  0.57597  1.0000
  C   C4453     1.0  0.50744  0.63120  0.56347  1.0000
  Fe  Fe296     1.0  0.51884  0.59918  0.69586  1.0000
  S   S591      1.0  0.51588  0.61709  0.68977  1.0000
  H   H3551     1.0  0.57356  0.63458  0.95279  1.0000
  Fe  Fe297     1.0  0.54414  0.60786  0.66025  1.0000
  S   S592      1.0  0.54286  0.62682  0.65112  1.0000
  S   S593      1.0  0.55742  0.59974  0.63630  1.0000
  Fe  Fe298     1.0  0.53348  0.62220  0.69820  1.0000
  S   S594      1.0  0.53547  0.63497  0.72649  1.0000
  Fe  Fe299     1.0  0.52513  0.62016  0.64368  1.0000
  S   S595      1.0  0.51417  0.62647  0.61354  1.0000
  S   S596      1.0  0.53590  0.60376  0.70745  1.0000
  S   S597      1.0  0.52706  0.60172  0.64990  1.0000
  Fe  Fe300     1.0  0.58311  0.53612  0.67613  1.0000
  S   S598      1.0  0.59692  0.52626  0.67454  1.0000
  S   S599      1.0  0.56394  0.52933  0.68152  1.0000
  Fe  Fe301     1.0  0.59982  0.55932  0.66562  1.0000
  S   S600      1.0  0.61559  0.55159  0.66279  1.0000
  S   S601      1.0  0.59867  0.57794  0.66632  1.0000
  Fe  Fe302     1.0  0.60741  0.54079  0.63618  1.0000
  S   S602      1.0  0.61748  0.53360  0.60199  1.0000
  Fe  Fe303     1.0  0.60429  0.53731  0.70122  1.0000
  S   S603      1.0  0.61020  0.52646  0.73644  1.0000
  S   S604      1.0  0.59278  0.54979  0.63585  1.0000
  S   S605      1.0  0.58939  0.54589  0.70597  1.0000
  S   S606      1.0  0.60857  0.52126  0.93293  1.0000
  Fe  Fe304     1.0  0.64142  0.52159  0.91359  1.0000
  S   S607      1.0  0.63509  0.53812  0.90696  1.0000
  H   H3552     1.0  0.50695  0.69770  0.88186  1.0000
  Fe  Fe305     1.0  0.62270  0.53004  0.95043  1.0000
  H   H3553     1.0  0.55377  0.52112  0.48705  1.0000
  Fe  Fe306     1.0  0.62133  0.52832  0.88989  1.0000
  S   S608      1.0  0.61516  0.53806  0.85369  1.0000
  S   S609      1.0  0.63011  0.51429  0.95832  1.0000
  S   S610      1.0  0.62861  0.51250  0.89299  1.0000
  H   H3554     1.0  0.54034  0.56234  0.59265  1.0000
  C   C4454     1.0  0.65444  0.52067  0.53105  1.0000
  Fe  Fe307     1.0  0.50750  0.65486  0.91643  1.0000
  S   S611      1.0  0.52259  0.64631  0.91209  1.0000
  S   S612      1.0  0.51019  0.67458  0.90130  1.0000
  Fe  Fe308     1.0  0.51144  0.63356  0.89476  1.0000
  S   S613      1.0  0.51687  0.62359  0.86168  1.0000
  Fe  Fe309     1.0  0.51312  0.63487  0.95621  1.0000
  H   H3555     1.0  0.54346  0.50457  0.63119  1.0000
  C   C4455     1.0  0.58704  0.57174  0.52140  1.0000
  P   P148      1.0  0.56318  0.51189  0.53502  1.0000
  C   C4456     1.0  0.55207  0.63804  0.86909  1.0000
  S   S614      1.0  0.50366  0.58369  0.71866  1.0000
  H   H3556     1.0  0.60152  0.67721  0.84284  1.0000
  C   C4457     1.0  0.55065  0.50615  0.64097  1.0000
  H   H3557     1.0  0.64854  0.55332  0.94613  1.0000
  C   C4458     1.0  0.58299  0.53071  0.57618  1.0000
  C   C4459     1.0  0.55753  0.62852  0.77603  1.0000
  H   H3558     1.0  0.54358  0.62416  0.85272  1.0000
  C   C4460     1.0  0.60672  0.58956  0.59419  1.0000
  H   H3559     1.0  0.58260  0.51049  0.94710  1.0000
  C   C4461     1.0  0.56320  0.52412  0.48054  1.0000
  C   C4462     1.0  0.57294  0.60871  0.55045  1.0000
  C   C4463     1.0  0.51003  0.65811  0.57489  1.0000
  C   C4464     1.0  0.61726  0.53512  0.56573  1.0000
  C   C4465     1.0  0.62241  0.52803  0.55039  1.0000
  H   H3560     1.0  0.65722  0.52118  0.97763  1.0000
  C   C4466     1.0  0.56183  0.51769  0.66562  1.0000
  C   C4467     1.0  0.49954  0.63269  0.74602  1.0000
  H   H3561     1.0  0.51899  0.65739  0.57082  1.0000
  H   H3562     1.0  0.62617  0.52153  0.56103  1.0000
  H   H3563     1.0  0.50311  0.58611  0.48332  1.0000
  H   H3564     1.0  0.51646  0.61039  0.56318  1.0000
  H   H3565     1.0  0.60845  0.54887  0.56331  1.0000
  C   C4468     1.0  0.61139  0.52978  0.76906  1.0000
  C   C4469     1.0  0.61486  0.52196  0.78891  1.0000
  C   C4470     1.0  0.61601  0.52429  0.81501  1.0000
  C   C4471     1.0  0.61382  0.53457  0.82133  1.0000
  C   C4472     1.0  0.61032  0.54237  0.80150  1.0000
  C   C4473     1.0  0.60905  0.53997  0.77556  1.0000
  H   H3566     1.0  0.61666  0.51407  0.78394  1.0000
  H   H3567     1.0  0.61860  0.51820  0.83022  1.0000
  H   H3568     1.0  0.60867  0.55037  0.80612  1.0000
  H   H3569     1.0  0.60641  0.54608  0.76046  1.0000
  C   C4474     1.0  0.55284  0.51598  0.65191  1.0000
  H   H3570     1.0  0.54754  0.52219  0.64993  1.0000
  C   C4475     1.0  0.52883  0.63154  0.76370  1.0000
  C   C4476     1.0  0.52753  0.64071  0.77678  1.0000
  C   C4477     1.0  0.52336  0.63843  0.80662  1.0000
  C   C4478     1.0  0.52074  0.62697  0.82380  1.0000
  C   C4479     1.0  0.52185  0.61780  0.81064  1.0000
  C   C4480     1.0  0.52567  0.62003  0.78082  1.0000
  H   H3571     1.0  0.52997  0.64965  0.76377  1.0000
  H   H3572     1.0  0.52262  0.64558  0.81639  1.0000
  H   H3573     1.0  0.51987  0.60890  0.82365  1.0000
  H   H3574     1.0  0.52662  0.61288  0.77117  1.0000
  H   H3575     1.0  0.74896  0.51103  0.94894  1.0000
  S   S615      1.0  0.66080  0.52244  0.89859  1.0000
  C   C4481     1.0  0.58301  0.55641  0.49692  1.0000
  C   C4482     1.0  0.65309  0.53206  0.52281  1.0000
  P   P149      1.0  0.51556  0.59760  0.51873  1.0000
  C   C4483     1.0  0.56930  0.62584  0.96643  1.0000
  C   C4484     1.0  0.51327  0.56677  0.64546  1.0000
  H   H3576     1.0  0.51200  0.66726  0.53200  1.0000
  S   S616      1.0  0.50307  0.62150  0.93857  1.0000
  H   H3577     1.0  0.57062  0.55844  0.53193  1.0000
  C   C4485     1.0  0.56764  0.59266  0.64890  1.0000
  C   C4486     1.0  0.57463  0.59738  0.66513  1.0000
  C   C4487     1.0  0.58398  0.59268  0.67065  1.0000
  C   C4488     1.0  0.58632  0.58308  0.66056  1.0000
  C   C4489     1.0  0.57911  0.57814  0.64510  1.0000
  C   C4490     1.0  0.56987  0.58293  0.63920  1.0000
  H   H3578     1.0  0.57316  0.60498  0.67231  1.0000
  H   H3579     1.0  0.58956  0.59663  0.68246  1.0000
  H   H3580     1.0  0.58083  0.57079  0.63709  1.0000
  H   H3581     1.0  0.56454  0.57916  0.62673  1.0000
  H   H3582     1.0  0.58762  0.52300  0.50429  1.0000
  H   H3583     1.0  0.54273  0.65807  0.86594  1.0000
  H   H3584     1.0  0.59017  0.51058  0.83083  1.0000
  H   H3585     1.0  0.53748  0.53134  0.77458  1.0000
  C   C4491     1.0  0.61311  0.54501  0.52245  1.0000
  C   C4492     1.0  0.57644  0.50728  0.57416  1.0000
  C   C4493     1.0  0.50659  0.67325  0.48273  1.0000
  C   C4494     1.0  0.58304  0.59815  0.50996  1.0000
  C   C4495     1.0  0.56329  0.63965  0.80883  1.0000
  H   H3586     1.0  0.51645  0.57539  0.55597  1.0000
  H   H3587     1.0  0.60304  0.51388  0.51764  1.0000
  C   C4496     1.0  0.57594  0.52757  0.55850  1.0000
  C   C4497     1.0  0.54338  0.66801  0.78631  1.0000
  H   H3588     1.0  0.53068  0.61410  0.59112  1.0000
  C   C4498     1.0  0.55056  0.66088  0.79459  1.0000
  H   H3589     1.0  0.59208  0.54191  0.85295  1.0000
  H   H3590     1.0  0.50467  0.56609  0.64171  1.0000
  H   H3591     1.0  0.60438  0.58353  0.50516  1.0000
  C   C4499     1.0  0.57978  0.65256  0.85369  1.0000
  H   H3592     1.0  0.57716  0.54873  0.49475  1.0000
  H   H3593     1.0  0.56271  0.61947  0.93379  1.0000
  H   H3594     1.0  0.56543  0.52108  0.92749  1.0000
  C   C4500     1.0  0.53388  0.57645  0.63225  1.0000
  H   H3595     1.0  0.59074  0.50899  0.89868  1.0000
  C   C4501     1.0  0.52757  0.53569  0.69605  1.0000
  C   C4502     1.0  0.57475  0.63853  0.80013  1.0000
  C   C4503     1.0  0.53363  0.52823  0.70897  1.0000
  H   H3596     1.0  0.53420  0.56500  0.74076  1.0000
  H   H3597     1.0  0.58649  0.50387  0.60461  1.0000
  C   C4504     1.0  0.52794  0.61921  0.48199  1.0000
  H   H3598     1.0  0.59219  0.52454  0.60669  1.0000
  C   C4505     1.0  0.62292  0.52944  0.52119  1.0000
  C   C4506     1.0  0.58363  0.51049  0.59151  1.0000
  C   C4507     1.0  0.52780  0.50799  0.55158  1.0000
  C   C4508     1.0  0.51207  0.51460  0.82124  1.0000
  C   C4509     1.0  0.56318  0.61734  0.95574  1.0000
  C   C4510     1.0  0.50435  0.69191  0.49115  1.0000
  C   C4511     1.0  0.51471  0.55912  0.66903  1.0000
  C   C4512     1.0  0.53270  0.51698  0.70481  1.0000
  C   C4513     1.0  0.67961  0.51275  0.89597  1.0000
  C   C4514     1.0  0.52560  0.51303  0.68805  1.0000
  C   C4515     1.0  0.54288  0.66062  0.84373  1.0000
  H   H3599     1.0  0.56223  0.54376  0.63155  1.0000
  C   C4516     1.0  0.56255  0.55885  0.70124  1.0000
  C   C4517     1.0  0.52029  0.64217  0.51697  1.0000
  P   P150      1.0  0.58302  0.57816  0.55068  1.0000
  C   C4518     1.0  0.64576  0.51734  0.82026  1.0000
  C   C4519     1.0  0.58681  0.52216  0.59276  1.0000
  H   H3600     1.0  0.64470  0.52589  0.81058  1.0000
  C   C4520     1.0  0.50419  0.55885  0.51688  1.0000
  C   C4521     1.0  0.56993  0.52144  0.49974  1.0000
  C   C4522     1.0  0.55016  0.55220  0.61441  1.0000
  H   H3601     1.0  0.53775  0.51143  0.71388  1.0000
  H   H3602     1.0  0.51387  0.51718  0.66267  1.0000
  H   H3603     1.0  0.50284  0.61326  0.49139  1.0000
  C   C4523     1.0  0.56441  0.51771  0.80602  1.0000
  H   H3604     1.0  0.50169  0.63561  0.52498  1.0000
  C   C4524     1.0  0.50634  0.64171  0.69530  1.0000
  H   H3605     1.0  0.54084  0.50345  0.52268  1.0000
  C   C4525     1.0  0.50194  0.56767  0.49720  1.0000
  H   H3606     1.0  0.58704  0.59431  0.49393  1.0000
  H   H3607     1.0  0.57177  0.50756  0.77918  1.0000
  C   C4526     1.0  0.50158  0.55534  0.76215  1.0000
  C   C4527     1.0  0.52818  0.63770  0.55861  1.0000
  C   C4528     1.0  0.54151  0.60383  0.57361  1.0000
  Fe  Fe310     1.0  0.61690  0.50617  0.93743  1.0000
  C   C4529     1.0  0.57286  0.65725  0.83716  1.0000
  C   C4530     1.0  0.57122  0.55884  0.59659  1.0000
  C   C4531     1.0  0.55893  0.56933  0.57452  1.0000
  C   C4532     1.0  0.54322  0.59708  0.55413  1.0000
  C   C4533     1.0  0.54860  0.51327  0.54915  1.0000
  H   H3608     1.0  0.54355  0.67084  0.76404  1.0000
  C   C4534     1.0  0.51944  0.52031  0.67543  1.0000
  C   C4535     1.0  0.55266  0.64171  0.89399  1.0000
  H   H3609     1.0  0.57133  0.67304  0.80946  1.0000
  C   C4536     1.0  0.50252  0.65313  0.60200  1.0000
  C   C4537     1.0  0.57015  0.56821  0.57609  1.0000
  H   H3610     1.0  0.65113  0.54533  0.48892  1.0000
  C   C4538     1.0  0.56316  0.53201  0.75508  1.0000
  C   C4539     1.0  0.56946  0.52285  0.90498  1.0000
  C   C4540     1.0  0.56048  0.52793  0.80607  1.0000
  H   H3611     1.0  0.53916  0.53108  0.72211  1.0000
  C   C4541     1.0  0.53542  0.56868  0.65546  1.0000
  H   H3612     1.0  0.51545  0.56579  0.72594  1.0000
  C   C4542     1.0  0.52585  0.55989  0.67401  1.0000
  H   H3613     1.0  0.57053  0.55733  0.68986  1.0000
  H   H3614     1.0  0.54765  0.60547  0.58636  1.0000
  C   C4543     1.0  0.50596  0.66370  0.55279  1.0000
  C   C4544     1.0  0.52377  0.60644  0.56068  1.0000
  H   H3615     1.0  0.66114  0.50506  0.86278  1.0000
  C   C4545     1.0  0.63896  0.50715  0.81672  1.0000
  H   H3616     1.0  0.56920  0.61284  0.56631  1.0000
  C   C4546     1.0  0.52281  0.57550  0.62721  1.0000
  H   H3617     1.0  0.53271  0.52188  0.60260  1.0000
  H   H3618     1.0  0.58551  0.53976  0.57714  1.0000
  H   H3619     1.0  0.54126  0.58338  0.61856  1.0000
  C   C4547     1.0  0.57246  0.51579  0.55769  1.0000
  C   C4548     1.0  0.53896  0.62346  0.92269  1.0000
  C   C4549     1.0  0.58219  0.52515  0.49020  1.0000
  C   C4550     1.0  0.57645  0.66921  0.82253  1.0000
  C   C4551     1.0  0.50230  0.60169  0.53163  1.0000
  C   C4552     1.0  0.59354  0.67165  0.84125  1.0000
  H   H3620     1.0  0.54408  0.56976  0.65898  1.0000
  C   C4553     1.0  0.56302  0.56599  0.72004  1.0000
  H   H3621     1.0  0.57141  0.57009  0.72293  1.0000
  C   C4554     1.0  0.54146  0.55580  0.71110  1.0000
  C   C4555     1.0  0.66821  0.51197  0.91134  1.0000
  C   C4556     1.0  0.55758  0.60611  0.97342  1.0000
  C   C4557     1.0  0.53078  0.51275  0.78027  1.0000
  H   H3622     1.0  0.57110  0.62292  0.75124  1.0000
  C   C4558     1.0  0.51132  0.55703  0.73957  1.0000
  C   C4559     1.0  0.53589  0.67136  0.80674  1.0000
  H   H3623     1.0  0.52156  0.58172  0.60967  1.0000
  H   H3624     1.0  0.59538  0.65608  0.86850  1.0000
  C   C4560     1.0  0.67805  0.50584  0.48471  1.0000
  H   H3625     1.0  0.55181  0.54879  0.68093  1.0000
  C   C4561     1.0  0.52547  0.51318  0.57407  1.0000
  H   H3626     1.0  0.51061  0.55479  0.55413  1.0000
  H   H3627     1.0  0.53557  0.63847  0.56786  1.0000
  C   C4562     1.0  0.57039  0.51759  0.86001  1.0000
  C   C4563     1.0  0.55187  0.55393  0.69641  1.0000
  H   H3628     1.0  0.51525  0.53688  0.66997  1.0000
  H   H3629     1.0  0.55632  0.65844  0.77839  1.0000
  P   P151      1.0  0.52772  0.54970  0.70402  1.0000
  C   C4564     1.0  0.58446  0.53457  0.86298  1.0000
  C   C4565     1.0  0.58007  0.52729  0.84701  1.0000
  H   H3630     1.0  0.52574  0.62275  0.50014  1.0000
  H   H3631     1.0  0.59235  0.59498  0.58206  1.0000
  H   H3632     1.0  0.53026  0.67681  0.80037  1.0000
  H   H3633     1.0  0.57003  0.51977  0.73485  1.0000
  H   H3634     1.0  0.49985  0.69706  0.50277  1.0000
  H   H3635     1.0  0.58432  0.52918  0.82454  1.0000
  H   H3636     1.0  0.50710  0.55266  0.68342  1.0000
  C   C4566     1.0  0.57924  0.53232  0.89197  1.0000
  S   S617      1.0  0.52280  0.64940  0.48032  1.0000
  C   C4567     1.0  0.53462  0.51834  0.58431  1.0000
  H   H3637     1.0  0.65479  0.51734  0.55270  1.0000
  H   H3638     1.0  0.51315  0.64741  0.67715  1.0000
  C   C4568     1.0  0.50997  0.53616  0.75213  1.0000
  H   H3639     1.0  0.50122  0.63171  0.76685  1.0000
  H   H3640     1.0  0.69473  0.50555  0.89375  1.0000
  C   C4569     1.0  0.50938  0.56169  0.53806  1.0000
  H   H3641     1.0  0.57724  0.64332  0.86486  1.0000
  H   H3642     1.0  0.57235  0.59324  0.58154  1.0000
  C   C4570     1.0  0.64947  0.54691  0.96381  1.0000
  H   H3643     1.0  0.58287  0.53788  0.90430  1.0000
  H   H3644     1.0  0.55761  0.50810  0.89988  1.0000
  C   C4571     1.0  0.56506  0.51547  0.88914  1.0000
  C   C4572     1.0  0.50910  0.63615  0.53413  1.0000
  C   C4573     1.0  0.65435  0.51831  0.48382  1.0000
  C   C4574     1.0  0.54472  0.62704  0.87141  1.0000
  H   H3645     1.0  0.54582  0.63521  0.80308  1.0000
  H   H3646     1.0  0.52493  0.50435  0.68462  1.0000
  H   H3647     1.0  0.65618  0.53641  0.93758  1.0000
  C   C4575     1.0  0.56898  0.50993  0.66717  1.0000
  C   C4576     1.0  0.54199  0.56303  0.72994  1.0000
  C   C4577     1.0  0.50019  0.53449  0.77461  1.0000
  H   H3648     1.0  0.57441  0.62311  0.51496  1.0000
  C   C4578     1.0  0.54614  0.51838  0.57199  1.0000
  H   H3649     1.0  0.54248  0.54608  0.62948  1.0000
  C   C4579     1.0  0.59008  0.65974  0.85573  1.0000
  C   C4580     1.0  0.56894  0.62750  0.76742  1.0000
  C   C4581     1.0  0.59504  0.57966  0.56746  1.0000
  C   C4582     1.0  0.56001  0.53514  0.78059  1.0000
  H   H3650     1.0  0.60829  0.59625  0.60559  1.0000
  H   H3651     1.0  0.56270  0.53748  0.73532  1.0000
  H   H3652     1.0  0.55788  0.53036  0.82577  1.0000
  H   H3653     1.0  0.58161  0.64239  0.80888  1.0000
  H   H3654     1.0  0.62031  0.58189  0.60537  1.0000
  H   H3655     1.0  0.62278  0.50889  0.61758  1.0000
  H   H3656     1.0  0.65904  0.52441  0.83961  1.0000
  H   H3657     1.0  0.51106  0.50587  0.75124  1.0000
  C   C4583     1.0  0.56725  0.52198  0.75482  1.0000
  C   C4584     1.0  0.50070  0.67958  0.49894  1.0000
  C   C4585     1.0  0.52034  0.53156  0.67951  1.0000
  H   H3658     1.0  0.52108  0.53291  0.81140  1.0000
  H   H3659     1.0  0.55786  0.57627  0.55839  1.0000
  H   H3660     1.0  0.51607  0.64534  0.72559  1.0000
  H   H3661     1.0  0.57570  0.51101  0.67839  1.0000
  H   H3662     1.0  0.55722  0.54315  0.78053  1.0000
  C   C4586     1.0  0.59828  0.57606  0.50280  1.0000
  H   H3663     1.0  0.57302  0.53429  0.54582  1.0000
  H   H3664     1.0  0.60959  0.55170  0.51178  1.0000
  H   H3665     1.0  0.58639  0.63168  0.77279  1.0000
  C   C4587     1.0  0.51558  0.54746  0.73432  1.0000
  C   C4588     1.0  0.52980  0.64286  0.52940  1.0000
  C   C4589     1.0  0.52156  0.50275  0.79458  1.0000
  C   C4590     1.0  0.55275  0.56812  0.73431  1.0000
  C   C4591     1.0  0.56808  0.51497  0.78010  1.0000
  H   H3666     1.0  0.60436  0.50285  0.56338  1.0000
  C   C4592     1.0  0.61118  0.57249  0.58055  1.0000
  H   H3667     1.0  0.55292  0.52196  0.58132  1.0000
  H   H3668     1.0  0.55317  0.57394  0.74826  1.0000
  C   C4593     1.0  0.65493  0.50550  0.84990  1.0000
  H   H3669     1.0  0.62700  0.52401  0.50962  1.0000
  C   C4594     1.0  0.51276  0.57342  0.53890  1.0000
  C   C4595     1.0  0.55470  0.63450  0.79673  1.0000
  C   C4596     1.0  0.56128  0.55091  0.61569  1.0000
  H   H3670     1.0  0.53685  0.59010  0.52215  1.0000
  P   P152      1.0  0.56476  0.50829  0.83900  1.0000
  H   H3671     1.0  0.51299  0.52858  0.74858  1.0000
  H   H3672     1.0  0.61635  0.56609  0.58091  1.0000
  C   C4597     1.0  0.61348  0.58143  0.59416  1.0000
  C   C4598     1.0  0.60196  0.57157  0.56739  1.0000
  C   C4599     1.0  0.57592  0.61449  0.52158  1.0000
  C   C4600     1.0  0.58674  0.67637  0.82464  1.0000
  C   C4601     1.0  0.65506  0.51369  0.51158  1.0000
  C   C4602     1.0  0.54619  0.63440  0.92066  1.0000
  C   C4603     1.0  0.57753  0.63246  0.77956  1.0000
  H   H3673     1.0  0.54636  0.63738  0.93978  1.0000
  H   H3674     1.0  0.52988  0.67033  0.85134  1.0000
  H   H3675     1.0  0.53849  0.64751  0.51638  1.0000
  H   H3676     1.0  0.57971  0.55763  0.59788  1.0000
  C   C4604     1.0  0.58092  0.60920  0.50134  1.0000
  C   C4605     1.0  0.61843  0.53810  0.50692  1.0000
  C   C4606     1.0  0.54898  0.56137  0.59370  1.0000
  C   C4607     1.0  0.68592  0.50477  0.90565  1.0000
  C   C4608     1.0  0.52127  0.52449  0.80693  1.0000
  H   H3677     1.0  0.65234  0.53733  0.53803  1.0000
  C   C4609     1.0  0.53566  0.66770  0.83544  1.0000
  H   H3678     1.0  0.55088  0.62479  0.76638  1.0000
  H   H3679     1.0  0.55083  0.59361  0.55140  1.0000
  C   C4610     1.0  0.59982  0.50440  0.52397  1.0000
  C   C4611     1.0  0.51114  0.58240  0.51819  1.0000
  C   C4612     1.0  0.65366  0.53731  0.95906  1.0000
  H   H3680     1.0  0.53803  0.51233  0.76395  1.0000
  P   P153      1.0  0.55960  0.64792  0.83449  1.0000
  H   H3681     1.0  0.55781  0.65036  0.89283  1.0000
  C   C4613     1.0  0.58006  0.59228  0.53896  1.0000
  C   C4614     1.0  0.53823  0.61979  0.89810  1.0000
  H   H3682     1.0  0.58944  0.68560  0.81337  1.0000
  C   C4615     1.0  0.57934  0.56197  0.51798  1.0000
  H   H3683     1.0  0.51652  0.51284  0.58425  1.0000
  C   C4616     1.0  0.53524  0.59505  0.53778  1.0000
  H   H3684     1.0  0.54092  0.50915  0.83339  1.0000
  H   H3685     1.0  0.53223  0.61154  0.89952  1.0000
  H   H3686     1.0  0.68364  0.51964  0.87655  1.0000
  C   C4617     1.0  0.61246  0.54347  0.55167  1.0000
  C   C4618     1.0  0.52533  0.59954  0.54135  1.0000
  H   H3687     1.0  0.60013  0.56442  0.55757  1.0000
  C   C4619     1.0  0.57481  0.59758  0.55906  1.0000
  H   H3688     1.0  0.55277  0.59956  0.96515  1.0000
  C   C4620     1.0  0.55023  0.65697  0.82348  1.0000
  C   C4621     1.0  0.65241  0.53659  0.49513  1.0000
  H   H3689     1.0  0.60866  0.50740  0.66257  1.0000
  H   H3690     1.0  0.53362  0.61801  0.94328  1.0000
  H   H3691     1.0  0.50318  0.59759  0.66474  1.0000
  C   C4622     1.0  0.59755  0.58871  0.58092  1.0000
  C   C4623     1.0  0.65381  0.51651  0.83663  1.0000
  C   C4624     1.0  0.66312  0.50307  0.93648  1.0000
  H   H3692     1.0  0.73418  0.50407  0.58488  1.0000
  H   H3693     1.0  0.50062  0.52469  0.48628  1.0000
  H   H3694     1.0  0.50476  0.51535  0.83692  1.0000
  H   H3695     1.0  0.63274  0.50785  0.80395  1.0000
  H   H3696     1.0  0.50571  0.64853  0.61877  1.0000
  H   H3697     1.0  0.50429  0.51818  0.53370  1.0000
  H   H3698     1.0  0.65443  0.50248  0.94868  1.0000
  S   S618      1.0  0.61783  0.54189  0.97904  1.0000
  H   H3699     1.0  0.50155  0.54977  0.51637  1.0000
  C   C4625     1.0  0.50521  0.57938  0.49817  1.0000
  C   C4626     1.0  0.53929  0.50799  0.53924  1.0000
  C   C4627     1.0  0.52396  0.60716  0.48446  1.0000
  H   H3700     1.0  0.50394  0.66372  0.48828  1.0000
  H   H3701     1.0  0.59428  0.50363  0.48582  1.0000
  C   C4628     1.0  0.51214  0.50382  0.81487  1.0000
  H   H3702     1.0  0.52063  0.50355  0.54450  1.0000
  C   C4629     1.0  0.57952  0.50245  0.94132  1.0000
  C   C4630     1.0  0.60192  0.57045  0.48186  1.0000
  Fe  Fe311     1.0  0.55535  0.99719  0.10773  1.0000
  S   S619      1.0  0.54156  0.98642  0.14740  1.0000
  S   S620      1.0  0.55724  0.99350  0.06270  1.0000
  C   C4631     1.0  0.50850  0.98467  0.33306  1.0000
  S   S621      1.0  0.53526  0.95918  0.99072  1.0000
  C   C4632     1.0  0.52492  0.91623  0.01343  1.0000
  Fe  Fe312     1.0  0.55415  0.99205  0.17277  1.0000
  S   S622      1.0  0.55504  0.97900  0.21275  1.0000
  H   H3703     1.0  0.51720  0.76164  0.27700  1.0000
  C   C4633     1.0  0.51461  0.95592  0.28830  1.0000
  C   C4634     1.0  0.52708  0.92762  0.01708  1.0000
  C   C4635     1.0  0.50561  0.88650  0.41662  1.0000
  C   C4636     1.0  0.51425  0.94953  0.26765  1.0000
  H   H3704     1.0  0.52406  0.93778  0.33566  1.0000
  C   C4637     1.0  0.50336  0.97553  0.13959  1.0000
  H   H3705     1.0  0.55022  0.95844  0.18380  1.0000
  C   C4638     1.0  0.52689  0.95581  0.15501  1.0000
  C   C4639     1.0  0.52081  0.95528  0.20516  1.0000
  H   H3706     1.0  0.51669  0.96279  0.03390  1.0000
  H   H3707     1.0  0.51511  0.89298  0.44501  1.0000
  H   H3708     1.0  0.56933  0.99484  0.25815  1.0000
  H   H3709     1.0  0.53445  0.95601  0.05086  1.0000
  H   H3710     1.0  0.51715  0.99017  0.33035  1.0000
  C   C4640     1.0  0.55055  0.98389  0.04355  1.0000
  C   C4641     1.0  0.55255  0.98787  0.01374  1.0000
  C   C4642     1.0  0.54787  0.98058  0.99745  1.0000
  C   C4643     1.0  0.54133  0.96895  0.01044  1.0000
  C   C4644     1.0  0.54379  0.97234  0.05666  1.0000
  P   P154      1.0  0.51188  0.89288  0.02589  1.0000
  C   C4645     1.0  0.51174  0.98497  0.14205  1.0000
  C   C4646     1.0  0.54836  0.97800  0.24909  1.0000
  C   C4647     1.0  0.54244  0.98617  0.25693  1.0000
  C   C4648     1.0  0.53810  0.98561  0.28594  1.0000
  C   C4649     1.0  0.53946  0.97682  0.30771  1.0000
  C   C4650     1.0  0.54942  0.96899  0.27080  1.0000
  H   H3711     1.0  0.54158  0.99319  0.24064  1.0000
  H   H3712     1.0  0.53379  0.99215  0.29143  1.0000
  C   C4651     1.0  0.53185  0.88421  0.02127  1.0000
  H   H3713     1.0  0.54741  0.87784  0.01735  1.0000
  H   H3714     1.0  0.50335  0.87504  0.99761  1.0000
  H   H3715     1.0  0.52400  0.92663  0.29890  1.0000
  Fe  Fe313     1.0  0.52636  0.95842  0.45265  1.0000
  H   H3716     1.0  0.55394  0.96257  0.26512  1.0000
  H   H3717     1.0  0.50774  0.91942  0.38393  1.0000
  C   C4652     1.0  0.51068  0.88439  0.08333  1.0000
  C   C4653     1.0  0.51207  0.90733  0.41601  1.0000
  C   C4654     1.0  0.52512  0.89027  0.00682  1.0000
  S   S623      1.0  0.53507  0.97747  0.34394  1.0000
  C   C4655     1.0  0.50524  0.77112  0.35956  1.0000
  C   C4656     1.0  0.51834  0.97911  0.22535  1.0000
  C   C4657     1.0  0.51122  0.89538  0.42764  1.0000
  C   C4658     1.0  0.52297  0.75605  0.27260  1.0000
  H   H3718     1.0  0.52102  0.93937  0.04037  1.0000
  H   H3719     1.0  0.50967  0.97177  0.36868  1.0000
  H   H3720     1.0  0.51799  0.93414  0.25537  1.0000
  C   C4659     1.0  0.51783  0.93902  0.27145  1.0000
  P   P155      1.0  0.50966  0.95492  0.23603  1.0000
  S   S624      1.0  0.56884  0.00168  0.13286  1.0000
  H   H3721     1.0  0.50554  0.00154  0.23085  1.0000
  C   C4660     1.0  0.53941  0.96493  0.04025  1.0000
  C   C4661     1.0  0.53842  0.95678  0.15683  1.0000
  C   C4662     1.0  0.50954  0.92190  0.05563  1.0000
  H   H3722     1.0  0.54839  0.98887  0.43063  1.0000
  H   H3723     1.0  0.52506  0.99776  0.21691  1.0000
  C   C4663     1.0  0.53999  0.75307  0.24244  1.0000
  H   H3724     1.0  0.52086  0.98592  0.13290  1.0000
  C   C4664     1.0  0.51509  0.90752  0.03114  1.0000
  C   C4665     1.0  0.50164  0.98784  0.31478  1.0000
  C   C4666     1.0  0.51802  0.95161  0.31281  1.0000
  C   C4667     1.0  0.50755  0.95823  0.03895  1.0000
  C   C4668     1.0  0.54500  0.96838  0.29987  1.0000
  H   H3725     1.0  0.57753  0.00052  0.20599  1.0000
  C   C4669     1.0  0.54710  0.99463  0.44449  1.0000
  H   H3726     1.0  0.54526  0.95761  0.13808  1.0000
  H   H3727     1.0  0.50359  0.96133  0.08062  1.0000
  H   H3728     1.0  0.51234  0.96426  0.28569  1.0000
  S   S625      1.0  0.51985  0.91814  0.42997  1.0000
  H   H3729     1.0  0.54620  0.96158  0.31617  1.0000
  C   C4670     1.0  0.50430  0.97425  0.35469  1.0000
  C   C4671     1.0  0.51733  0.99051  0.22479  1.0000
  C   C4672     1.0  0.50633  0.99262  0.23286  1.0000
  H   H3730     1.0  0.52918  0.88080  0.04413  1.0000
  C   C4673     1.0  0.54121  0.95719  0.18258  1.0000
  C   C4674     1.0  0.50832  0.96968  0.23459  1.0000
  C   C4675     1.0  0.53247  0.76016  0.24857  1.0000
  S   S626      1.0  0.51904  0.96971  0.42225  1.0000
  C   C4676     1.0  0.52126  0.93475  0.29600  1.0000
  H   H3731     1.0  0.51836  0.95663  0.32852  1.0000
  C   C4677     1.0  0.51938  0.93047  0.03803  1.0000
  H   H3732     1.0  0.54219  0.96900  0.07941  1.0000
  C   C4678     1.0  0.50741  0.91045  0.05229  1.0000
  C   C4679     1.0  0.50665  0.87618  0.10986  1.0000
  S   S627      1.0  0.51101  0.94275  0.46133  1.0000
  S   S628      1.0  0.51301  0.94786  0.39221  1.0000
  C   C4680     1.0  0.52131  0.94102  0.31673  1.0000
  C   C4681     1.0  0.50187  0.90144  0.38159  1.0000
  C   C4682     1.0  0.51813  0.95512  0.17900  1.0000
  H   H3733     1.0  0.53498  0.95732  0.22596  1.0000
  S   S629      1.0  0.53679  0.95275  0.41653  1.0000
  C   C4683     1.0  0.51728  0.75977  0.33820  1.0000
  Fe  Fe314     1.0  0.52066  0.93777  0.42373  1.0000
  H   H3734     1.0  0.53401  0.76885  0.23469  1.0000
  H   H3735     1.0  0.52694  0.97770  0.21843  1.0000
  C   C4684     1.0  0.50824  0.99327  0.15559  1.0000
  H   H3736     1.0  0.55781  0.99669  0.00309  1.0000
  Fe  Fe315     1.0  0.52831  0.96315  0.38662  1.0000
  C   C4685     1.0  0.50713  0.91029  0.39323  1.0000
  C   C4686     1.0  0.51627  0.76943  0.34927  1.0000
  H   H3737     1.0  0.50879  0.95448  0.99811  1.0000
  H   H3738     1.0  0.52480  0.95588  0.13481  1.0000
  Fe  Fe316     1.0  0.50450  0.95375  0.42929  1.0000
  C   C4687     1.0  0.53248  0.95653  0.20657  1.0000
  H   H3739     1.0  0.52404  0.77562  0.34989  1.0000
  H   H3740     1.0  0.53090  0.91440  0.99652  1.0000
  C   C4688     1.0  0.50631  0.88225  0.06024  1.0000
  C   C4689     1.0  0.53581  0.99391  0.45993  1.0000
  H   H3741     1.0  0.54736  0.75626  0.22382  1.0000
  H   H3742     1.0  0.52589  0.75858  0.33031  1.0000
  C   C4690     1.0  0.50160  0.89194  0.00409  1.0000
  C   C4691     1.0  0.53400  0.00093  0.47892  1.0000
  H   H3743     1.0  0.50612  0.96911  0.12925  1.0000
  C   C4692     1.0  0.55672  0.00230  0.44802  1.0000
  H   H3744     1.0  0.50872  0.98496  0.46605  1.0000
  C   C4693     1.0  0.50307  0.95354  0.01876  1.0000
  H   H3745     1.0  0.51004  0.87789  0.12759  1.0000
  H   H3746     1.0  0.50936  0.95465  0.17674  1.0000
  H   H3747     1.0  0.50527  0.87740  0.42550  1.0000
  H   H3748     1.0  0.51731  0.89236  0.08080  1.0000
  C   C4694     1.0  0.54223  0.88252  0.00614  1.0000
  C   C4695     1.0  0.50017  0.95739  0.06525  1.0000
  H   H3749     1.0  0.50024  0.80593  0.34314  1.0000
  H   H3750     1.0  0.53466  0.93433  0.00327  1.0000
  H   H3751     1.0  0.52863  0.98762  0.45733  1.0000
  H   H3752     1.0  0.50502  0.99580  0.29762  1.0000
  C   C4696     1.0  0.50110  0.88948  0.39311  1.0000
  H   H3753     1.0  0.50356  0.92419  0.07173  1.0000
  H   H3754     1.0  0.49975  0.90392  0.06608  1.0000
  H   H3755     1.0  0.50441  0.77860  0.36809  1.0000
  Fe  Fe317     1.0  0.55432  0.99657  0.61102  1.0000
  S   S630      1.0  0.54086  0.98567  0.65088  1.0000
  S   S631      1.0  0.55741  0.99159  0.56783  1.0000
  H   H3756     1.0  0.51110  0.97436  0.71682  1.0000
  H   H3757     1.0  0.50364  0.92890  0.54287  1.0000
  C   C4697     1.0  0.52015  0.93576  0.81571  1.0000
  Fe  Fe318     1.0  0.55358  0.99137  0.67574  1.0000
  S   S632      1.0  0.55409  0.97739  0.71441  1.0000
  C   C4698     1.0  0.49967  0.96863  0.49649  1.0000
  C   C4699     1.0  0.50196  0.87831  0.82990  1.0000
  H   H3758     1.0  0.52756  0.93843  0.82421  1.0000
  C   C4700     1.0  0.53262  0.95659  0.68989  1.0000
  H   H3759     1.0  0.56947  0.99864  0.71395  1.0000
  H   H3760     1.0  0.51580  0.85634  0.83862  1.0000
  C   C4701     1.0  0.49938  0.89910  0.76848  1.0000
  H   H3761     1.0  0.51084  0.87532  0.91326  1.0000
  H   H3762     1.0  0.54191  0.96073  0.68455  1.0000
  C   C4702     1.0  0.51083  0.86198  0.82956  1.0000
  C   C4703     1.0  0.50642  0.97941  0.53733  1.0000
  H   H3763     1.0  0.57822  0.98990  0.67684  1.0000
  H   H3764     1.0  0.54218  0.99442  0.87864  1.0000
  H   H3765     1.0  0.50166  0.92063  0.70947  1.0000
  S   S633      1.0  0.51442  0.94508  0.89209  1.0000
  C   C4704     1.0  0.54936  0.98322  0.54858  1.0000
  C   C4705     1.0  0.55492  0.98330  0.52065  1.0000
  C   C4706     1.0  0.54896  0.97719  0.50413  1.0000
  C   C4707     1.0  0.53718  0.97099  0.51494  1.0000
  C   C4708     1.0  0.53767  0.97669  0.55984  1.0000
  H   H3766     1.0  0.56396  0.98815  0.51165  1.0000
  H   H3767     1.0  0.52511  0.89227  0.91830  1.0000
  C   C4709     1.0  0.54835  0.97692  0.75081  1.0000
  C   C4710     1.0  0.54499  0.98645  0.75897  1.0000
  C   C4711     1.0  0.54097  0.98594  0.78804  1.0000
  C   C4712     1.0  0.54006  0.97586  0.80943  1.0000
  C   C4713     1.0  0.54744  0.96681  0.77219  1.0000
  H   H3768     1.0  0.54560  0.99427  0.74287  1.0000
  H   H3769     1.0  0.53844  0.99337  0.79401  1.0000
  C   C4714     1.0  0.51774  0.94377  0.79437  1.0000
  C   C4715     1.0  0.51146  0.97556  0.73769  1.0000
  S   S634      1.0  0.53947  0.95063  0.91096  1.0000
  H   H3770     1.0  0.50029  0.88537  0.83933  1.0000
  Fe  Fe319     1.0  0.52977  0.95469  0.95073  1.0000
  S   S635      1.0  0.52526  0.91645  0.91549  1.0000
  H   H3771     1.0  0.51311  0.89851  0.79052  1.0000
  Fe  Fe320     1.0  0.50670  0.94904  0.93291  1.0000
  C   C4716     1.0  0.50858  0.96586  0.76142  1.0000
  C   C4717     1.0  0.51572  0.98878  0.76709  1.0000
  S   S636      1.0  0.52046  0.96571  0.92566  1.0000
  C   C4718     1.0  0.50802  0.99086  0.66097  1.0000
  C   C4719     1.0  0.53933  0.89300  0.96213  1.0000
  H   H3772     1.0  0.50231  0.91454  0.90208  1.0000
  Fe  Fe321     1.0  0.52919  0.96085  0.88651  1.0000
  C   C4720     1.0  0.54322  0.96623  0.80131  1.0000
  C   C4721     1.0  0.50838  0.94020  0.56879  1.0000
  C   C4722     1.0  0.50864  0.94604  0.70378  1.0000
  C   C4723     1.0  0.50901  0.96779  0.78814  1.0000
  H   H3773     1.0  0.51486  0.91815  0.84293  1.0000
  H   H3774     1.0  0.52095  0.98554  0.63325  1.0000
  H   H3775     1.0  0.50701  0.79892  0.88268  1.0000
  C   C4724     1.0  0.56997  0.99607  0.82881  1.0000
  C   C4725     1.0  0.51301  0.92432  0.82622  1.0000
  C   C4726     1.0  0.51266  0.97920  0.79092  1.0000
  H   H3776     1.0  0.51337  0.98057  0.81146  1.0000
  H   H3777     1.0  0.57538  0.98832  0.75618  1.0000
  H   H3778     1.0  0.54226  0.89658  0.93925  1.0000
  H   H3779     1.0  0.53319  0.97642  0.58124  1.0000
  S   S637      1.0  0.51522  0.93809  0.96000  1.0000
  H   H3780     1.0  0.52262  0.96598  0.55194  1.0000
  H   H3781     1.0  0.51752  0.99438  0.72197  1.0000
  H   H3782     1.0  0.52118  0.92769  0.71780  1.0000
  H   H3783     1.0  0.49947  0.94164  0.70886  1.0000
  C   C4727     1.0  0.50519  0.94338  0.59422  1.0000
  C   C4728     1.0  0.57407  0.99074  0.77612  1.0000
  C   C4729     1.0  0.50426  0.90606  0.90431  1.0000
  H   H3784     1.0  0.50793  0.85259  0.79810  1.0000
  S   S638      1.0  0.53540  0.97605  0.84578  1.0000
  H   H3785     1.0  0.52392  0.89941  0.96566  1.0000
  H   H3786     1.0  0.51656  0.94501  0.55324  1.0000
  C   C4730     1.0  0.51507  0.98696  0.74054  1.0000
  C   C4731     1.0  0.51199  0.98334  0.64539  1.0000
  H   H3787     1.0  0.53318  0.95261  0.64944  1.0000
  H   H3788     1.0  0.56512  0.97733  0.84698  1.0000
  H   H3789     1.0  0.51181  0.87269  0.85925  1.0000
  H   H3790     1.0  0.51189  0.94311  0.66184  1.0000
  S   S639      1.0  0.52898  0.96359  0.49426  1.0000
  C   C4732     1.0  0.51820  0.91348  0.75484  1.0000
  C   C4733     1.0  0.49952  0.96784  0.54553  1.0000
  C   C4734     1.0  0.51043  0.90318  0.77300  1.0000
  C   C4735     1.0  0.53166  0.97074  0.54307  1.0000
  C   C4736     1.0  0.50637  0.85987  0.80676  1.0000
  C   C4737     1.0  0.50357  0.92081  0.81498  1.0000
  C   C4738     1.0  0.51344  0.95114  0.72322  1.0000
  C   C4739     1.0  0.51507  0.91977  0.73194  1.0000
  C   C4740     1.0  0.56828  0.98438  0.82757  1.0000
  H   H3791     1.0  0.52952  0.96013  0.73088  1.0000
  H   H3792     1.0  0.49963  0.90660  0.54066  1.0000
  C   C4741     1.0  0.50998  0.98574  0.50856  1.0000
  C   C4742     1.0  0.52769  0.95199  0.67017  1.0000
  H   H3793     1.0  0.54270  0.95845  0.81744  1.0000
  Fe  Fe322     1.0  0.52391  0.93498  0.91862  1.0000
  H   H3794     1.0  0.52348  0.95255  0.78630  1.0000
  C   C4743     1.0  0.52553  0.95623  0.71623  1.0000
  C   C4744     1.0  0.51572  0.94667  0.67716  1.0000
  C   C4745     1.0  0.57040  0.98173  0.80125  1.0000
  C   C4746     1.0  0.51703  0.89350  0.91360  1.0000
  C   C4747     1.0  0.50897  0.88384  0.91055  1.0000
  H   H3795     1.0  0.55007  0.95940  0.76620  1.0000
  C   C4748     1.0  0.50797  0.94050  0.78381  1.0000
  H   H3796     1.0  0.52669  0.91661  0.75853  1.0000
  H   H3797     1.0  0.56891  0.97264  0.80028  1.0000
  C   C4749     1.0  0.51471  0.90464  0.91091  1.0000
  H   H3798     1.0  0.51088  0.95065  0.59849  1.0000
  H   H3799     1.0  0.55406  0.88570  0.96489  1.0000
  H   H3800     1.0  0.54953  0.98390  0.97470  1.0000
  S   S640      1.0  0.56796  0.00110  0.63535  1.0000
  H   H3801     1.0  0.50729  0.96730  0.63259  1.0000
  C   C4750     1.0  0.50859  0.87118  0.84115  1.0000
  C   C4751     1.0  0.50119  0.92880  0.79348  1.0000
  C   C4752     1.0  0.58374  0.99662  0.68326  1.0000
  H   H3802     1.0  0.55350  0.97731  0.48292  1.0000
  H   H3803     1.0  0.50358  0.77787  0.88472  1.0000
  C   C4753     1.0  0.52648  0.00227  0.54654  1.0000
  H   H3804     1.0  0.50906  0.98323  0.55359  1.0000
  C   C4754     1.0  0.50420  0.97312  0.64458  1.0000
  C   C4755     1.0  0.50409  0.91581  0.72732  1.0000
  H   H3805     1.0  0.50546  0.90759  0.48937  1.0000
  C   C4756     1.0  0.49970  0.86696  0.79549  1.0000
  H   H3806     1.0  0.56827  0.99806  0.84928  1.0000
  C   C4757     1.0  0.50098  0.93096  0.56300  1.0000
  H   H3807     1.0  0.50677  0.96051  0.80676  1.0000
  H   H3808     1.0  0.50379  0.99459  0.88353  1.0000
  P   P156      1.0  0.50453  0.95112  0.75725  1.0000
  H   H3809     1.0  0.53151  0.99615  0.54162  1.0000
  C   C4758     1.0  0.50630  0.98030  0.48831  1.0000
  H   H3810     1.0  0.51876  0.99761  0.76906  1.0000
  P   P157      1.0  0.51931  0.00061  0.49746  1.0000
  H   H3811     1.0  0.59946  0.99669  0.65358  1.0000
  C   C4759     1.0  0.54598  0.88693  0.97659  1.0000
  C   C4760     1.0  0.57881  0.00147  0.70453  1.0000
  C   C4761     1.0  0.59573  0.00032  0.67046  1.0000
  C   C4762     1.0  0.52892  0.89460  0.97716  1.0000
  C   C4763     1.0  0.85929  0.37854  0.05553  1.0000
  C   C4764     1.0  0.79963  0.48481  0.02703  1.0000
  H   H3812     1.0  0.91414  0.48273  0.22188  1.0000
  C   C4765     1.0  0.76870  0.33505  0.27503  1.0000
  P   P158      1.0  0.86483  0.38951  0.07286  1.0000
  C   C4766     1.0  0.75231  0.31609  0.33114  1.0000
  C   C4767     1.0  0.76361  0.33446  0.00789  1.0000
  C   C4768     1.0  0.77454  0.36415  0.32939  1.0000
  Fe  Fe323     1.0  0.90658  0.43860  0.43574  1.0000
  C   C4769     1.0  0.92512  0.47493  0.02510  1.0000
  H   H3813     1.0  0.75508  0.42400  0.20632  1.0000
  Fe  Fe324     1.0  0.92035  0.42364  0.40869  1.0000
  S   S641      1.0  0.91163  0.40757  0.44577  1.0000
  S   S642      1.0  0.93479  0.42515  0.36926  1.0000
  Fe  Fe325     1.0  0.89477  0.41263  0.44243  1.0000
  S   S643      1.0  0.87608  0.40224  0.44429  1.0000
  C   C4770     1.0  0.78433  0.49271  0.23112  1.0000
  S   S644      1.0  0.92181  0.41976  0.01122  1.0000
  S   S645      1.0  0.90358  0.42809  0.40440  1.0000
  S   S646      1.0  0.92408  0.43539  0.43753  1.0000
  Fe  Fe326     1.0  0.94560  0.44657  0.19849  1.0000
  S   S647      1.0  0.93179  0.43589  0.23971  1.0000
  Fe  Fe327     1.0  0.95223  0.47183  0.16367  1.0000
  S   S648      1.0  0.96424  0.46880  0.12679  1.0000
  S   S649      1.0  0.94860  0.48898  0.16787  1.0000
  Fe  Fe328     1.0  0.95007  0.45230  0.13194  1.0000
  S   S650      1.0  0.94355  0.44985  0.09163  1.0000
  S   S651      1.0  0.93771  0.45641  0.16690  1.0000
  S   S652      1.0  0.95926  0.46246  0.19726  1.0000
  Fe  Fe329     1.0  0.82899  0.35193  0.40639  1.0000
  S   S653      1.0  0.81693  0.36390  0.40557  1.0000
  S   S654      1.0  0.84847  0.35874  0.40567  1.0000
  Fe  Fe330     1.0  0.80864  0.33020  0.40850  1.0000
  S   S655      1.0  0.79586  0.34119  0.40894  1.0000
  H   H3814     1.0  0.86677  0.47759  0.01323  1.0000
  Fe  Fe331     1.0  0.81000  0.35481  0.37464  1.0000
  S   S656      1.0  0.80461  0.36383  0.33624  1.0000
  Fe  Fe332     1.0  0.80418  0.34890  0.43977  1.0000
  H   H3815     1.0  0.84616  0.42010  0.47710  1.0000
  S   S657      1.0  0.82279  0.34368  0.37298  1.0000
  S   S658      1.0  0.81632  0.33709  0.44176  1.0000
  Fe  Fe333     1.0  0.78194  0.34923  0.16931  1.0000
  S   S659      1.0  0.79556  0.33901  0.17015  1.0000
  S   S660      1.0  0.76269  0.34077  0.18783  1.0000
  Fe  Fe334     1.0  0.79993  0.37234  0.14141  1.0000
  S   S661      1.0  0.81494  0.36407  0.13957  1.0000
  S   S662      1.0  0.80325  0.39148  0.12080  1.0000
  Fe  Fe335     1.0  0.80379  0.35023  0.12552  1.0000
  S   S663      1.0  0.81194  0.34372  0.08869  1.0000
  Fe  Fe336     1.0  0.80531  0.35388  0.18437  1.0000
  S   S664      1.0  0.81578  0.35093  0.21713  1.0000
  S   S665      1.0  0.78951  0.35939  0.12381  1.0000
  S   S666      1.0  0.79095  0.36318  0.18712  1.0000
  H   H3816     1.0  0.88001  0.49806  0.34837  1.0000
  S   S667      1.0  0.84119  0.47514  0.41600  1.0000
  Fe  Fe337     1.0  0.81942  0.49482  0.40706  1.0000
  S   S668      1.0  0.81394  0.47526  0.42019  1.0000
  C   C4771     1.0  0.80722  0.27108  0.32803  1.0000
  Fe  Fe338     1.0  0.82602  0.47654  0.44878  1.0000
  H   H3817     1.0  0.97280  0.49365  0.32438  1.0000
  Fe  Fe339     1.0  0.82949  0.47592  0.38597  1.0000
  S   S669      1.0  0.82634  0.46281  0.35945  1.0000
  H   H3818     1.0  0.76616  0.43609  0.02625  1.0000
  Fe  Fe340     1.0  0.79791  0.45944  0.18014  1.0000
  S   S670      1.0  0.81373  0.47480  0.16517  1.0000
  S   S671      1.0  0.78076  0.46407  0.17947  1.0000
  Fe  Fe341     1.0  0.81256  0.44203  0.18901  1.0000
  S   S672      1.0  0.82945  0.45603  0.17492  1.0000
  S   S673      1.0  0.81282  0.42311  0.20444  1.0000
  Fe  Fe342     1.0  0.81975  0.46572  0.20175  1.0000
  S   S674      1.0  0.82777  0.47715  0.22777  1.0000
  Fe  Fe343     1.0  0.82188  0.46377  0.13989  1.0000
  S   S675      1.0  0.83335  0.47107  0.09475  1.0000
  S   S676      1.0  0.80332  0.45112  0.21846  1.0000
  S   S677      1.0  0.80559  0.44906  0.15221  1.0000
  C   C4772     1.0  0.82582  0.46709  0.32347  1.0000
  C   C4773     1.0  0.83045  0.47871  0.30717  1.0000
  C   C4774     1.0  0.83099  0.48157  0.27792  1.0000
  C   C4775     1.0  0.82658  0.47298  0.26481  1.0000
  C   C4776     1.0  0.82160  0.46142  0.28128  1.0000
  C   C4777     1.0  0.82134  0.45848  0.31042  1.0000
  H   H3819     1.0  0.83397  0.48542  0.31686  1.0000
  H   H3820     1.0  0.83497  0.49049  0.26525  1.0000
  H   H3821     1.0  0.81820  0.45472  0.27143  1.0000
  H   H3822     1.0  0.81775  0.44946  0.32285  1.0000
  C   C4778     1.0  0.76528  0.28392  0.99623  1.0000
  H   H3823     1.0  0.77616  0.38278  0.31913  1.0000
  C   C4779     1.0  0.83400  0.47284  0.03845  1.0000
  C   C4780     1.0  0.82705  0.46884  0.06658  1.0000
  C   C4781     1.0  0.81527  0.46300  0.07179  1.0000
  C   C4782     1.0  0.81053  0.46100  0.04915  1.0000
  C   C4783     1.0  0.82058  0.32416  0.22436  1.0000
  H   H3824     1.0  0.84310  0.47742  0.03423  1.0000
  H   H3825     1.0  0.80978  0.46008  0.09323  1.0000
  H   H3826     1.0  0.80140  0.45654  0.05347  1.0000
  C   C4784     1.0  0.80707  0.40029  0.14317  1.0000
  C   C4785     1.0  0.80851  0.41240  0.13426  1.0000
  C   C4786     1.0  0.81036  0.41945  0.15293  1.0000
  C   C4787     1.0  0.81127  0.41451  0.18013  1.0000
  C   C4788     1.0  0.81060  0.40248  0.18834  1.0000
  C   C4789     1.0  0.80834  0.39534  0.17004  1.0000
  H   H3827     1.0  0.80771  0.41630  0.11333  1.0000
  H   H3828     1.0  0.81108  0.42869  0.14620  1.0000
  H   H3829     1.0  0.81151  0.39863  0.20919  1.0000
  H   H3830     1.0  0.80749  0.38601  0.17688  1.0000
  C   C4790     1.0  0.79901  0.35081  0.00773  1.0000
  C   C4791     1.0  0.79184  0.35061  0.03394  1.0000
  C   C4792     1.0  0.79569  0.34836  0.05890  1.0000
  C   C4793     1.0  0.80675  0.34633  0.05781  1.0000
  C   C4794     1.0  0.81387  0.34640  0.03164  1.0000
  C   C4795     1.0  0.81004  0.34869  0.00665  1.0000
  H   H3831     1.0  0.78326  0.35214  0.03497  1.0000
  H   H3832     1.0  0.78998  0.34798  0.07900  1.0000
  H   H3833     1.0  0.82241  0.34478  0.03061  1.0000
  C   C4796     1.0  0.93405  0.49810  0.33351  1.0000
  C   C4797     1.0  0.80797  0.36037  0.30299  1.0000
  C   C4798     1.0  0.81608  0.35382  0.29703  1.0000
  C   C4799     1.0  0.81851  0.35117  0.27047  1.0000
  C   C4800     1.0  0.81287  0.35504  0.24960  1.0000
  C   C4801     1.0  0.80482  0.36165  0.25546  1.0000
  C   C4802     1.0  0.80244  0.36435  0.28197  1.0000
  H   H3834     1.0  0.82056  0.35089  0.31276  1.0000
  H   H3835     1.0  0.82472  0.34603  0.26612  1.0000
  H   H3836     1.0  0.80043  0.36469  0.23958  1.0000
  H   H3837     1.0  0.79629  0.36956  0.28617  1.0000
  H   H3838     1.0  0.80322  0.48355  0.98373  1.0000
  C   C4803     1.0  0.75694  0.27867  0.12221  1.0000
  C   C4804     1.0  0.75794  0.27946  0.46909  1.0000
  S   S678      1.0  0.81146  0.46158  0.99333  1.0000
  C   C4805     1.0  0.76152  0.33290  0.14001  1.0000
  C   C4806     1.0  0.75612  0.43320  0.19689  1.0000
  C   C4807     1.0  0.74982  0.31302  0.04435  1.0000
  C   C4808     1.0  0.98376  0.43922  0.22586  1.0000
  H   H3839     1.0  0.77021  0.33855  0.13026  1.0000
  C   C4809     1.0  0.75578  0.47326  0.21824  1.0000
  H   H3840     1.0  0.87715  0.45279  0.27595  1.0000
  C   C4810     1.0  0.76678  0.44137  0.19352  1.0000
  C   C4811     1.0  0.76808  0.45332  0.18174  1.0000
  H   H3841     1.0  0.78235  0.34180  0.29430  1.0000
  H   H3842     1.0  0.77389  0.43849  0.20048  1.0000
  H   H3843     1.0  0.79715  0.33423  0.26786  1.0000
  H   H3844     1.0  0.78020  0.36453  0.34373  1.0000
  C   C4812     1.0  0.91162  0.48910  0.20707  1.0000
  C   C4813     1.0  0.96114  0.46186  0.29327  1.0000
  S   S679      1.0  0.94751  0.49431  0.43180  1.0000
  H   H3845     1.0  0.94927  0.49707  0.01527  1.0000
  C   C4814     1.0  0.78478  0.48033  0.00198  1.0000
  C   C4815     1.0  0.95023  0.49478  0.08331  1.0000
  C   C4816     1.0  0.76191  0.44270  0.01827  1.0000
  C   C4817     1.0  0.97205  0.49703  0.16426  1.0000
  H   H3846     1.0  0.78447  0.45921  0.44108  1.0000
  H   H3847     1.0  0.85259  0.39520  0.43944  1.0000
  H   H3848     1.0  0.77600  0.32493  0.99472  1.0000
  H   H3849     1.0  0.97327  0.48921  0.15788  1.0000
  C   C4818     1.0  0.86879  0.39014  0.43287  1.0000
  C   C4819     1.0  0.85688  0.38873  0.43332  1.0000
  C   C4820     1.0  0.85049  0.37914  0.42571  1.0000
  C   C4821     1.0  0.85597  0.37081  0.41689  1.0000
  C   C4822     1.0  0.86795  0.37232  0.41599  1.0000
  C   C4823     1.0  0.87428  0.38181  0.42411  1.0000
  C   C4824     1.0  0.77251  0.37994  0.11971  1.0000
  H   H3850     1.0  0.84135  0.37828  0.42627  1.0000
  H   H3851     1.0  0.87236  0.36601  0.40916  1.0000
  H   H3852     1.0  0.88336  0.38258  0.42387  1.0000
  C   C4825     1.0  0.92767  0.42849  0.03320  1.0000
  C   C4826     1.0  0.92948  0.42271  0.05910  1.0000
  C   C4827     1.0  0.93400  0.42902  0.07737  1.0000
  C   C4828     1.0  0.93708  0.44135  0.06996  1.0000
  C   C4829     1.0  0.93536  0.44715  0.04395  1.0000
  C   C4830     1.0  0.93065  0.44083  0.02585  1.0000
  H   H3853     1.0  0.92742  0.41322  0.06512  1.0000
  H   H3854     1.0  0.93531  0.42432  0.09699  1.0000
  H   H3855     1.0  0.93782  0.45663  0.03761  1.0000
  H   H3856     1.0  0.92940  0.44555  0.00614  1.0000
  C   C4831     1.0  0.93388  0.42880  0.33332  1.0000
  C   C4832     1.0  0.92321  0.42869  0.32638  1.0000
  C   C4833     1.0  0.92279  0.43109  0.29766  1.0000
  C   C4834     1.0  0.93298  0.43365  0.27546  1.0000
  C   C4835     1.0  0.94362  0.43364  0.28239  1.0000
  C   C4836     1.0  0.94407  0.43128  0.31112  1.0000
  H   H3857     1.0  0.91525  0.42654  0.34314  1.0000
  H   H3858     1.0  0.91450  0.43086  0.29264  1.0000
  H   H3859     1.0  0.95143  0.43509  0.26565  1.0000
  H   H3860     1.0  0.95234  0.43114  0.31623  1.0000
  H   H3861     1.0  0.81568  0.34893  0.98654  1.0000
  C   C4837     1.0  0.75283  0.33395  0.02557  1.0000
  H   H3862     1.0  0.82145  0.27370  0.29140  1.0000
  H   H3863     1.0  0.76364  0.38205  0.28535  1.0000
  H   H3864     1.0  0.75284  0.43217  0.99530  1.0000
  H   H3865     1.0  0.79278  0.32387  0.23159  1.0000
  P   P159      1.0  0.76598  0.30038  0.02890  1.0000
  C   C4838     1.0  0.78179  0.30485  0.01719  1.0000
  C   C4839     1.0  0.79097  0.48396  0.05129  1.0000
  C   C4840     1.0  0.76070  0.36335  0.29078  1.0000
  H   H3866     1.0  0.76376  0.33340  0.38668  1.0000
  C   C4841     1.0  0.92655  0.46622  0.41925  1.0000
  C   C4842     1.0  0.93642  0.47471  0.41904  1.0000
  C   C4843     1.0  0.77233  0.37446  0.31539  1.0000
  C   C4844     1.0  0.90206  0.38662  0.07613  1.0000
  H   H3867     1.0  0.99190  0.45851  0.33232  1.0000
  H   H3868     1.0  0.84717  0.40010  0.98076  1.0000
  C   C4845     1.0  0.89791  0.45532  0.01784  1.0000
  H   H3869     1.0  0.78395  0.30916  0.45880  1.0000
  C   C4846     1.0  0.93441  0.47628  0.27037  1.0000
  C   C4847     1.0  0.93507  0.48678  0.27858  1.0000
  C   C4848     1.0  0.94555  0.49572  0.26921  1.0000
  C   C4849     1.0  0.95524  0.49408  0.25090  1.0000
  C   C4850     1.0  0.75885  0.45698  0.17269  1.0000
  C   C4851     1.0  0.85121  0.36130  0.02862  1.0000
  C   C4852     1.0  0.76619  0.32877  0.25516  1.0000
  C   C4853     1.0  0.82633  0.31665  0.32988  1.0000
  C   C4854     1.0  0.83482  0.31948  0.26079  1.0000
  H   H3870     1.0  0.77071  0.35304  0.39455  1.0000
  H   H3871     1.0  0.92765  0.45864  0.41175  1.0000
  C   C4855     1.0  0.77127  0.28237  0.31546  1.0000
  H   H3872     1.0  0.89507  0.45265  0.24101  1.0000
  H   H3873     1.0  0.75911  0.29537  0.13276  1.0000
  C   C4856     1.0  0.94383  0.41270  0.22238  1.0000
  H   H3874     1.0  0.77385  0.35465  0.44152  1.0000
  H   H3875     1.0  0.92979  0.46879  0.11272  1.0000
  C   C4857     1.0  0.91815  0.49310  0.17870  1.0000
  H   H3876     1.0  0.77250  0.44991  0.34692  1.0000
  C   C4858     1.0  0.86833  0.47120  0.43315  1.0000
  H   H3877     1.0  0.94014  0.46210  0.46622  1.0000
  H   H3878     1.0  0.92634  0.46941  0.27758  1.0000
  H   H3879     1.0  0.92734  0.48796  0.29185  1.0000
  C   C4859     1.0  0.93575  0.39193  0.20756  1.0000
  C   C4860     1.0  0.84126  0.32492  0.36196  1.0000
  H   H3880     1.0  0.92275  0.46665  0.01973  1.0000
  H   H3881     1.0  0.78088  0.27142  0.40945  1.0000
  H   H3882     1.0  0.98992  0.38633  0.22633  1.0000
  H   H3883     1.0  0.76982  0.45451  0.29022  1.0000
  S   S680      1.0  0.89653  0.42380  0.47367  1.0000
  H   H3884     1.0  0.93903  0.49165  0.33124  1.0000
  Fe  Fe344     1.0  0.97057  0.45838  0.16092  1.0000
  H   H3885     1.0  0.88876  0.50050  0.08713  1.0000
  C   C4861     1.0  0.86867  0.42745  0.02198  1.0000
  C   C4862     1.0  0.78000  0.33706  0.27924  1.0000
  C   C4863     1.0  0.83124  0.38960  0.04952  1.0000
  C   C4864     1.0  0.83770  0.38963  0.02278  1.0000
  C   C4865     1.0  0.84202  0.40009  0.00136  1.0000
  C   C4866     1.0  0.83981  0.41054  0.00653  1.0000
  C   C4867     1.0  0.83331  0.41063  0.03336  1.0000
  C   C4868     1.0  0.82915  0.40005  0.05485  1.0000
  P   P160      1.0  0.82982  0.42400  0.03977  1.0000
  C   C4869     1.0  0.83300  0.42702  0.07191  1.0000
  H   H3886     1.0  0.75759  0.32700  0.25133  1.0000
  C   C4870     1.0  0.84811  0.44433  0.01326  1.0000
  C   C4871     1.0  0.92746  0.48566  0.11792  1.0000
  C   C4872     1.0  0.93689  0.48113  0.01699  1.0000
  H   H3887     1.0  0.87013  0.43644  0.00978  1.0000
  H   H3888     1.0  0.76459  0.36218  0.11962  1.0000
  C   C4873     1.0  0.82982  0.43649  0.08106  1.0000
  C   C4874     1.0  0.83252  0.43915  0.10542  1.0000
  C   C4875     1.0  0.83824  0.43230  0.12108  1.0000
  C   C4876     1.0  0.84158  0.42296  0.11192  1.0000
  C   C4877     1.0  0.83913  0.42045  0.08718  1.0000
  C   C4878     1.0  0.81437  0.42291  0.04318  1.0000
  C   C4879     1.0  0.80595  0.41211  0.05524  1.0000
  C   C4880     1.0  0.76755  0.32427  0.00848  1.0000
  C   C4881     1.0  0.78767  0.30590  0.98894  1.0000
  H   H3889     1.0  0.99324  0.49013  0.10455  1.0000
  H   H3890     1.0  0.91866  0.48204  0.13122  1.0000
  H   H3891     1.0  0.82775  0.38145  0.06612  1.0000
  H   H3892     1.0  0.83930  0.38152  0.01860  1.0000
  C   C4882     1.0  0.83517  0.43831  0.98469  1.0000
  C   C4883     1.0  0.96895  0.48932  0.37000  1.0000
  H   H3893     1.0  0.82425  0.39986  0.07584  1.0000
  H   H3894     1.0  0.85079  0.44315  0.03290  1.0000
  C   C4884     1.0  0.98073  0.43301  0.20648  1.0000
  C   C4885     1.0  0.94852  0.46153  0.47004  1.0000
  C   C4886     1.0  0.79945  0.38008  0.03835  1.0000
  C   C4887     1.0  0.95451  0.48360  0.24255  1.0000
  H   H3895     1.0  0.82533  0.44191  0.06937  1.0000
  H   H3896     1.0  0.82990  0.44637  0.11259  1.0000
  H   H3897     1.0  0.83990  0.43415  0.14055  1.0000
  H   H3898     1.0  0.84596  0.41761  0.12418  1.0000
  H   H3899     1.0  0.84210  0.41347  0.07999  1.0000
  H   H3900     1.0  0.80841  0.40406  0.06178  1.0000
  H   H3901     1.0  0.77611  0.31965  0.15435  1.0000
  H   H3902     1.0  0.83518  0.38596  0.47381  1.0000
  C   C4888     1.0  0.81055  0.43308  0.03533  1.0000
  C   C4889     1.0  0.75927  0.27950  0.07220  1.0000
  C   C4890     1.0  0.89323  0.38988  0.33322  1.0000
  C   C4891     1.0  0.89928  0.39046  0.35423  1.0000
  C   C4892     1.0  0.89802  0.39850  0.37058  1.0000
  C   C4893     1.0  0.89051  0.40577  0.36641  1.0000
  C   C4894     1.0  0.88435  0.40522  0.34545  1.0000
  C   C4895     1.0  0.88582  0.39726  0.32875  1.0000
  P   P161      1.0  0.87448  0.41445  0.33980  1.0000
  C   C4896     1.0  0.86112  0.40530  0.33694  1.0000
  C   C4897     1.0  0.87129  0.42084  0.36948  1.0000
  C   C4898     1.0  0.86041  0.41677  0.38959  1.0000
  C   C4899     1.0  0.85823  0.42155  0.41292  1.0000
  C   C4900     1.0  0.86693  0.43032  0.41651  1.0000
  C   C4901     1.0  0.87773  0.43450  0.39644  1.0000
  C   C4902     1.0  0.87987  0.42987  0.37284  1.0000
  C   C4903     1.0  0.85462  0.40967  0.31870  1.0000
  C   C4904     1.0  0.84421  0.40246  0.31724  1.0000
  C   C4905     1.0  0.84021  0.39086  0.33393  1.0000
  C   C4906     1.0  0.84663  0.38646  0.35207  1.0000
  C   C4907     1.0  0.85702  0.39364  0.35359  1.0000
  C   C4908     1.0  0.88105  0.42644  0.30823  1.0000
  C   C4909     1.0  0.87615  0.43609  0.30370  1.0000
  C   C4910     1.0  0.88112  0.44547  0.27944  1.0000
  C   C4911     1.0  0.89117  0.44538  0.25977  1.0000
  C   C4912     1.0  0.89617  0.43587  0.26425  1.0000
  C   C4913     1.0  0.89110  0.42640  0.28829  1.0000
  H   H3903     1.0  0.89415  0.38361  0.32063  1.0000
  C   C4914     1.0  0.79608  0.46389  0.36526  1.0000
  H   H3904     1.0  0.88933  0.41150  0.38026  1.0000
  H   H3905     1.0  0.88110  0.39663  0.31257  1.0000
  H   H3906     1.0  0.85366  0.40974  0.38779  1.0000
  H   H3907     1.0  0.84988  0.41819  0.42855  1.0000
  H   H3908     1.0  0.86540  0.43375  0.43504  1.0000
  H   H3909     1.0  0.88451  0.44125  0.39937  1.0000
  H   H3910     1.0  0.88837  0.43304  0.35775  1.0000
  H   H3911     1.0  0.85751  0.41859  0.30556  1.0000
  H   H3912     1.0  0.83921  0.40584  0.30317  1.0000
  H   H3913     1.0  0.83212  0.38526  0.33286  1.0000
  H   H3914     1.0  0.84354  0.37747  0.36507  1.0000
  H   H3915     1.0  0.86184  0.39006  0.36786  1.0000
  H   H3916     1.0  0.86839  0.43628  0.31880  1.0000
  H   H3917     1.0  0.90404  0.43583  0.24910  1.0000
  H   H3918     1.0  0.89515  0.41915  0.29121  1.0000
  C   C4915     1.0  0.91510  0.50141  0.15923  1.0000
  C   C4916     1.0  0.76357  0.32489  0.45657  1.0000
  H   H3919     1.0  0.94349  0.46665  0.24551  1.0000
  H   H3920     1.0  0.79009  0.48373  0.19966  1.0000
  H   H3921     1.0  0.78531  0.38848  0.04063  1.0000
  C   C4917     1.0  0.76268  0.38732  0.15740  1.0000
  H   H3922     1.0  0.77493  0.28116  0.33375  1.0000
  P   P162      1.0  0.76261  0.39841  0.17706  1.0000
  C   C4918     1.0  0.76839  0.41296  0.15289  1.0000
  C   C4919     1.0  0.84109  0.43641  0.47478  1.0000
  H   H3923     1.0  0.94993  0.39435  0.36165  1.0000
  C   C4920     1.0  0.77787  0.43595  0.11783  1.0000
  C   C4921     1.0  0.78525  0.42882  0.12446  1.0000
  C   C4922     1.0  0.78052  0.41742  0.14204  1.0000
  C   C4923     1.0  0.77179  0.39631  0.20121  1.0000
  C   C4924     1.0  0.77398  0.38528  0.21032  1.0000
  C   C4925     1.0  0.78120  0.38378  0.22875  1.0000
  C   C4926     1.0  0.78622  0.39322  0.23837  1.0000
  C   C4927     1.0  0.78406  0.40419  0.22950  1.0000
  C   C4928     1.0  0.77688  0.40575  0.21100  1.0000
  C   C4929     1.0  0.79339  0.38792  0.02744  1.0000
  C   C4930     1.0  0.94020  0.49210  0.02242  1.0000
  C   C4931     1.0  0.97140  0.45266  0.03760  1.0000
  C   C4932     1.0  0.96874  0.46853  0.30514  1.0000
  C   C4933     1.0  0.76238  0.28996  0.47562  1.0000
  H   H3924     1.0  0.78156  0.44494  0.10509  1.0000
  H   H3925     1.0  0.79465  0.43223  0.11658  1.0000
  H   H3926     1.0  0.78631  0.41211  0.14779  1.0000
  H   H3927     1.0  0.77032  0.37786  0.20290  1.0000
  H   H3928     1.0  0.78309  0.37534  0.23523  1.0000
  H   H3929     1.0  0.79208  0.39214  0.25202  1.0000
  H   H3930     1.0  0.78835  0.41161  0.23611  1.0000
  C   C4934     1.0  0.77003  0.49790  0.40849  1.0000
  C   C4935     1.0  0.85763  0.47027  0.31413  1.0000
  C   C4936     1.0  0.85242  0.45827  0.32556  1.0000
  C   C4937     1.0  0.85722  0.45154  0.34418  1.0000
  C   C4938     1.0  0.86734  0.45677  0.35099  1.0000
  C   C4939     1.0  0.87263  0.46883  0.33971  1.0000
  C   C4940     1.0  0.86764  0.47558  0.32132  1.0000
  P   P163      1.0  0.88549  0.47547  0.34968  1.0000
  C   C4941     1.0  0.89219  0.48999  0.32626  1.0000
  C   C4942     1.0  0.88169  0.47674  0.38594  1.0000
  C   C4943     1.0  0.88944  0.48462  0.39505  1.0000
  C   C4944     1.0  0.88673  0.48567  0.42297  1.0000
  H   H3931     1.0  0.94565  0.38426  0.23392  1.0000
  C   C4945     1.0  0.97849  0.43456  0.25493  1.0000
  C   C4946     1.0  0.87105  0.47007  0.40523  1.0000
  C   C4947     1.0  0.90184  0.49195  0.30304  1.0000
  C   C4948     1.0  0.93260  0.49776  0.11136  1.0000
  C   C4949     1.0  0.78853  0.33279  0.26408  1.0000
  H   H3932     1.0  0.98076  0.43944  0.26991  1.0000
  H   H3933     1.0  0.74969  0.26254  0.27722  1.0000
  C   C4950     1.0  0.89602  0.46679  0.34563  1.0000
  C   C4951     1.0  0.89640  0.46023  0.32524  1.0000
  C   C4952     1.0  0.90497  0.45404  0.32096  1.0000
  C   C4953     1.0  0.91326  0.45442  0.33687  1.0000
  C   C4954     1.0  0.91298  0.46095  0.35703  1.0000
  C   C4955     1.0  0.90444  0.46714  0.36136  1.0000
  H   H3934     1.0  0.85367  0.47552  0.30033  1.0000
  H   H3935     1.0  0.84444  0.45429  0.32066  1.0000
  H   H3936     1.0  0.85294  0.44232  0.35374  1.0000
  H   H3937     1.0  0.87090  0.45151  0.36562  1.0000
  H   H3938     1.0  0.87129  0.48494  0.31276  1.0000
  H   H3939     1.0  0.89754  0.49004  0.38047  1.0000
  H   H3940     1.0  0.93365  0.42023  0.19630  1.0000
  H   H3941     1.0  0.95907  0.49832  0.06996  1.0000
  H   H3942     1.0  0.84335  0.41851  0.98960  1.0000
  H   H3943     1.0  0.86471  0.46418  0.39882  1.0000
  H   H3944     1.0  0.90553  0.48484  0.29878  1.0000
  C   C4956     1.0  0.76398  0.36926  0.12984  1.0000
  H   H3945     1.0  0.93037  0.39839  0.36965  1.0000
  H   H3946     1.0  0.89017  0.46003  0.31242  1.0000
  H   H3947     1.0  0.90521  0.44894  0.30535  1.0000
  H   H3948     1.0  0.91994  0.44968  0.33367  1.0000
  H   H3949     1.0  0.91932  0.46112  0.36961  1.0000
  H   H3950     1.0  0.90446  0.47214  0.37710  1.0000
  C   C4957     1.0  0.86785  0.42496  0.05113  1.0000
  H   H3951     1.0  0.75608  0.31378  0.31203  1.0000
  C   C4958     1.0  0.87618  0.47898  0.44202  1.0000
  C   C4959     1.0  0.86637  0.40681  0.02375  1.0000
  C   C4960     1.0  0.86554  0.40419  0.05307  1.0000
  C   C4961     1.0  0.86632  0.41339  0.06663  1.0000
  H   H3952     1.0  0.84044  0.31748  0.27453  1.0000
  C   C4962     1.0  0.86627  0.37769  0.03007  1.0000
  H   H3953     1.0  0.86859  0.43203  0.06163  1.0000
  C   C4963     1.0  0.98466  0.47121  0.26383  1.0000
  C   C4964     1.0  0.79757  0.39477  0.99931  1.0000
  H   H3954     1.0  0.86601  0.40006  0.01241  1.0000
  H   H3955     1.0  0.86596  0.41165  0.08909  1.0000
  C   C4965     1.0  0.80379  0.28875  0.34046  1.0000
  H   H3956     1.0  0.87484  0.38369  0.02037  1.0000
  H   H3957     1.0  0.84231  0.39413  0.09279  1.0000
  H   H3958     1.0  0.77373  0.28324  0.99944  1.0000
  H   H3959     1.0  0.83467  0.47399  0.99412  1.0000
  H   H3960     1.0  0.79723  0.28610  0.41459  1.0000
  C   C4966     1.0  0.83332  0.31388  0.37268  1.0000
  C   C4967     1.0  0.92637  0.49679  0.35977  1.0000
  H   H3961     1.0  0.96329  0.50094  0.24232  1.0000
  H   H3962     1.0  0.75904  0.27487  0.05574  1.0000
  C   C4968     1.0  0.76532  0.37404  0.29631  1.0000
  C   C4969     1.0  0.97699  0.46468  0.25190  1.0000
  C   C4970     1.0  0.96722  0.41734  0.24522  1.0000
  C   C4971     1.0  0.75583  0.33246  0.16781  1.0000
  H   H3963     1.0  0.90944  0.49294  0.99926  1.0000
  C   C4972     1.0  0.80050  0.31241  0.02663  1.0000
  H   H3964     1.0  0.83585  0.35570  0.06372  1.0000
  C   C4973     1.0  0.80703  0.50090  0.30526  1.0000
  C   C4974     1.0  0.77024  0.34614  0.43835  1.0000
  C   C4975     1.0  0.91534  0.46759  0.42914  1.0000
  H   H3965     1.0  0.94772  0.44497  0.45933  1.0000
  H   H3966     1.0  0.91087  0.38597  0.07621  1.0000
  S   S681      1.0  0.90285  0.45636  0.43286  1.0000
  C   C4976     1.0  0.93515  0.48461  0.42870  1.0000
  H   H3967     1.0  0.81096  0.33020  0.33687  1.0000
  H   H3968     1.0  0.92293  0.49417  0.44377  1.0000
  H   H3969     1.0  0.79580  0.44042  0.03331  1.0000
  H   H3970     1.0  0.96673  0.44339  0.46908  1.0000
  C   C4977     1.0  0.96413  0.39152  0.25684  1.0000
  H   H3971     1.0  0.76903  0.34276  0.99388  1.0000
  H   H3972     1.0  0.77890  0.39688  0.12594  1.0000
  H   H3973     1.0  0.80498  0.26159  0.33225  1.0000
  H   H3974     1.0  0.76814  0.48382  0.34168  1.0000
  H   H3975     1.0  0.78765  0.40328  0.07035  1.0000
  H   H3976     1.0  0.98696  0.48030  0.18469  1.0000
  H   H3977     1.0  0.75164  0.41716  0.15425  1.0000
  H   H3978     1.0  0.83415  0.45133  0.47871  1.0000
  H   H3979     1.0  0.95932  0.45514  0.25712  1.0000
  C   C4978     1.0  0.80629  0.31287  0.99895  1.0000
  C   C4979     1.0  0.77536  0.31066  0.16528  1.0000
  C   C4980     1.0  0.76456  0.33414  0.40751  1.0000
  H   H3980     1.0  0.79272  0.33567  0.35287  1.0000
  P   P164      1.0  0.75507  0.28644  0.23851  1.0000
  C   C4981     1.0  0.81297  0.29570  0.31720  1.0000
  C   C4982     1.0  0.78207  0.32199  0.34027  1.0000
  H   H3981     1.0  0.79655  0.46124  0.47530  1.0000
  H   H3982     1.0  0.77304  0.27850  0.20412  1.0000
  C   C4983     1.0  0.93055  0.40211  0.32527  1.0000
  C   C4984     1.0  0.90202  0.49344  0.21628  1.0000
  C   C4985     1.0  0.98055  0.47339  0.29029  1.0000
  C   C4986     1.0  0.79043  0.49729  0.40590  1.0000
  H   H3983     1.0  0.84802  0.35475  0.01805  1.0000
  C   C4987     1.0  0.79051  0.48529  0.22019  1.0000
  H   H3984     1.0  0.76046  0.32621  0.10332  1.0000
  H   H3985     1.0  0.86757  0.36873  0.99670  1.0000
  P   P165      1.0  0.76086  0.47579  0.02530  1.0000
  C   C4988     1.0  0.78298  0.30455  0.15372  1.0000
  H   H3986     1.0  0.77265  0.48073  0.07000  1.0000
  H   H3987     1.0  0.95963  0.36223  0.28682  1.0000
  C   C4989     1.0  0.76102  0.42012  0.14572  1.0000
  C   C4990     1.0  0.93369  0.47816  0.10744  1.0000
  H   H3988     1.0  0.92219  0.40427  0.32871  1.0000
  C   C4991     1.0  0.96525  0.46005  0.26658  1.0000
  C   C4992     1.0  0.80088  0.27651  0.34574  1.0000
  C   C4993     1.0  0.75937  0.29091  0.11585  1.0000
  C   C4994     1.0  0.78200  0.31269  0.32742  1.0000
  H   H3989     1.0  0.96220  0.49406  0.37227  1.0000
  C   C4995     1.0  0.96406  0.37102  0.27366  1.0000
  H   H3990     1.0  0.78792  0.28818  0.15862  1.0000
  H   H3991     1.0  0.80543  0.31533  0.04091  1.0000
  C   C4996     1.0  0.97540  0.37326  0.25656  1.0000
  C   C4997     1.0  0.77486  0.32484  0.23946  1.0000
  C   C4998     1.0  0.78602  0.32680  0.24400  1.0000
  C   C4999     1.0  0.84476  0.38996  0.11122  1.0000
  C   C5000     1.0  0.87937  0.38846  0.07472  1.0000
  H   H3992     1.0  0.87489  0.36943  0.08469  1.0000
  H   H3993     1.0  0.99016  0.44766  0.21820  1.0000
  C   C5001     1.0  0.82922  0.47096  0.01570  1.0000
  C   C5002     1.0  0.88846  0.39860  0.06955  1.0000
  C   C5003     1.0  0.88176  0.37738  0.08075  1.0000
  H   H3994     1.0  0.88699  0.40726  0.06452  1.0000
  C   C5004     1.0  0.81748  0.46495  0.02105  1.0000
  H   H3995     1.0  0.93262  0.38388  0.20178  1.0000
  C   C5005     1.0  0.85533  0.38664  0.10807  1.0000
  C   C5006     1.0  0.84833  0.37044  0.06777  1.0000
  C   C5007     1.0  0.89307  0.37648  0.08144  1.0000
  H   H3996     1.0  0.82891  0.39011  0.14025  1.0000
  H   H3997     1.0  0.89489  0.36792  0.08578  1.0000
  H   H3998     1.0  0.77003  0.41857  0.25625  1.0000
  H   H3999     1.0  0.77548  0.41439  0.20397  1.0000
  H   H4000     1.0  0.77864  0.31265  0.40070  1.0000
  C   C5008     1.0  0.84432  0.36189  0.05428  1.0000
  C   C5009     1.0  0.83712  0.38761  0.13810  1.0000
  H   H4001     1.0  0.90672  0.40552  0.06587  1.0000
  C   C5010     1.0  0.89973  0.39765  0.07031  1.0000
  C   C5011     1.0  0.75427  0.37645  0.16780  1.0000
  C   C5012     1.0  0.96311  0.44188  0.00718  1.0000
  H   H4002     1.0  0.98828  0.49446  0.24893  1.0000
  H   H4003     1.0  0.90488  0.38464  0.35798  1.0000
  S   S682      1.0  0.80216  0.31060  0.40958  1.0000
  C   C5013     1.0  0.75673  0.27296  0.10044  1.0000
  C   C5014     1.0  0.76295  0.35293  0.30464  1.0000
  C   C5015     1.0  0.92398  0.48641  0.43680  1.0000
  C   C5016     1.0  0.91409  0.47787  0.43701  1.0000
  C   C5017     1.0  0.99399  0.50040  0.25680  1.0000
  H   H4004     1.0  0.84281  0.37060  0.08770  1.0000
  H   H4005     1.0  0.98213  0.47265  0.41050  1.0000
  C   C5018     1.0  0.98030  0.49755  0.44511  1.0000
  H   H4006     1.0  0.79405  0.48076  0.40308  1.0000
  H   H4007     1.0  0.87203  0.47572  0.13051  1.0000
  H   H4008     1.0  0.80197  0.46216  0.37844  1.0000
  C   C5019     1.0  0.85813  0.38081  0.13232  1.0000
  C   C5020     1.0  0.76982  0.35342  0.32425  1.0000
  C   C5021     1.0  0.77947  0.45699  0.34754  1.0000
  H   H4009     1.0  0.90262  0.39890  0.38708  1.0000
  C   C5022     1.0  0.78744  0.48557  0.40478  1.0000
  C   C5023     1.0  0.87608  0.48089  0.01040  1.0000
  H   H4010     1.0  0.88278  0.46925  0.16578  1.0000
  C   C5024     1.0  0.83988  0.38169  0.16210  1.0000
  C   C5025     1.0  0.88030  0.47363  0.12358  1.0000
  H   H4011     1.0  0.81681  0.44153  0.02643  1.0000
  H   H4012     1.0  0.86617  0.37805  0.13060  1.0000
  C   C5026     1.0  0.79035  0.42177  0.05209  1.0000
  H   H4013     1.0  0.78405  0.30832  0.05713  1.0000
  H   H4014     1.0  0.77385  0.30760  0.32552  1.0000
  H   H4015     1.0  0.83264  0.30866  0.39378  1.0000
  H   H4016     1.0  0.79226  0.30265  0.30741  1.0000
  C   C5027     1.0  0.99584  0.48930  0.45759  1.0000
  H   H4017     1.0  0.78574  0.44600  0.37788  1.0000
  C   C5028     1.0  0.85039  0.37831  0.15922  1.0000
  H   H4018     1.0  0.83378  0.37955  0.18288  1.0000
  H   H4019     1.0  0.78254  0.47880  0.98278  1.0000
  H   H4020     1.0  0.92539  0.48935  0.37735  1.0000
  H   H4021     1.0  0.90545  0.47904  0.44407  1.0000
  C   C5029     1.0  0.76680  0.30521  0.19080  1.0000
  C   C5030     1.0  0.77592  0.48011  0.40517  1.0000
  C   C5031     1.0  0.88637  0.47000  0.14344  1.0000
  H   H4022     1.0  0.87992  0.47740  0.08008  1.0000
  H   H4023     1.0  0.81399  0.37249  0.02916  1.0000
  C   C5032     1.0  0.88480  0.47444  0.09479  1.0000
  H   H4024     1.0  0.85243  0.37363  0.17790  1.0000
  H   H4025     1.0  0.84822  0.44137  0.45651  1.0000
  H   H4026     1.0  0.97017  0.41756  0.20060  1.0000
  P   P166      1.0  0.95674  0.40317  0.25714  1.0000
  H   H4027     1.0  0.77384  0.47112  0.40367  1.0000
  C   C5033     1.0  0.78693  0.45478  0.36492  1.0000
  H   H4028     1.0  0.80520  0.48198  0.34836  1.0000
  C   C5034     1.0  0.77911  0.30367  0.40253  1.0000
  C   C5035     1.0  0.79652  0.48302  0.00242  1.0000
  H   H4029     1.0  0.79615  0.37463  0.06000  1.0000
  H   H4030     1.0  0.77175  0.34557  0.33519  1.0000
  C   C5036     1.0  0.77364  0.28751  0.19349  1.0000
  C   C5037     1.0  0.77022  0.28341  0.40159  1.0000
  C   C5038     1.0  0.99591  0.47975  0.18242  1.0000
  C   C5039     1.0  0.76601  0.29364  0.20538  1.0000
  H   H4031     1.0  0.95203  0.45810  0.30472  1.0000
  H   H4032     1.0  0.86869  0.42030  0.98565  1.0000
  C   C5040     1.0  0.77192  0.38890  0.13350  1.0000
  H   H4033     1.0  0.78787  0.44772  0.28178  1.0000
  H   H4034     1.0  0.80264  0.31177  0.47208  1.0000
  C   C5041     1.0  0.78958  0.28877  0.41041  1.0000
  S   S683      1.0  0.95734  0.44136  0.16389  1.0000
  C   C5042     1.0  0.76714  0.48620  0.40706  1.0000
  H   H4035     1.0  0.75144  0.30328  0.27274  1.0000
  C   C5043     1.0  0.86220  0.36916  0.01663  1.0000
  H   H4036     1.0  0.90360  0.44980  0.08302  1.0000
  H   H4037     1.0  0.90306  0.43048  0.07356  1.0000
  C   C5044     1.0  0.79785  0.47520  0.34811  1.0000
  H   H4038     1.0  0.77398  0.32411  0.34843  1.0000
  H   H4039     1.0  0.84680  0.32824  0.37468  1.0000
  C   C5045     1.0  0.93636  0.41240  0.20432  1.0000
  C   C5046     1.0  0.88186  0.47515  0.02837  1.0000
  C   C5047     1.0  0.89541  0.47155  0.08558  1.0000
  C   C5048     1.0  0.90164  0.44838  0.06361  1.0000
  C   C5049     1.0  0.90131  0.43734  0.05837  1.0000
  C   C5050     1.0  0.89702  0.46732  0.13447  1.0000
  C   C5051     1.0  0.93177  0.49679  0.03646  1.0000
  H   H4040     1.0  0.82656  0.29527  0.28169  1.0000
  H   H4041     1.0  0.75721  0.34963  0.23890  1.0000
  C   C5052     1.0  0.76071  0.31347  0.02689  1.0000
  H   H4042     1.0  0.87696  0.46721  0.04461  1.0000
  H   H4043     1.0  0.84907  0.32550  0.22288  1.0000
  C   C5053     1.0  0.89385  0.47967  0.02546  1.0000
  C   C5054     1.0  0.89922  0.43529  0.03300  1.0000
  C   C5055     1.0  0.90160  0.46826  0.10564  1.0000
  H   H4044     1.0  0.89926  0.42683  0.02867  1.0000
  H   H4045     1.0  0.90172  0.46448  0.14988  1.0000
  C   C5056     1.0  0.88755  0.49943  0.33083  1.0000
  C   C5057     1.0  0.76387  0.45344  0.02550  1.0000
  C   C5058     1.0  0.75964  0.43007  0.26890  1.0000
  H   H4046     1.0  0.98016  0.40238  0.22640  1.0000
  H   H4047     1.0  0.84758  0.34062  0.32752  1.0000
  C   C5059     1.0  0.84170  0.33190  0.33535  1.0000
  S   S684      1.0  0.79288  0.35135  0.47940  1.0000
  H   H4048     1.0  0.76364  0.30696  0.08322  1.0000
  C   C5060     1.0  0.77372  0.28688  0.26441  1.0000
  C   C5061     1.0  0.75946  0.29150  0.00800  1.0000
  C   C5062     1.0  0.89989  0.45746  0.04339  1.0000
  C   C5063     1.0  0.78207  0.29295  0.16774  1.0000
  P   P167      1.0  0.90125  0.47207  0.04860  1.0000
  C   C5064     1.0  0.78931  0.30055  0.40742  1.0000
  H   H4049     1.0  0.81955  0.30134  0.36586  1.0000
  C   C5065     1.0  0.82589  0.30974  0.35671  1.0000
  C   C5066     1.0  0.75729  0.48708  0.00092  1.0000
  C   C5067     1.0  0.77852  0.28538  0.28787  1.0000
  H   H4050     1.0  0.75197  0.42509  0.26472  1.0000
  C   C5068     1.0  0.76960  0.29514  0.39961  1.0000
  C   C5069     1.0  0.79032  0.47754  0.33076  1.0000
  C   C5070     1.0  0.78111  0.46833  0.33062  1.0000
  C   C5071     1.0  0.77059  0.49331  0.33469  1.0000
  H   H4051     1.0  0.97122  0.49794  0.44962  1.0000
  C   C5072     1.0  0.76158  0.28514  0.26842  1.0000
  C   C5073     1.0  0.98350  0.48269  0.34011  1.0000
  C   C5074     1.0  0.89748  0.44427  0.01284  1.0000
  P   P168      1.0  0.81633  0.31155  0.30989  1.0000
  C   C5075     1.0  0.97496  0.48906  0.34301  1.0000
  C   C5076     1.0  0.83415  0.32787  0.31953  1.0000
  H   H4052     1.0  0.80633  0.31826  0.26172  1.0000
  H   H4053     1.0  0.79340  0.48520  0.07049  1.0000
  C   C5077     1.0  0.76853  0.34521  0.41188  1.0000
  S   S685      1.0  0.83079  0.49627  0.43781  1.0000
  C   C5078     1.0  0.83974  0.32390  0.23149  1.0000
  H   H4054     1.0  0.81511  0.32621  0.21022  1.0000
  H   H4055     1.0  0.90996  0.46633  0.09900  1.0000
  C   C5079     1.0  0.78028  0.28040  0.40730  1.0000
  H   H4056     1.0  0.76188  0.29766  0.39562  1.0000
  C   C5080     1.0  0.75832  0.46204  0.01544  1.0000
  C   C5081     1.0  0.81565  0.31982  0.25365  1.0000
  H   H4057     1.0  0.79885  0.29281  0.35446  1.0000
  H   H4058     1.0  0.79371  0.27122  0.36363  1.0000
  H   H4059     1.0  0.83424  0.33363  0.29959  1.0000
  H   H4060     1.0  0.80339  0.47779  0.27353  1.0000
  H   H4061     1.0  0.89702  0.46224  0.00124  1.0000
  H   H4062     1.0  0.94504  0.47341  0.41207  1.0000
  H   H4063     1.0  0.81042  0.41815  0.98172  1.0000
  H   H4064     1.0  0.77531  0.46989  0.31710  1.0000
  H   H4065     1.0  0.98422  0.46900  0.01631  1.0000
  C   C5082     1.0  0.79862  0.43249  0.03944  1.0000
  C   C5083     1.0  0.94508  0.48272  0.09019  1.0000
  C   C5084     1.0  0.76991  0.42629  0.26409  1.0000
  C   C5085     1.0  0.81936  0.29018  0.29960  1.0000
  C   C5086     1.0  0.82275  0.31767  0.27218  1.0000
  H   H4066     1.0  0.83642  0.32996  0.19065  1.0000
  C   C5087     1.0  0.83263  0.32633  0.21331  1.0000
  Fe  Fe345     1.0  0.91403  0.42007  0.47437  1.0000
  H   H4067     1.0  0.74987  0.34187  0.02532  1.0000
  C   C5088     1.0  0.75942  0.44018  0.27880  1.0000
  H   H4068     1.0  0.76379  0.47848  0.20272  1.0000
  H   H4069     1.0  0.76457  0.46217  0.24042  1.0000
  C   C5089     1.0  0.94318  0.39219  0.22579  1.0000
  C   C5090     1.0  0.79260  0.32843  0.34297  1.0000
  H   H4070     1.0  0.80224  0.47434  0.22697  1.0000
  C   C5091     1.0  0.91658  0.47960  0.03918  1.0000
  H   H4071     1.0  0.75444  0.26345  0.10542  1.0000
  H   H4072     1.0  0.99296  0.47226  0.36311  1.0000
  C   C5092     1.0  0.78002  0.43254  0.26911  1.0000
  H   H4073     1.0  0.78800  0.42965  0.26514  1.0000
  C   C5093     1.0  0.81648  0.27792  0.30503  1.0000
  C   C5094     1.0  0.80301  0.32536  0.33360  1.0000
  C   C5095     1.0  0.80302  0.31600  0.32078  1.0000
  C   C5096     1.0  0.79800  0.48198  0.26194  1.0000
  C   C5097     1.0  0.76970  0.44654  0.28323  1.0000
  H   H4074     1.0  0.78956  0.30883  0.13384  1.0000
  C   C5098     1.0  0.77994  0.44271  0.27853  1.0000
  S   S686      1.0  0.75287  0.47869  0.40685  1.0000
  C   C5099     1.0  0.79732  0.47994  0.23561  1.0000
  C   C5100     1.0  0.79245  0.30983  0.31734  1.0000
  C   C5101     1.0  0.79197  0.48956  0.27291  1.0000
  P   P169      1.0  0.79280  0.49193  0.30719  1.0000
  H   H4075     1.0  0.95858  0.43605  0.05293  1.0000
  C   C5102     1.0  0.92002  0.49052  0.04505  1.0000
  C   C5103     1.0  0.97245  0.42218  0.21604  1.0000
  H   H4076     1.0  0.80877  0.48672  0.02737  1.0000
  C   C5104     1.0  0.98018  0.47725  0.39157  1.0000
  H   H4077     1.0  0.75985  0.46620  0.16332  1.0000
  C   C5105     1.0  0.94411  0.47471  0.25229  1.0000
  H   H4078     1.0  0.95699  0.43431  0.00544  1.0000
  H   H4079     1.0  0.76004  0.43722  0.12404  1.0000
  C   C5106     1.0  0.95843  0.38010  0.27381  1.0000
  C   C5107     1.0  0.95270  0.39779  0.31612  1.0000
  H   H4080     1.0  0.77952  0.28926  0.24331  1.0000
  C   C5108     1.0  0.89901  0.50184  0.19711  1.0000
  C   C5109     1.0  0.75435  0.28200  0.29627  1.0000
  C   C5110     1.0  0.99611  0.49698  0.28361  1.0000
  H   H4081     1.0  0.94988  0.47688  0.08216  1.0000
  H   H4082     1.0  0.81572  0.31601  0.99178  1.0000
  C   C5111     1.0  0.97147  0.48331  0.39425  1.0000
  C   C5112     1.0  0.96086  0.49894  0.17059  1.0000
  C   C5113     1.0  0.85451  0.45394  0.99046  1.0000
  H   H4083     1.0  0.77298  0.32047  0.22339  1.0000
  C   C5114     1.0  0.80958  0.37894  0.02100  1.0000
  H   H4084     1.0  0.97976  0.36622  0.25646  1.0000
  H   H4085     1.0  0.89270  0.49189  0.42968  1.0000
  H   H4086     1.0  0.92658  0.40184  0.18277  1.0000
  C   C5115     1.0  0.75601  0.32587  0.12483  1.0000
  C   C5116     1.0  0.78028  0.45762  0.46348  1.0000
  H   H4087     1.0  0.75339  0.49453  0.35419  1.0000
  H   H4088     1.0  0.96196  0.48252  0.22791  1.0000
  P   P170      1.0  0.75718  0.33905  0.29748  1.0000
  H   H4089     1.0  0.87401  0.48002  0.46344  1.0000
  H   H4090     1.0  0.78110  0.42139  0.05615  1.0000
  H   H4091     1.0  0.89696  0.49037  0.23828  1.0000
  H   H4092     1.0  0.75921  0.31554  0.42565  1.0000
  H   H4093     1.0  0.96629  0.42024  0.28722  1.0000
  C   C5117     1.0  0.90009  0.48960  0.00317  1.0000
  C   C5118     1.0  0.86787  0.41838  0.00836  1.0000
  H   H4094     1.0  0.76297  0.45423  0.45753  1.0000
  C   C5119     1.0  0.77601  0.47968  0.02607  1.0000
  H   H4095     1.0  0.97168  0.45349  0.05879  1.0000
  H   H4096     1.0  0.77985  0.38112  0.10181  1.0000
  H   H4097     1.0  0.94962  0.37820  0.28708  1.0000
  H   H4098     1.0  0.86003  0.46622  0.44774  1.0000
  C   C5120     1.0  0.96392  0.44284  0.03430  1.0000
  H   H4099     1.0  0.96663  0.48334  0.41516  1.0000
  S   S687      1.0  0.75928  0.27202  0.39625  1.0000
  H   H4100     1.0  0.96535  0.46973  0.32590  1.0000
  H   H4101     1.0  0.78785  0.28645  0.28470  1.0000
  H   H4102     1.0  0.94681  0.42081  0.22808  1.0000
  C   C5121     1.0  0.79402  0.41158  0.05998  1.0000
  C   C5122     1.0  0.78832  0.30840  0.03575  1.0000
  C   C5123     1.0  0.76195  0.29182  0.06553  1.0000
  H   H4103     1.0  0.76084  0.31007  0.19894  1.0000
  C   C5124     1.0  0.75162  0.32766  0.33042  1.0000
  H   H4104     1.0  0.75488  0.27358  0.14405  1.0000
  H   H4105     1.0  0.98013  0.46326  0.23117  1.0000
  C   C5125     1.0  0.83832  0.43646  0.01055  1.0000
  H   H4106     1.0  0.86199  0.46005  0.99262  1.0000
  C   C5126     1.0  0.98423  0.49010  0.46465  1.0000
  C   C5127     1.0  0.94729  0.40261  0.23329  1.0000
  H   H4107     1.0  0.75547  0.36334  0.27555  1.0000
  C   C5128     1.0  0.93235  0.40203  0.19683  1.0000
  S   S688      1.0  0.99022  0.46097  0.15803  1.0000
  H   H4108     1.0  0.93332  0.40632  0.28013  1.0000
  P   P171      1.0  0.99064  0.48202  0.30494  1.0000
  C   C5129     1.0  0.97028  0.42363  0.26465  1.0000
  C   C5130     1.0  0.93519  0.39884  0.34833  1.0000
  Fe  Fe346     1.0  0.84555  0.49500  0.40318  1.0000
  C   C5131     1.0  0.76202  0.32401  0.42977  1.0000
  C   C5132     1.0  0.75081  0.45974  0.99800  1.0000
  C   C5133     1.0  0.77919  0.48143  0.05085  1.0000
  C   C5134     1.0  0.94808  0.40110  0.29283  1.0000
  H   H4109     1.0  0.75260  0.40030  0.23477  1.0000
  C   C5135     1.0  0.78508  0.49488  0.25736  1.0000
  H   H4110     1.0  0.98478  0.43664  0.18393  1.0000
  H   H4111     1.0  0.96136  0.39629  0.31288  1.0000
  S   S689      1.0  0.83458  0.49559  0.37097  1.0000
  H   H4112     1.0  0.91356  0.49430  0.05554  1.0000
  C   C5136     1.0  0.75151  0.47417  0.05994  1.0000
  C   C5137     1.0  0.98624  0.47697  0.36460  1.0000
  H   H4113     1.0  0.75475  0.49294  0.05524  1.0000
  C   C5138     1.0  0.76577  0.43158  0.12839  1.0000
  C   C5139     1.0  0.75618  0.46392  0.23974  1.0000
  C   C5140     1.0  0.94626  0.39666  0.34377  1.0000
  C   C5141     1.0  0.75921  0.28077  0.31960  1.0000
  H   H4114     1.0  0.75361  0.27834  0.34101  1.0000
  C   C5142     1.0  0.93697  0.40334  0.29761  1.0000
  C   C5143     1.0  0.98112  0.38459  0.23959  1.0000
  C   C5144     1.0  0.75617  0.29867  0.47479  1.0000
  H   H4115     1.0  0.89609  0.44286  0.99285  1.0000
  H   H4116     1.0  0.77480  0.48586  0.47085  1.0000
  C   C5145     1.0  0.75015  0.48427  0.06884  1.0000
  C   C5146     1.0  0.97553  0.39369  0.23970  1.0000
  H   H4117     1.0  0.79604  0.48726  0.45779  1.0000
  C   C5147     1.0  0.76185  0.29747  0.08766  1.0000
  C   C5148     1.0  0.97839  0.46141  0.01367  1.0000
  C   C5149     1.0  0.76795  0.33603  0.46042  1.0000
  H   H4118     1.0  0.76965  0.45500  0.03912  1.0000
  H   H4119     1.0  0.82771  0.43235  0.98228  1.0000
  H   H4120     1.0  0.92569  0.48982  0.17213  1.0000
  C   C5150     1.0  0.81382  0.38579  0.99291  1.0000
  H   H4121     1.0  0.94340  0.47764  0.00544  1.0000
  C   C5151     1.0  0.75489  0.36751  0.15390  1.0000
  C   C5152     1.0  0.94398  0.50229  0.09358  1.0000
  H   H4122     1.0  0.99379  0.47471  0.25218  1.0000
  H   H4123     1.0  0.74973  0.43922  0.38607  1.0000
  C   C5153     1.0  0.75443  0.44049  0.00086  1.0000
  C   C5154     1.0  0.95280  0.45186  0.46619  1.0000
  C   C5155     1.0  0.96350  0.45096  0.47180  1.0000
  C   C5156     1.0  0.97782  0.46036  0.98644  1.0000
  C   C5157     1.0  0.97008  0.45064  0.98296  1.0000
  H   H4124     1.0  0.89994  0.49686  0.12305  1.0000
  C   C5158     1.0  0.78446  0.31159  0.47836  1.0000
  H   H4125     1.0  0.77904  0.49682  0.21912  1.0000
  C   C5159     1.0  0.80798  0.39395  0.98199  1.0000
  C   C5160     1.0  0.76810  0.45469  0.47297  1.0000
  H   H4126     1.0  0.76283  0.27284  0.46923  1.0000
  H   H4127     1.0  0.79256  0.40052  0.99093  1.0000
  C   C5161     1.0  0.88231  0.49092  0.98873  1.0000
  C   C5162     1.0  0.89432  0.49521  0.98500  1.0000
  H   H4128     1.0  0.81555  0.49988  0.26324  1.0000
  H   H4129     1.0  0.75021  0.43355  0.34083  1.0000
  C   C5163     1.0  0.78199  0.49952  0.31892  1.0000
  C   C5164     1.0  0.79166  0.48678  0.47944  1.0000
  H   H4130     1.0  0.99892  0.48320  0.47169  1.0000
  H   H4131     1.0  0.78025  0.50069  0.26535  1.0000
  C   C5165     1.0  0.76216  0.49936  0.34193  1.0000
  C   C5166     1.0  0.76019  0.27709  0.98016  1.0000
  C   C5167     1.0  0.95488  0.47030  0.47954  1.0000
  C   C5168     1.0  0.79987  0.30959  0.98018  1.0000
  C   C5169     1.0  0.76604  0.49618  0.98061  1.0000
  H   H4132     1.0  0.85038  0.38064  0.85892  1.0000
  H   H4133     1.0  0.88305  0.39078  0.84104  1.0000
  C   C5170     1.0  0.84177  0.37441  0.62844  1.0000
  H   H4134     1.0  0.90529  0.44171  0.52691  1.0000
  H   H4135     1.0  0.82970  0.42675  0.75352  1.0000
  C   C5171     1.0  0.90739  0.47700  0.93241  1.0000
  H   H4136     1.0  0.84426  0.36643  0.77107  1.0000
  H   H4137     1.0  0.86495  0.37273  0.83249  1.0000
  Fe  Fe347     1.0  0.90412  0.43721  0.93336  1.0000
  H   H4138     1.0  0.84203  0.36785  0.95176  1.0000
  H   H4139     1.0  0.77784  0.29415  0.55402  1.0000
  Fe  Fe348     1.0  0.91927  0.42359  0.90458  1.0000
  S   S690      1.0  0.91305  0.40803  0.94361  1.0000
  S   S691      1.0  0.93408  0.42600  0.86491  1.0000
  Fe  Fe349     1.0  0.89490  0.41050  0.94336  1.0000
  S   S692      1.0  0.87682  0.39702  0.95473  1.0000
  H   H4140     1.0  0.76561  0.45371  0.54305  1.0000
  S   S693      1.0  0.91946  0.41664  0.51701  1.0000
  S   S694      1.0  0.90120  0.42562  0.90385  1.0000
  S   S695      1.0  0.92268  0.43649  0.93098  1.0000
  Fe  Fe350     1.0  0.94838  0.44283  0.69332  1.0000
  S   S696      1.0  0.93515  0.43021  0.73342  1.0000
  Fe  Fe351     1.0  0.95319  0.46828  0.66184  1.0000
  H   H4141     1.0  0.90019  0.44508  0.57468  1.0000
  S   S697      1.0  0.94837  0.48492  0.66601  1.0000
  Fe  Fe352     1.0  0.95248  0.44991  0.62704  1.0000
  S   S698      1.0  0.94690  0.44858  0.58526  1.0000
  S   S699      1.0  0.93958  0.45240  0.66354  1.0000
  C   C5172     1.0  0.75170  0.44832  0.86171  1.0000
  Fe  Fe353     1.0  0.82906  0.35216  0.90468  1.0000
  S   S700      1.0  0.81825  0.36525  0.90420  1.0000
  S   S701      1.0  0.84881  0.35955  0.90016  1.0000
  Fe  Fe354     1.0  0.80729  0.33203  0.90516  1.0000
  S   S702      1.0  0.79573  0.34445  0.90521  1.0000
  H   H4142     1.0  0.80894  0.27282  0.80903  1.0000
  Fe  Fe355     1.0  0.81092  0.35744  0.87210  1.0000
  S   S703      1.0  0.80829  0.36917  0.83294  1.0000
  Fe  Fe356     1.0  0.80448  0.35074  0.93716  1.0000
  C   C5173     1.0  0.78311  0.42619  0.59057  1.0000
  S   S704      1.0  0.82237  0.34495  0.87051  1.0000
  S   S705      1.0  0.81543  0.33774  0.93919  1.0000
  Fe  Fe357     1.0  0.78261  0.34516  0.67804  1.0000
  S   S706      1.0  0.80028  0.34149  0.66847  1.0000
  S   S707      1.0  0.76706  0.32971  0.69880  1.0000
  Fe  Fe358     1.0  0.79264  0.37123  0.65638  1.0000
  S   S708      1.0  0.81113  0.36986  0.64403  1.0000
  S   S709      1.0  0.78810  0.38854  0.65079  1.0000
  Fe  Fe359     1.0  0.80359  0.35490  0.62705  1.0000
  S   S710      1.0  0.81366  0.35170  0.58687  1.0000
  Fe  Fe360     1.0  0.80620  0.35668  0.68645  1.0000
  S   S711      1.0  0.81867  0.35559  0.71474  1.0000
  S   S712      1.0  0.78547  0.35756  0.63544  1.0000
  S   S713      1.0  0.78819  0.35910  0.69993  1.0000
  Fe  Fe361     1.0  0.84061  0.49206  0.90765  1.0000
  S   S714      1.0  0.83444  0.47227  0.91766  1.0000
  C   C5174     1.0  0.78495  0.43707  0.79980  1.0000
  S   S715      1.0  0.80793  0.47493  0.92011  1.0000
  C   C5175     1.0  0.77960  0.47831  0.77676  1.0000
  Fe  Fe362     1.0  0.81952  0.47413  0.94996  1.0000
  H   H4143     1.0  0.75072  0.46562  0.58869  1.0000
  Fe  Fe363     1.0  0.82350  0.47505  0.88651  1.0000
  S   S716      1.0  0.81963  0.46239  0.85938  1.0000
  S   S717      1.0  0.82599  0.49367  0.94193  1.0000
  Fe  Fe364     1.0  0.80256  0.45738  0.67515  1.0000
  S   S718      1.0  0.81918  0.47179  0.65938  1.0000
  S   S719      1.0  0.78672  0.46363  0.66895  1.0000
  Fe  Fe365     1.0  0.81495  0.43931  0.69545  1.0000
  S   S720      1.0  0.83256  0.45220  0.68128  1.0000
  S   S721      1.0  0.81416  0.42059  0.71609  1.0000
  Fe  Fe366     1.0  0.82310  0.46406  0.70048  1.0000
  S   S722      1.0  0.83106  0.47644  0.72420  1.0000
  Fe  Fe367     1.0  0.82706  0.45865  0.64163  1.0000
  S   S723      1.0  0.83988  0.46278  0.59847  1.0000
  S   S724      1.0  0.80581  0.45068  0.71775  1.0000
  S   S725      1.0  0.81016  0.44482  0.65420  1.0000
  C   C5176     1.0  0.82269  0.46657  0.82186  1.0000
  C   C5177     1.0  0.81972  0.45795  0.80746  1.0000
  C   C5178     1.0  0.82231  0.46084  0.77756  1.0000
  C   C5179     1.0  0.82783  0.47240  0.76180  1.0000
  C   C5180     1.0  0.83082  0.48101  0.77620  1.0000
  C   C5181     1.0  0.82823  0.47812  0.80612  1.0000
  H   H4144     1.0  0.81550  0.44898  0.81948  1.0000
  H   H4145     1.0  0.82009  0.45411  0.76668  1.0000
  H   H4146     1.0  0.83511  0.48998  0.76416  1.0000
  H   H4147     1.0  0.83060  0.48482  0.81696  1.0000
  C   C5182     1.0  0.78280  0.30798  0.70900  1.0000
  C   C5183     1.0  0.80348  0.40646  0.79779  1.0000
  C   C5184     1.0  0.84088  0.46762  0.54135  1.0000
  C   C5185     1.0  0.83363  0.46378  0.56919  1.0000
  C   C5186     1.0  0.82150  0.46060  0.57335  1.0000
  C   C5187     1.0  0.81666  0.46116  0.54990  1.0000
  H   H4148     1.0  0.80922  0.41788  0.89558  1.0000
  H   H4149     1.0  0.85026  0.47001  0.53794  1.0000
  H   H4150     1.0  0.81583  0.45764  0.59462  1.0000
  H   H4151     1.0  0.80726  0.45851  0.55333  1.0000
  C   C5188     1.0  0.79470  0.39693  0.67091  1.0000
  C   C5189     1.0  0.79248  0.40786  0.67136  1.0000
  C   C5190     1.0  0.79809  0.41490  0.68630  1.0000
  C   C5191     1.0  0.80611  0.41115  0.70035  1.0000
  C   C5192     1.0  0.80803  0.40002  0.70080  1.0000
  C   C5193     1.0  0.80231  0.39290  0.68608  1.0000
  H   H4152     1.0  0.78640  0.41088  0.66019  1.0000
  H   H4153     1.0  0.79608  0.42317  0.68719  1.0000
  H   H4154     1.0  0.81411  0.39701  0.71196  1.0000
  H   H4155     1.0  0.80397  0.38441  0.68604  1.0000
  C   C5194     1.0  0.79856  0.35077  0.50956  1.0000
  C   C5195     1.0  0.79153  0.35147  0.53506  1.0000
  C   C5196     1.0  0.79603  0.35172  0.55896  1.0000
  C   C5197     1.0  0.80752  0.35099  0.55771  1.0000
  C   C5198     1.0  0.81444  0.34997  0.53243  1.0000
  C   C5199     1.0  0.81001  0.34994  0.50837  1.0000
  H   H4156     1.0  0.78260  0.35193  0.53623  1.0000
  H   H4157     1.0  0.79063  0.35256  0.57824  1.0000
  H   H4158     1.0  0.82337  0.34949  0.53121  1.0000
  H   H4159     1.0  0.82402  0.30089  0.55537  1.0000
  C   C5200     1.0  0.81121  0.36534  0.80015  1.0000
  C   C5201     1.0  0.81778  0.35724  0.79588  1.0000
  C   C5202     1.0  0.82007  0.35442  0.76957  1.0000
  C   C5203     1.0  0.81557  0.35942  0.74747  1.0000
  C   C5204     1.0  0.80900  0.36755  0.75164  1.0000
  C   C5205     1.0  0.80696  0.37061  0.77778  1.0000
  H   H4160     1.0  0.82114  0.35315  0.81279  1.0000
  H   H4161     1.0  0.82516  0.34814  0.76660  1.0000
  H   H4162     1.0  0.80560  0.37158  0.73466  1.0000
  H   H4163     1.0  0.80194  0.37696  0.78077  1.0000
  C   C5206     1.0  0.76800  0.28515  0.59732  1.0000
  C   C5207     1.0  0.77973  0.28096  0.90496  1.0000
  C   C5208     1.0  0.80283  0.27815  0.81265  1.0000
  H   H4164     1.0  0.75895  0.30376  0.58543  1.0000
  H   H4165     1.0  0.83894  0.44938  0.94223  1.0000
  H   H4166     1.0  0.81554  0.34946  0.48881  1.0000
  C   C5209     1.0  0.88213  0.37769  0.80302  1.0000
  H   H4167     1.0  0.81041  0.28100  0.57431  1.0000
  C   C5210     1.0  0.96199  0.50136  0.85694  1.0000
  H   H4168     1.0  0.78110  0.42277  0.94669  1.0000
  S   S726      1.0  0.99317  0.46052  0.64925  1.0000
  C   C5211     1.0  0.77079  0.44196  0.68176  1.0000
  C   C5212     1.0  0.77268  0.45415  0.67700  1.0000
  C   C5213     1.0  0.77912  0.28000  0.69213  1.0000
  H   H4169     1.0  0.77809  0.43801  0.68161  1.0000
  C   C5214     1.0  0.84763  0.38818  0.84926  1.0000
  H   H4170     1.0  0.77056  0.29109  0.48149  1.0000
  C   C5215     1.0  0.75944  0.43492  0.68572  1.0000
  H   H4171     1.0  0.88642  0.34904  0.84796  1.0000
  H   H4172     1.0  0.91337  0.43008  0.67848  1.0000
  C   C5216     1.0  0.81709  0.41467  0.58281  1.0000
  H   H4173     1.0  0.76467  0.48414  0.52059  1.0000
  H   H4174     1.0  0.77058  0.42210  0.82250  1.0000
  C   C5217     1.0  0.79165  0.29719  0.59509  1.0000
  C   C5218     1.0  0.97179  0.49330  0.66168  1.0000
  C   C5219     1.0  0.76851  0.28008  0.70964  1.0000
  C   C5220     1.0  0.84347  0.38442  0.76577  1.0000
  C   C5221     1.0  0.88406  0.39977  0.82965  1.0000
  H   H4175     1.0  0.97299  0.48513  0.65729  1.0000
  C   C5222     1.0  0.86925  0.38661  0.93911  1.0000
  C   C5223     1.0  0.79941  0.30843  0.58402  1.0000
  C   C5224     1.0  0.85106  0.37235  0.94105  1.0000
  C   C5225     1.0  0.85636  0.36994  0.91582  1.0000
  C   C5226     1.0  0.86820  0.37583  0.90265  1.0000
  C   C5227     1.0  0.87456  0.38413  0.91402  1.0000
  C   C5228     1.0  0.79232  0.48575  0.52819  1.0000
  C   C5229     1.0  0.88793  0.39332  0.72474  1.0000
  H   H4176     1.0  0.87253  0.37389  0.88359  1.0000
  H   H4177     1.0  0.88366  0.38842  0.90368  1.0000
  C   C5230     1.0  0.92695  0.42570  0.53593  1.0000
  C   C5231     1.0  0.92896  0.42042  0.56201  1.0000
  C   C5232     1.0  0.93492  0.42718  0.57748  1.0000
  C   C5233     1.0  0.93904  0.43942  0.56712  1.0000
  C   C5234     1.0  0.93689  0.44471  0.54126  1.0000
  C   C5235     1.0  0.93092  0.43794  0.52586  1.0000
  H   H4178     1.0  0.92596  0.41098  0.57024  1.0000
  H   H4179     1.0  0.93645  0.42288  0.59722  1.0000
  H   H4180     1.0  0.93983  0.45414  0.53307  1.0000
  H   H4181     1.0  0.92938  0.44219  0.50611  1.0000
  C   C5236     1.0  0.93397  0.42731  0.82845  1.0000
  C   C5237     1.0  0.94472  0.43076  0.80766  1.0000
  C   C5238     1.0  0.94517  0.43228  0.77849  1.0000
  C   C5239     1.0  0.93488  0.42990  0.76965  1.0000
  C   C5240     1.0  0.92410  0.42627  0.79045  1.0000
  C   C5241     1.0  0.92363  0.42519  0.81959  1.0000
  H   H4182     1.0  0.95277  0.43211  0.81417  1.0000
  H   H4183     1.0  0.95350  0.43482  0.76286  1.0000
  H   H4184     1.0  0.91606  0.42425  0.78398  1.0000
  H   H4185     1.0  0.91528  0.42247  0.83521  1.0000
  C   C5242     1.0  0.86026  0.39778  0.77147  1.0000
  C   C5243     1.0  0.85122  0.43069  0.54281  1.0000
  C   C5244     1.0  0.84309  0.39124  0.50599  1.0000
  H   H4186     1.0  0.78068  0.29697  0.82567  1.0000
  H   H4187     1.0  0.79305  0.38078  0.96066  1.0000
  C   C5245     1.0  0.87735  0.39838  0.53755  1.0000
  C   C5246     1.0  0.91804  0.43961  0.63442  1.0000
  C   C5247     1.0  0.81249  0.42118  0.82924  1.0000
  H   H4188     1.0  0.77850  0.30746  0.69201  1.0000
  H   H4189     1.0  0.82058  0.43349  0.57786  1.0000
  C   C5248     1.0  0.97048  0.48587  0.73253  1.0000
  C   C5249     1.0  0.91736  0.46281  0.95082  1.0000
  C   C5250     1.0  0.76105  0.32162  0.58757  1.0000
  H   H4190     1.0  0.86175  0.40077  0.85493  1.0000
  H   H4191     1.0  0.85540  0.41796  0.83374  1.0000
  H   H4192     1.0  0.78535  0.27627  0.70142  1.0000
  S   S727      1.0  0.96565  0.46683  0.62363  1.0000
  C   C5251     1.0  0.79582  0.39288  0.57153  1.0000
  H   H4193     1.0  0.84408  0.45697  0.86473  1.0000
  C   C5252     1.0  0.78824  0.45272  0.82339  1.0000
  H   H4194     1.0  0.94313  0.48445  0.77183  1.0000
  H   H4195     1.0  0.78326  0.37605  0.58626  1.0000
  H   H4196     1.0  0.78719  0.45886  0.52592  1.0000
  C   C5253     1.0  0.98207  0.48801  0.73420  1.0000
  H   H4197     1.0  0.78986  0.27859  0.59936  1.0000
  C   C5254     1.0  0.76855  0.28250  0.90470  1.0000
  C   C5255     1.0  0.76582  0.34736  0.78597  1.0000
  H   H4198     1.0  0.78128  0.43408  0.52215  1.0000
  H   H4199     1.0  0.90253  0.36192  0.80724  1.0000
  P   P172      1.0  0.81282  0.40196  0.94490  1.0000
  C   C5256     1.0  0.80592  0.39326  0.92423  1.0000
  C   C5257     1.0  0.80987  0.41633  0.93944  1.0000
  C   C5258     1.0  0.79572  0.28732  0.59135  1.0000
  C   C5259     1.0  0.76367  0.31069  0.59272  1.0000
  C   C5260     1.0  0.75428  0.44963  0.60820  1.0000
  H   H4200     1.0  0.75548  0.43182  0.54865  1.0000
  H   H4201     1.0  0.77595  0.49612  0.71046  1.0000
  C   C5261     1.0  0.81026  0.39596  0.89452  1.0000
  C   C5262     1.0  0.80489  0.38923  0.87867  1.0000
  C   C5263     1.0  0.79540  0.37955  0.89233  1.0000
  C   C5264     1.0  0.79119  0.37663  0.92185  1.0000
  C   C5265     1.0  0.77224  0.30887  0.60728  1.0000
  C   C5266     1.0  0.82852  0.40455  0.93340  1.0000
  C   C5267     1.0  0.83345  0.39630  0.92239  1.0000
  C   C5268     1.0  0.83595  0.41469  0.93594  1.0000
  H   H4202     1.0  0.77237  0.35557  0.78167  1.0000
  C   C5269     1.0  0.82568  0.42493  0.61392  1.0000
  H   H4203     1.0  0.80717  0.48679  0.49435  1.0000
  C   C5270     1.0  0.88453  0.41438  0.78755  1.0000
  C   C5271     1.0  0.86695  0.43121  0.50327  1.0000
  H   H4204     1.0  0.86168  0.44653  0.51155  1.0000
  C   C5272     1.0  0.80936  0.43416  0.95511  1.0000
  H   H4205     1.0  0.97054  0.41813  0.71981  1.0000
  H   H4206     1.0  0.95146  0.47780  0.48190  1.0000
  C   C5273     1.0  0.76733  0.33966  0.76880  1.0000
  H   H4207     1.0  0.81787  0.40313  0.88359  1.0000
  H   H4208     1.0  0.80821  0.39126  0.85582  1.0000
  H   H4209     1.0  0.79152  0.37411  0.88006  1.0000
  C   C5274     1.0  0.87006  0.50221  0.62740  1.0000
  C   C5275     1.0  0.75594  0.34438  0.80885  1.0000
  H   H4210     1.0  0.82796  0.38827  0.92076  1.0000
  C   C5276     1.0  0.96142  0.45909  0.93288  1.0000
  H   H4211     1.0  0.82111  0.40592  0.78147  1.0000
  C   C5277     1.0  0.83381  0.39622  0.82754  1.0000
  C   C5278     1.0  0.83754  0.38654  0.83951  1.0000
  C   C5279     1.0  0.84579  0.43113  0.72171  1.0000
  C   C5280     1.0  0.85792  0.43300  0.71586  1.0000
  C   C5281     1.0  0.86331  0.43140  0.73821  1.0000
  C   C5282     1.0  0.85652  0.42772  0.76638  1.0000
  H   H4212     1.0  0.79469  0.42179  0.84489  1.0000
  H   H4213     1.0  0.78670  0.40862  0.81709  1.0000
  H   H4214     1.0  0.82605  0.39454  0.81994  1.0000
  H   H4215     1.0  0.83260  0.37772  0.84112  1.0000
  H   H4216     1.0  0.84156  0.43237  0.70448  1.0000
  H   H4217     1.0  0.86313  0.43581  0.69400  1.0000
  H   H4218     1.0  0.87273  0.43303  0.73368  1.0000
  H   H4219     1.0  0.86086  0.42660  0.78337  1.0000
  P   P173      1.0  0.85347  0.39673  0.54854  1.0000
  C   C5283     1.0  0.86654  0.39243  0.53473  1.0000
  C   C5284     1.0  0.85006  0.39101  0.58676  1.0000
  C   C5285     1.0  0.84514  0.37891  0.59890  1.0000
  H   H4220     1.0  0.93240  0.48450  0.86118  1.0000
  C   C5286     1.0  0.84886  0.39384  0.63424  1.0000
  C   C5287     1.0  0.85227  0.39839  0.60465  1.0000
  C   C5288     1.0  0.86612  0.38319  0.52138  1.0000
  H   H4221     1.0  0.76981  0.33691  0.48042  1.0000
  C   C5289     1.0  0.84140  0.39073  0.53507  1.0000
  H   H4222     1.0  0.77049  0.45448  0.74394  1.0000
  H   H4223     1.0  0.93251  0.46972  0.96445  1.0000
  C   C5290     1.0  0.81501  0.29985  0.56645  1.0000
  C   C5291     1.0  0.82100  0.38054  0.54323  1.0000
  C   C5292     1.0  0.83017  0.38566  0.55343  1.0000
  C   C5293     1.0  0.78428  0.47661  0.72833  1.0000
  H   H4224     1.0  0.85656  0.40762  0.59593  1.0000
  H   H4225     1.0  0.85792  0.37818  0.51962  1.0000
  C   C5294     1.0  0.85033  0.40926  0.83503  1.0000
  H   H4226     1.0  0.83496  0.42018  0.86861  1.0000
  H   H4227     1.0  0.85604  0.46337  0.94743  1.0000
  H   H4228     1.0  0.81249  0.37622  0.55777  1.0000
  H   H4229     1.0  0.82845  0.38536  0.57579  1.0000
  C   C5295     1.0  0.88762  0.39548  0.52611  1.0000
  H   H4230     1.0  0.87787  0.40540  0.54819  1.0000
  H   H4231     1.0  0.79577  0.41787  0.60436  1.0000
  H   H4232     1.0  0.77872  0.46409  0.91923  1.0000
  C   C5296     1.0  0.84431  0.45271  0.82469  1.0000
  C   C5297     1.0  0.83912  0.43193  0.82646  1.0000
  S   S728      1.0  0.89870  0.45425  0.93057  1.0000
  C   C5298     1.0  0.85405  0.39954  0.84688  1.0000
  H   H4233     1.0  0.78365  0.31640  0.63088  1.0000
  C   C5299     1.0  0.96328  0.47446  0.74224  1.0000
  H   H4234     1.0  0.93974  0.49550  0.72817  1.0000
  C   C5300     1.0  0.91153  0.43663  0.66270  1.0000
  H   H4235     1.0  0.97543  0.42934  0.79384  1.0000
  H   H4236     1.0  0.97947  0.46045  0.88656  1.0000
  C   C5301     1.0  0.98279  0.47898  0.82091  1.0000
  H   H4237     1.0  0.76128  0.43402  0.74680  1.0000
  H   H4238     1.0  0.85498  0.49297  0.66243  1.0000
  H   H4239     1.0  0.93913  0.48402  0.56348  1.0000
  C   C5302     1.0  0.79795  0.48654  0.50011  1.0000
  C   C5303     1.0  0.76464  0.50059  0.89610  1.0000
  C   C5304     1.0  0.77354  0.28937  0.65055  1.0000
  C   C5305     1.0  0.75753  0.44881  0.88333  1.0000
  H   H4240     1.0  0.86341  0.49163  0.50341  1.0000
  P   P174      1.0  0.77642  0.29518  0.61256  1.0000
  C   C5306     1.0  0.76897  0.46828  0.58913  1.0000
  C   C5307     1.0  0.76398  0.27959  0.55528  1.0000
  C   C5308     1.0  0.81104  0.30972  0.56990  1.0000
  C   C5309     1.0  0.75118  0.31443  0.68315  1.0000
  C   C5310     1.0  0.77433  0.45068  0.60986  1.0000
  C   C5311     1.0  0.77747  0.46266  0.59631  1.0000
  H   H4241     1.0  0.89518  0.38449  0.50262  1.0000
  H   H4242     1.0  0.75516  0.44614  0.92887  1.0000
  H   H4243     1.0  0.98411  0.45472  0.71243  1.0000
  H   H4244     1.0  0.75215  0.47947  0.61893  1.0000
  C   C5312     1.0  0.96067  0.49543  0.66635  1.0000
  H   H4245     1.0  0.78292  0.30402  0.97345  1.0000
  H   H4246     1.0  0.75802  0.42553  0.68871  1.0000
  H   H4247     1.0  0.95174  0.47312  0.54040  1.0000
  H   H4248     1.0  0.77923  0.33563  0.62086  1.0000
  C   C5313     1.0  0.87347  0.47885  0.54512  1.0000
  C   C5314     1.0  0.82395  0.43570  0.51095  1.0000
  H   H4249     1.0  0.78085  0.44656  0.61663  1.0000
  H   H4250     1.0  0.78647  0.46758  0.59224  1.0000
  C   C5315     1.0  0.79124  0.32783  0.84325  1.0000
  C   C5316     1.0  0.78942  0.33814  0.82807  1.0000
  C   C5317     1.0  0.79063  0.34012  0.79883  1.0000
  C   C5318     1.0  0.79364  0.33182  0.78474  1.0000
  C   C5319     1.0  0.79536  0.32137  0.79992  1.0000
  C   C5320     1.0  0.79434  0.31951  0.82925  1.0000
  P   P175      1.0  0.80107  0.31175  0.78067  1.0000
  C   C5321     1.0  0.79784  0.29689  0.80214  1.0000
  C   C5322     1.0  0.79403  0.31042  0.75237  1.0000
  C   C5323     1.0  0.78204  0.30980  0.75691  1.0000
  C   C5324     1.0  0.80022  0.30923  0.72637  1.0000
  C   C5325     1.0  0.77586  0.31762  0.51955  1.0000
  C   C5326     1.0  0.93348  0.47720  0.85221  1.0000
  C   C5327     1.0  0.77749  0.31781  0.61828  1.0000
  H   H4251     1.0  0.96718  0.49303  0.72292  1.0000
  H   H4252     1.0  0.79743  0.28868  0.90502  1.0000
  C   C5328     1.0  0.81656  0.31849  0.76840  1.0000
  C   C5329     1.0  0.82119  0.32703  0.74235  1.0000
  C   C5330     1.0  0.83311  0.33272  0.73361  1.0000
  C   C5331     1.0  0.84044  0.33012  0.75110  1.0000
  C   C5332     1.0  0.83582  0.32191  0.77751  1.0000
  C   C5333     1.0  0.82390  0.31619  0.78627  1.0000
  H   H4253     1.0  0.79060  0.32646  0.86578  1.0000
  H   H4254     1.0  0.78746  0.34476  0.83879  1.0000
  H   H4255     1.0  0.78974  0.34832  0.78684  1.0000
  H   H4256     1.0  0.79506  0.33378  0.76183  1.0000
  H   H4257     1.0  0.79621  0.31184  0.84129  1.0000
  H   H4258     1.0  0.77699  0.31034  0.77708  1.0000
  H   H4259     1.0  0.80934  0.30918  0.72279  1.0000
  H   H4260     1.0  0.75816  0.29512  0.90518  1.0000
  C   C5334     1.0  0.80370  0.40135  0.54814  1.0000
  C   C5335     1.0  0.80567  0.28991  0.79717  1.0000
  H   H4261     1.0  0.94464  0.48043  0.89955  1.0000
  C   C5336     1.0  0.85773  0.49146  0.59386  1.0000
  H   H4262     1.0  0.81557  0.32961  0.72912  1.0000
  H   H4263     1.0  0.83653  0.33944  0.71365  1.0000
  H   H4264     1.0  0.84964  0.33467  0.74447  1.0000
  H   H4265     1.0  0.84141  0.32012  0.79146  1.0000
  H   H4266     1.0  0.82036  0.31016  0.80723  1.0000
  C   C5337     1.0  0.98485  0.44352  0.82535  1.0000
  C   C5338     1.0  0.78728  0.30143  0.90538  1.0000
  C   C5339     1.0  0.84348  0.38188  0.64613  1.0000
  H   H4267     1.0  0.78422  0.43582  0.97870  1.0000
  H   H4268     1.0  0.76602  0.28104  0.53242  1.0000
  H   H4269     1.0  0.86999  0.41457  0.49947  1.0000
  H   H4270     1.0  0.82275  0.39554  0.63599  1.0000
  C   C5340     1.0  0.78697  0.29183  0.82194  1.0000
  C   C5341     1.0  0.79300  0.42182  0.58606  1.0000
  H   H4271     1.0  0.86768  0.35454  0.86036  1.0000
  C   C5342     1.0  0.80908  0.43999  0.92800  1.0000
  C   C5343     1.0  0.82627  0.41425  0.63040  1.0000
  H   H4272     1.0  0.85381  0.42439  0.92953  1.0000
  C   C5344     1.0  0.75883  0.32918  0.77393  1.0000
  C   C5345     1.0  0.75741  0.46160  0.59450  1.0000
  H   H4273     1.0  0.94509  0.43527  0.96450  1.0000
  H   H4274     1.0  0.87207  0.46070  0.54509  1.0000
  H   H4275     1.0  0.79664  0.31629  0.58577  1.0000
  H   H4276     1.0  0.80839  0.43847  0.88601  1.0000
  C   C5346     1.0  0.96545  0.46927  0.48608  1.0000
  C   C5347     1.0  0.83961  0.43822  0.86976  1.0000
  H   H4277     1.0  0.77001  0.49366  0.83959  1.0000
  H   H4278     1.0  0.83245  0.42112  0.94478  1.0000
  H   H4279     1.0  0.89401  0.39491  0.67985  1.0000
  C   C5348     1.0  0.84226  0.44375  0.81094  1.0000
  C   C5349     1.0  0.91038  0.40672  0.72002  1.0000
  H   H4280     1.0  0.83485  0.38277  0.76177  1.0000
  C   C5350     1.0  0.78744  0.49338  0.84296  1.0000
  C   C5351     1.0  0.95250  0.41118  0.94847  1.0000
  C   C5352     1.0  0.95390  0.50080  0.84024  1.0000
  C   C5353     1.0  0.89430  0.36427  0.81246  1.0000
  H   H4281     1.0  0.77566  0.27611  0.85208  1.0000
  C   C5354     1.0  0.89278  0.37460  0.79636  1.0000
  C   C5355     1.0  0.86956  0.45807  0.60842  1.0000
  C   C5356     1.0  0.86617  0.46503  0.62621  1.0000
  C   C5357     1.0  0.87460  0.47241  0.63443  1.0000
  C   C5358     1.0  0.88644  0.47297  0.62459  1.0000
  C   C5359     1.0  0.88999  0.46613  0.60629  1.0000
  C   C5360     1.0  0.88141  0.45854  0.59862  1.0000
  P   P176      1.0  0.90523  0.46600  0.59620  1.0000
  C   C5361     1.0  0.91391  0.47995  0.59742  1.0000
  C   C5362     1.0  0.90743  0.45424  0.62202  1.0000
  C   C5363     1.0  0.90088  0.45116  0.65051  1.0000
  C   C5364     1.0  0.90295  0.44239  0.67074  1.0000
  C   C5365     1.0  0.91611  0.44847  0.61419  1.0000
  C   C5366     1.0  0.92181  0.48044  0.61461  1.0000
  C   C5367     1.0  0.92809  0.49129  0.61626  1.0000
  C   C5368     1.0  0.75968  0.48292  0.71831  1.0000
  C   C5369     1.0  0.96986  0.42682  0.94080  1.0000
  C   C5370     1.0  0.91238  0.49049  0.58207  1.0000
  C   C5371     1.0  0.90913  0.46362  0.56096  1.0000
  C   C5372     1.0  0.91634  0.47271  0.53760  1.0000
  C   C5373     1.0  0.91933  0.47067  0.51069  1.0000
  C   C5374     1.0  0.91514  0.45958  0.50674  1.0000
  C   C5375     1.0  0.90818  0.45043  0.52987  1.0000
  C   C5376     1.0  0.90528  0.45240  0.55689  1.0000
  H   H4282     1.0  0.86293  0.45236  0.60216  1.0000
  H   H4283     1.0  0.85698  0.46468  0.63367  1.0000
  H   H4284     1.0  0.87193  0.47763  0.64868  1.0000
  H   H4285     1.0  0.89277  0.47859  0.63178  1.0000
  H   H4286     1.0  0.88377  0.45298  0.58511  1.0000
  H   H4287     1.0  0.89435  0.45565  0.65730  1.0000
  H   H4288     1.0  0.89807  0.44020  0.69277  1.0000
  H   H4289     1.0  0.92156  0.45092  0.59262  1.0000
  H   H4290     1.0  0.92320  0.47250  0.62682  1.0000
  C   C5377     1.0  0.95056  0.50108  0.54098  1.0000
  H   H4291     1.0  0.95359  0.44741  0.91008  1.0000
  C   C5378     1.0  0.76959  0.45447  0.52096  1.0000
  H   H4292     1.0  0.90625  0.49030  0.56892  1.0000
  H   H4293     1.0  0.91987  0.48136  0.53984  1.0000
  H   H4294     1.0  0.77721  0.47898  0.62931  1.0000
  H   H4295     1.0  0.98454  0.47133  0.83327  1.0000
  C   C5379     1.0  0.80048  0.41823  0.83136  1.0000
  C   C5380     1.0  0.89399  0.48372  0.50197  1.0000
  C   C5381     1.0  0.87315  0.37043  0.82642  1.0000
  H   H4296     1.0  0.92487  0.43533  0.62830  1.0000
  H   H4297     1.0  0.89088  0.42730  0.83934  1.0000
  C   C5382     1.0  0.79598  0.41086  0.81568  1.0000
  H   H4298     1.0  0.84360  0.37298  0.58555  1.0000
  C   C5383     1.0  0.90841  0.46538  0.93872  1.0000
  S   S729      1.0  0.96113  0.45914  0.69383  1.0000
  H   H4299     1.0  0.90030  0.47903  0.92372  1.0000
  H   H4300     1.0  0.79952  0.30768  0.68425  1.0000
  C   C5384     1.0  0.84428  0.42557  0.77244  1.0000
  C   C5385     1.0  0.83902  0.42768  0.74983  1.0000
  H   H4301     1.0  0.81575  0.42707  0.84123  1.0000
  C   C5386     1.0  0.79465  0.30820  0.70461  1.0000
  C   C5387     1.0  0.80455  0.39954  0.52081  1.0000
  C   C5388     1.0  0.82242  0.42360  0.52179  1.0000
  H   H4302     1.0  0.97647  0.45079  0.57842  1.0000
  C   C5389     1.0  0.84810  0.41660  0.92733  1.0000
  C   C5390     1.0  0.97924  0.46726  0.75622  1.0000
  H   H4303     1.0  0.88533  0.50136  0.89332  1.0000
  C   C5391     1.0  0.75706  0.32621  0.67878  1.0000
  C   C5392     1.0  0.79513  0.31324  0.48568  1.0000
  C   C5393     1.0  0.79625  0.31734  0.50959  1.0000
  C   C5394     1.0  0.86487  0.41898  0.51220  1.0000
  C   C5395     1.0  0.84558  0.39824  0.91392  1.0000
  H   H4304     1.0  0.91744  0.45799  0.48587  1.0000
  H   H4305     1.0  0.82937  0.41402  0.64944  1.0000
  C   C5396     1.0  0.85292  0.40833  0.91644  1.0000
  C   C5397     1.0  0.84015  0.40771  0.82523  1.0000
  C   C5398     1.0  0.82010  0.41670  0.81154  1.0000
  H   H4306     1.0  0.78990  0.28445  0.64960  1.0000
  H   H4307     1.0  0.84929  0.39178  0.90574  1.0000
  P   P177      1.0  0.83564  0.42040  0.80900  1.0000
  C   C5399     1.0  0.81547  0.40934  0.79575  1.0000
  H   H4308     1.0  0.80005  0.40093  0.78514  1.0000
  C   C5400     1.0  0.77647  0.30852  0.73531  1.0000
  C   C5401     1.0  0.91564  0.48606  0.93688  1.0000
  C   C5402     1.0  0.79144  0.48019  0.77652  1.0000
  H   H4309     1.0  0.91745  0.46570  0.88054  1.0000
  H   H4310     1.0  0.86233  0.40960  0.91046  1.0000
  C   C5403     1.0  0.83601  0.46843  0.51782  1.0000
  H   H4311     1.0  0.91492  0.49502  0.93158  1.0000
  H   H4312     1.0  0.78233  0.48479  0.92367  1.0000
  S   S730      1.0  0.83052  0.49465  0.87382  1.0000
  Fe  Fe368     1.0  0.81526  0.49428  0.90941  1.0000
  C   C5404     1.0  0.75445  0.33498  0.65969  1.0000
  H   H4313     1.0  0.85030  0.39959  0.64801  1.0000
  S   S731      1.0  0.79404  0.35399  0.97670  1.0000
  C   C5405     1.0  0.83770  0.42922  0.85606  1.0000
  H   H4314     1.0  0.84209  0.41363  0.57030  1.0000
  H   H4315     1.0  0.86448  0.40656  0.77156  1.0000
  C   C5406     1.0  0.85863  0.49766  0.51034  1.0000
  C   C5407     1.0  0.88277  0.40253  0.80175  1.0000
  H   H4316     1.0  0.76020  0.43496  0.62733  1.0000
  H   H4317     1.0  0.96206  0.45631  0.76025  1.0000
  C   C5408     1.0  0.76273  0.44417  0.61592  1.0000
  H   H4318     1.0  0.78323  0.45651  0.96448  1.0000
  H   H4319     1.0  0.79881  0.42655  0.51396  1.0000
  C   C5409     1.0  0.75185  0.26855  0.60194  1.0000
  H   H4320     1.0  0.75617  0.27426  0.63734  1.0000
  H   H4321     1.0  0.76229  0.47223  0.85629  1.0000
  H   H4322     1.0  0.97816  0.45889  0.48562  1.0000
  C   C5410     1.0  0.79128  0.44810  0.80012  1.0000
  C   C5411     1.0  0.78465  0.43087  0.53999  1.0000
  H   H4323     1.0  0.77506  0.34176  0.75136  1.0000
  C   C5412     1.0  0.78930  0.38253  0.56797  1.0000
  C   C5413     1.0  0.99202  0.48809  0.80253  1.0000
  C   C5414     1.0  0.77579  0.48818  0.84471  1.0000
  C   C5415     1.0  0.76779  0.49939  0.67623  1.0000
  H   H4324     1.0  0.99321  0.44218  0.81575  1.0000
  C   C5416     1.0  0.77898  0.43080  0.56752  1.0000
  C   C5417     1.0  0.83317  0.44203  0.48730  1.0000
  H   H4325     1.0  0.98342  0.46716  0.96815  1.0000
  C   C5418     1.0  0.82287  0.38056  0.51459  1.0000
  P   P178      1.0  0.95433  0.49196  0.81508  1.0000
  C   C5419     1.0  0.88718  0.38657  0.51193  1.0000
  C   C5420     1.0  0.96272  0.44564  0.85034  1.0000
  H   H4326     1.0  0.76168  0.48250  0.91911  1.0000
  C   C5421     1.0  0.86016  0.43707  0.51866  1.0000
  C   C5422     1.0  0.78061  0.43179  0.94053  1.0000
  H   H4327     1.0  0.93409  0.49160  0.62975  1.0000
  C   C5423     1.0  0.77142  0.47598  0.85444  1.0000
  P   P179      1.0  0.97401  0.48081  0.49700  1.0000
  C   C5424     1.0  0.79475  0.48640  0.85100  1.0000
  C   C5425     1.0  0.94954  0.47458  0.90815  1.0000
  C   C5426     1.0  0.85746  0.38059  0.95254  1.0000
  H   H4328     1.0  0.81005  0.40616  0.50211  1.0000
  S   S732      1.0  0.79987  0.31264  0.90486  1.0000
  H   H4329     1.0  0.84288  0.44612  0.78835  1.0000
  S   S733      1.0  0.96078  0.43928  0.65678  1.0000
  H   H4330     1.0  0.99192  0.44684  0.95887  1.0000
  C   C5427     1.0  0.80975  0.42236  0.96088  1.0000
  H   H4331     1.0  0.84648  0.46184  0.81274  1.0000
  H   H4332     1.0  0.95443  0.47276  0.73977  1.0000
  C   C5428     1.0  0.99024  0.46663  0.56899  1.0000
  H   H4333     1.0  0.80883  0.48162  0.75213  1.0000
  C   C5429     1.0  0.97966  0.43824  0.85426  1.0000
  C   C5430     1.0  0.75000  0.44007  0.68503  1.0000
  C   C5431     1.0  0.77464  0.31338  0.49576  1.0000
  C   C5432     1.0  0.97209  0.49811  0.58094  1.0000
  C   C5433     1.0  0.78183  0.45079  0.95055  1.0000
  C   C5434     1.0  0.77844  0.43617  0.91429  1.0000
  C   C5435     1.0  0.78301  0.49182  0.58850  1.0000
  H   H4334     1.0  0.77704  0.43035  0.90069  1.0000
  H   H4335     1.0  0.82848  0.43301  0.61993  1.0000
  C   C5436     1.0  0.89078  0.39620  0.74889  1.0000
  C   C5437     1.0  0.82387  0.46519  0.52210  1.0000
  C   C5438     1.0  0.76320  0.45919  0.67730  1.0000
  C   C5439     1.0  0.77792  0.44790  0.90603  1.0000
  C   C5440     1.0  0.78711  0.45884  0.48273  1.0000
  C   C5441     1.0  0.77399  0.48507  0.51505  1.0000
  H   H4336     1.0  0.79428  0.48172  0.79504  1.0000
  C   C5442     1.0  0.90211  0.40290  0.74633  1.0000
  H   H4337     1.0  0.76727  0.30827  0.73861  1.0000
  C   C5443     1.0  0.85281  0.48924  0.62303  1.0000
  C   C5444     1.0  0.77947  0.45513  0.92458  1.0000
  C   C5445     1.0  0.77877  0.46888  0.86210  1.0000
  H   H4338     1.0  0.97929  0.42983  0.93454  1.0000
  H   H4339     1.0  0.96419  0.43453  0.88855  1.0000
  H   H4340     1.0  0.80438  0.31016  0.95856  1.0000
  H   H4341     1.0  0.77447  0.31161  0.90602  1.0000
  C   C5446     1.0  0.77973  0.49220  0.91282  1.0000
  P   P180      1.0  0.77332  0.45308  0.87440  1.0000
  H   H4342     1.0  0.90734  0.48541  0.86911  1.0000
  H   H4343     1.0  0.97836  0.43867  0.69039  1.0000
  H   H4344     1.0  0.99368  0.46346  0.58682  1.0000
  C   C5447     1.0  0.79045  0.47419  0.86047  1.0000
  H   H4345     1.0  0.79337  0.46125  0.82297  1.0000
  C   C5448     1.0  0.77594  0.47660  0.75252  1.0000
  H   H4346     1.0  0.76457  0.46857  0.67417  1.0000
  C   C5449     1.0  0.76802  0.49092  0.91032  1.0000
  H   H4347     1.0  0.79095  0.48979  0.65095  1.0000
  C   C5450     1.0  0.88688  0.40868  0.84316  1.0000
  H   H4348     1.0  0.87609  0.37352  0.49857  1.0000
  H   H4349     1.0  0.93632  0.45062  0.82095  1.0000
  H   H4350     1.0  0.75657  0.45095  0.83958  1.0000
  H   H4351     1.0  0.83828  0.43617  0.89260  1.0000
  C   C5451     1.0  0.87643  0.38039  0.50971  1.0000
  C   C5452     1.0  0.97331  0.42511  0.72959  1.0000
  C   C5453     1.0  0.90746  0.40386  0.69607  1.0000
  H   H4352     1.0  0.94301  0.46085  0.88935  1.0000
  C   C5454     1.0  0.84294  0.44996  0.85406  1.0000
  H   H4353     1.0  0.75221  0.28494  0.71130  1.0000
  Fe  Fe369     1.0  0.97307  0.45665  0.65574  1.0000
  H   H4354     1.0  0.83760  0.36512  0.63768  1.0000
  C   C5455     1.0  0.88732  0.42326  0.80116  1.0000
  H   H4355     1.0  0.75658  0.29317  0.65956  1.0000
  C   C5456     1.0  0.74934  0.29908  0.83073  1.0000
  H   H4356     1.0  0.78977  0.26410  0.84460  1.0000
  H   H4357     1.0  0.93611  0.41512  0.96342  1.0000
  H   H4358     1.0  0.79625  0.46892  0.86668  1.0000
  H   H4359     1.0  0.80369  0.49048  0.85052  1.0000
  C   C5457     1.0  0.98057  0.45947  0.56423  1.0000
  C   C5458     1.0  0.78166  0.28464  0.66268  1.0000
  H   H4360     1.0  0.89051  0.46503  0.50723  1.0000
  H   H4361     1.0  0.96427  0.47298  0.83921  1.0000
  H   H4362     1.0  0.99060  0.47821  0.68211  1.0000
  C   C5459     1.0  0.94416  0.46862  0.81874  1.0000
  H   H4363     1.0  0.90464  0.40512  0.76466  1.0000
  C   C5460     1.0  0.94597  0.49392  0.76613  1.0000
  H   H4364     1.0  0.85322  0.38230  0.97203  1.0000
  H   H4365     1.0  0.77133  0.43419  0.57108  1.0000
  H   H4366     1.0  0.76490  0.43024  0.86340  1.0000
  C   C5461     1.0  0.77860  0.44645  0.84635  1.0000
  H   H4367     1.0  0.91944  0.44861  0.86104  1.0000
  C   C5462     1.0  0.83986  0.42445  0.48613  1.0000
  H   H4368     1.0  0.81695  0.31844  0.56149  1.0000
  H   H4369     1.0  0.81391  0.29348  0.78118  1.0000
  H   H4370     1.0  0.96297  0.45542  0.80923  1.0000
  C   C5463     1.0  0.94394  0.50018  0.74137  1.0000
  C   C5464     1.0  0.76699  0.33075  0.59674  1.0000
  C   C5465     1.0  0.77239  0.43526  0.84605  1.0000
  C   C5466     1.0  0.87468  0.36010  0.84235  1.0000
  P   P181      1.0  0.96951  0.44929  0.94765  1.0000
  C   C5467     1.0  0.74987  0.47960  0.70788  1.0000
  H   H4371     1.0  0.80894  0.44917  0.92336  1.0000
  C   C5468     1.0  0.82248  0.40382  0.62287  1.0000
  C   C5469     1.0  0.92555  0.47181  0.95536  1.0000
  C   C5470     1.0  0.76849  0.49308  0.70255  1.0000
  C   C5471     1.0  0.75546  0.49232  0.77662  1.0000
  C   C5472     1.0  0.77967  0.48596  0.48691  1.0000
  H   H4372     1.0  0.95143  0.46937  0.80114  1.0000
  P   P182      1.0  0.98492  0.45515  0.77053  1.0000
  C   C5473     1.0  0.98649  0.45868  0.89588  1.0000
  S   S734      1.0  0.81733  0.46523  0.49355  1.0000
  H   H4373     1.0  0.84060  0.37835  0.66906  1.0000
  C   C5474     1.0  0.95454  0.45589  0.91470  1.0000
  C   C5475     1.0  0.97759  0.43669  0.71305  1.0000
  H   H4374     1.0  0.84164  0.47135  0.49643  1.0000
  H   H4375     1.0  0.88798  0.40651  0.86457  1.0000
  C   C5476     1.0  0.96766  0.46516  0.75377  1.0000
  C   C5477     1.0  0.94721  0.48880  0.54781  1.0000
  H   H4376     1.0  0.84516  0.40287  0.76121  1.0000
  P   P183      1.0  0.88016  0.39121  0.78307  1.0000
  H   H4377     1.0  0.79448  0.39442  0.59246  1.0000
  C   C5478     1.0  0.95436  0.48265  0.53454  1.0000
  C   C5479     1.0  0.80917  0.42219  0.91256  1.0000
  H   H4378     1.0  0.89370  0.48831  0.83874  1.0000
  C   C5480     1.0  0.92603  0.45691  0.85229  1.0000
  C   C5481     1.0  0.93560  0.45800  0.82987  1.0000
  C   C5482     1.0  0.94323  0.47827  0.82997  1.0000
  H   H4379     1.0  0.75429  0.32296  0.57685  1.0000
  C   C5483     1.0  0.94858  0.46357  0.90256  1.0000
  C   C5484     1.0  0.96233  0.47020  0.93832  1.0000
  C   C5485     1.0  0.97258  0.42256  0.75870  1.0000
  H   H4380     1.0  0.80949  0.43891  0.97146  1.0000
  H   H4381     1.0  0.97005  0.40966  0.93425  1.0000
  C   C5486     1.0  0.76081  0.49033  0.57619  1.0000
  C   C5487     1.0  0.77602  0.30311  0.90558  1.0000
  C   C5488     1.0  0.81787  0.40400  0.59920  1.0000
  C   C5489     1.0  0.76046  0.49983  0.55481  1.0000
  C   C5490     1.0  0.77066  0.28697  0.56763  1.0000
  C   C5491     1.0  0.84918  0.41847  0.55189  1.0000
  H   H4382     1.0  0.78761  0.32332  0.54414  1.0000
  C   C5492     1.0  0.75454  0.27043  0.57241  1.0000
  C   C5493     1.0  0.78179  0.45746  0.51135  1.0000
  H   H4383     1.0  0.82981  0.40887  0.51842  1.0000
  C   C5494     1.0  0.76049  0.28493  0.69777  1.0000
  C   C5495     1.0  0.75856  0.27585  0.61443  1.0000
  C   C5496     1.0  0.83060  0.41809  0.50964  1.0000
  C   C5497     1.0  0.97613  0.43159  0.77127  1.0000
  C   C5498     1.0  0.82116  0.42515  0.59015  1.0000
  H   H4384     1.0  0.76008  0.32337  0.76023  1.0000
  C   C5499     1.0  0.95643  0.47790  0.92596  1.0000
  H   H4385     1.0  0.75491  0.35023  0.82257  1.0000
  H   H4386     1.0  0.81804  0.44028  0.52064  1.0000
  H   H4387     1.0  0.96803  0.45811  0.53949  1.0000
  C   C5500     1.0  0.88753  0.47211  0.51438  1.0000
  H   H4388     1.0  0.96916  0.41358  0.77156  1.0000
  H   H4389     1.0  0.87933  0.38805  0.72610  1.0000
  C   C5501     1.0  0.85892  0.49464  0.63982  1.0000
  H   H4390     1.0  0.80245  0.47821  0.70954  1.0000
  H   H4391     1.0  0.81473  0.39579  0.59425  1.0000
  C   C5502     1.0  0.96885  0.48970  0.80776  1.0000
  C   C5503     1.0  0.96480  0.48879  0.51391  1.0000
  C   C5504     1.0  0.99783  0.46142  0.87833  1.0000
  C   C5505     1.0  0.76106  0.45149  0.75066  1.0000
  C   C5506     1.0  0.75302  0.28615  0.79055  1.0000
  C   C5507     1.0  0.79967  0.48015  0.75233  1.0000
  H   H4392     1.0  0.75299  0.30765  0.69836  1.0000
  C   C5508     1.0  0.92493  0.46653  0.86332  1.0000
  C   C5509     1.0  0.97125  0.47983  0.82379  1.0000
  C   C5510     1.0  0.76266  0.45272  0.50197  1.0000
  C   C5511     1.0  0.75586  0.43980  0.75229  1.0000
  C   C5512     1.0  0.85624  0.41255  0.53719  1.0000
  H   H4393     1.0  0.85162  0.39532  0.49129  1.0000
  H   H4394     1.0  0.89996  0.38011  0.77885  1.0000
  H   H4395     1.0  0.91392  0.40680  0.67572  1.0000
  C   C5513     1.0  0.79040  0.38068  0.54084  1.0000
  H   H4396     1.0  0.76866  0.31986  0.53213  1.0000
  S   S735      1.0  0.75042  0.50011  0.89048  1.0000
  C   C5514     1.0  0.99047  0.48220  0.52901  1.0000
  H   H4397     1.0  0.80466  0.31913  0.51449  1.0000
  H   H4398     1.0  0.79871  0.38777  0.49620  1.0000
  C   C5515     1.0  0.79894  0.42219  0.55834  1.0000
  H   H4399     1.0  0.89502  0.50182  0.49961  1.0000
  C   C5516     1.0  0.88524  0.35702  0.83540  1.0000
  H   H4400     1.0  0.78526  0.37271  0.53805  1.0000
  C   C5517     1.0  0.78234  0.43912  0.95860  1.0000
  S   S736      1.0  0.75772  0.27006  0.90292  1.0000
  C   C5518     1.0  0.80877  0.43394  0.90693  1.0000
  C   C5519     1.0  0.75818  0.49579  0.66567  1.0000
  C   C5520     1.0  0.90693  0.49421  0.85947  1.0000
  H   H4401     1.0  0.78734  0.43357  0.78161  1.0000
  C   C5521     1.0  0.98093  0.44577  0.72561  1.0000
  P   P184      1.0  0.81081  0.41531  0.55274  1.0000
  S   S737      1.0  0.89645  0.42248  0.97277  1.0000
  C   C5522     1.0  0.78305  0.48733  0.61683  1.0000
  H   H4402     1.0  0.88411  0.41679  0.76563  1.0000
  C   C5523     1.0  0.79798  0.38920  0.51726  1.0000
  C   C5524     1.0  0.77555  0.43061  0.82285  1.0000
  C   C5525     1.0  0.79203  0.27321  0.83258  1.0000
  C   C5526     1.0  0.97583  0.46365  0.54196  1.0000
  C   C5527     1.0  0.75182  0.48640  0.60151  1.0000
  S   S738      1.0  0.86069  0.49860  0.89933  1.0000
  C   C5528     1.0  0.96791  0.45097  0.82152  1.0000
  C   C5529     1.0  0.79637  0.38347  0.93776  1.0000
  H   H4403     1.0  0.96747  0.47298  0.95224  1.0000
  C   C5530     1.0  0.78036  0.48536  0.53571  1.0000
  C   C5531     1.0  0.78408  0.28002  0.83694  1.0000
  P   P185      1.0  0.76072  0.47460  0.75211  1.0000
  C   C5532     1.0  0.88849  0.42041  0.82895  1.0000
  H   H4404     1.0  0.95391  0.44601  0.85967  1.0000
  C   C5533     1.0  0.76672  0.29370  0.90514  1.0000
  C   C5534     1.0  0.92489  0.48349  0.94780  1.0000
  C   C5535     1.0  0.99519  0.47799  0.55139  1.0000
  C   C5536     1.0  0.98642  0.47877  0.74626  1.0000
  C   C5537     1.0  0.78891  0.29023  0.90514  1.0000
  C   C5538     1.0  0.98084  0.47499  0.52392  1.0000
  C   C5539     1.0  0.86564  0.38854  0.77706  1.0000
  C   C5540     1.0  0.98026  0.44332  0.75481  1.0000
  P   P186      1.0  0.77309  0.48384  0.57230  1.0000
  H   H4405     1.0  0.76648  0.27635  0.73238  1.0000
  C   C5541     1.0  0.75686  0.28363  0.81525  1.0000
  C   C5542     1.0  0.97816  0.49873  0.78921  1.0000
  H   H4406     1.0  0.77855  0.42577  0.61207  1.0000
  C   C5543     1.0  0.79461  0.42660  0.53537  1.0000
  H   H4407     1.0  0.98408  0.43307  0.86685  1.0000
  H   H4408     1.0  0.86386  0.36998  0.77972  1.0000
  H   H4409     1.0  0.84576  0.43521  0.55431  1.0000
  H   H4410     1.0  0.94843  0.40231  0.94819  1.0000
  C   C5544     1.0  0.77503  0.32876  0.61255  1.0000
  C   C5545     1.0  0.97897  0.44988  0.80865  1.0000
  H   H4411     1.0  0.91912  0.41187  0.71826  1.0000
  H   H4412     1.0  0.78412  0.36885  0.93258  1.0000
  C   C5546     1.0  0.76299  0.28959  0.66838  1.0000
  H   H4413     1.0  0.79848  0.45317  0.78209  1.0000
  C   C5547     1.0  0.85985  0.37725  0.77636  1.0000
  C   C5548     1.0  0.84156  0.44791  0.96197  1.0000
  H   H4414     1.0  0.95690  0.48635  0.93080  1.0000
  C   C5549     1.0  0.89624  0.39717  0.69843  1.0000
  C   C5550     1.0  0.87720  0.46969  0.53574  1.0000
  H   H4415     1.0  0.75804  0.28819  0.85441  1.0000
  H   H4416     1.0  0.88887  0.43240  0.78993  1.0000
  C   C5551     1.0  0.89008  0.49290  0.51057  1.0000
  H   H4417     1.0  0.76499  0.33922  0.59268  1.0000
  C   C5552     1.0  0.78663  0.31962  0.52639  1.0000
  H   H4418     1.0  0.96902  0.48926  0.57910  1.0000
  H   H4419     1.0  0.91795  0.45387  0.95701  1.0000
  C   C5553     1.0  0.84877  0.37519  0.77110  1.0000
  S   S739      1.0  0.93614  0.49461  0.95094  1.0000
  H   H4420     1.0  0.86548  0.47675  0.56175  1.0000
  C   C5554     1.0  0.96852  0.43915  0.86662  1.0000
  C   C5555     1.0  0.84927  0.39573  0.76560  1.0000
  C   C5556     1.0  0.98426  0.45361  0.92518  1.0000
  H   H4421     1.0  0.78162  0.47532  0.70951  1.0000
  C   C5557     1.0  0.87987  0.49056  0.53256  1.0000
  C   C5558     1.0  0.79608  0.47830  0.72828  1.0000
  H   H4422     1.0  0.78139  0.27247  0.90471  1.0000
  H   H4423     1.0  0.98773  0.49684  0.72565  1.0000
  C   C5559     1.0  0.94553  0.41842  0.95699  1.0000
  H   H4424     1.0  0.87380  0.43612  0.48427  1.0000
  C   C5560     1.0  0.95068  0.42986  0.95745  1.0000
  H   H4425     1.0  0.89597  0.40024  0.52790  1.0000
  Fe  Fe370     1.0  0.91501  0.42142  0.97008  1.0000
  H   H4426     1.0  0.76111  0.27655  0.81907  1.0000
  C   C5561     1.0  0.75109  0.49678  0.79928  1.0000
  H   H4427     1.0  0.84418  0.48336  0.63254  1.0000
  C   C5562     1.0  0.80735  0.28865  0.57714  1.0000
  C   C5563     1.0  0.75411  0.45919  0.75654  1.0000
  H   H4428     1.0  0.85264  0.48742  0.58120  1.0000
  C   C5564     1.0  0.85120  0.45578  0.96489  1.0000
  H   H4429     1.0  0.95536  0.49846  0.60543  1.0000
  C   C5565     1.0  0.89925  0.49585  0.84235  1.0000
  C   C5566     1.0  0.96466  0.41535  0.94057  1.0000
  H   H4430     1.0  0.81584  0.37617  0.50698  1.0000
  C   C5567     1.0  0.96289  0.43424  0.94881  1.0000
  H   H4431     1.0  0.76480  0.27146  0.97052  1.0000
  H   H4432     1.0  0.92500  0.47768  0.49289  1.0000
  C   C5568     1.0  0.75363  0.48014  0.78021  1.0000
  C   C5569     1.0  0.96826  0.50109  0.50782  1.0000
  P   P187      1.0  0.76107  0.31197  0.48531  1.0000
  H   H4433     1.0  0.99546  0.48064  0.74711  1.0000
  C   C5570     1.0  0.86893  0.49902  0.58112  1.0000
  C   C5571     1.0  0.79078  0.49351  0.62926  1.0000
  C   C5572     1.0  0.83385  0.38605  0.49592  1.0000
  H   H4434     1.0  0.77339  0.47833  0.79574  1.0000
  H   H4435     1.0  0.99414  0.49115  0.51618  1.0000
  H   H4436     1.0  0.96808  0.49591  0.85666  1.0000
  C   C5573     1.0  0.95161  0.49992  0.78300  1.0000
  H   H4437     1.0  0.75881  0.34411  0.65663  1.0000
  H   H4438     1.0  0.79731  0.48534  0.54399  1.0000
  C   C5574     1.0  0.99348  0.45107  0.93649  1.0000
  C   C5575     1.0  0.75509  0.29015  0.83523  1.0000
  H   H4439     1.0  0.77521  0.49670  0.97862  1.0000
  H   H4440     1.0  0.76048  0.49840  0.75655  1.0000
  H   H4441     1.0  0.84597  0.49372  0.48646  1.0000
  C   C5576     1.0  0.84873  0.49881  0.50063  1.0000
  C   C5577     1.0  0.75193  0.45219  0.68139  1.0000
  H   H4442     1.0  0.75436  0.28108  0.77509  1.0000
  C   C5578     1.0  0.74946  0.31145  0.51527  1.0000
  H   H4443     1.0  0.87785  0.49532  0.97468  1.0000
  C   C5579     1.0  0.98969  0.49797  0.78673  1.0000
  C   C5580     1.0  0.96987  0.45970  0.48144  1.0000
  H   H4444     1.0  0.75211  0.43155  0.48509  1.0000
  C   C5581     1.0  0.91885  0.50133  0.58340  1.0000
  C   C5582     1.0  0.92665  0.50173  0.60061  1.0000
  H   H4445     1.0  0.99003  0.50015  0.65919  1.0000
  H   H4446     1.0  0.90199  0.48570  0.48538  1.0000
  H   H4447     1.0  0.98977  0.49996  0.55867  1.0000
  C   C5583     1.0  0.75096  0.44557  0.91181  1.0000
  C   C5584     1.0  0.98145  0.50181  0.66275  1.0000
  H   H4448     1.0  0.75766  0.50068  0.64527  1.0000
  H   H4449     1.0  0.82148  0.38446  0.97968  1.0000
  S   S740      1.0  0.93886  0.54214  0.43592  1.0000
  Fe  Fe371     1.0  0.95073  0.53674  0.40156  1.0000
  S   S741      1.0  0.96538  0.54639  0.36093  1.0000
  C   C5585     1.0  0.98112  0.59037  0.23627  1.0000
  Fe  Fe372     1.0  0.97920  0.56206  0.19015  1.0000
  S   S742      1.0  0.98741  0.57663  0.14940  1.0000
  S   S743      1.0  0.96585  0.56258  0.22960  1.0000
  H   H4450     1.0  0.99148  0.55619  0.35258  1.0000
  H   H4451     1.0  0.83467  0.51207  0.26208  1.0000
  H   H4452     1.0  0.98831  0.58448  0.29920  1.0000
  C   C5586     1.0  0.81958  0.51249  0.32740  1.0000
  C   C5587     1.0  0.94285  0.53891  0.22273  1.0000
  Fe  Fe373     1.0  0.98249  0.56277  0.12549  1.0000
  S   S744      1.0  0.97427  0.56499  0.08638  1.0000
  P   P188      1.0  0.94592  0.50978  0.27720  1.0000
  S   S745      1.0  0.97305  0.54906  0.16624  1.0000
  Fe  Fe374     1.0  0.94381  0.51152  0.43579  1.0000
  C   C5588     1.0  0.89438  0.51655  0.43204  1.0000
  H   H4453     1.0  0.95584  0.51256  0.32611  1.0000
  H   H4454     1.0  0.96752  0.59710  0.02729  1.0000
  H   H4455     1.0  0.93263  0.58641  0.01838  1.0000
  C   C5589     1.0  0.98045  0.52752  0.25689  1.0000
  C   C5590     1.0  0.88775  0.51463  0.38964  1.0000
  H   H4456     1.0  0.88975  0.51612  0.36685  1.0000
  C   C5591     1.0  0.87610  0.50951  0.40587  1.0000
  C   C5592     1.0  0.88274  0.51152  0.44825  1.0000
  H   H4457     1.0  0.93334  0.56454  0.01567  1.0000
  S   S746      1.0  0.95830  0.52674  0.43386  1.0000
  C   C5593     1.0  0.89682  0.51803  0.40260  1.0000
  H   H4458     1.0  0.95826  0.53145  0.14343  1.0000
  H   H4459     1.0  0.90332  0.51263  0.15435  1.0000
  C   C5594     1.0  0.90304  0.51380  0.05685  1.0000
  C   C5595     1.0  0.93330  0.52109  0.12478  1.0000
  C   C5596     1.0  0.92986  0.53162  0.11875  1.0000
  C   C5597     1.0  0.91564  0.51021  0.09809  1.0000
  H   H4460     1.0  0.95240  0.55006  0.13163  1.0000
  C   C5598     1.0  0.98267  0.52742  0.28342  1.0000
  C   C5599     1.0  0.96616  0.59299  0.98770  1.0000
  H   H4461     1.0  0.99041  0.50406  0.16037  1.0000
  C   C5600     1.0  0.96900  0.51746  0.18000  1.0000
  C   C5601     1.0  0.96486  0.54953  0.32458  1.0000
  C   C5602     1.0  0.95482  0.55129  0.31631  1.0000
  C   C5603     1.0  0.95523  0.55509  0.28718  1.0000
  C   C5604     1.0  0.96560  0.55695  0.26590  1.0000
  C   C5605     1.0  0.97553  0.55478  0.27415  1.0000
  C   C5606     1.0  0.97516  0.55118  0.30329  1.0000
  H   H4462     1.0  0.94751  0.55678  0.28111  1.0000
  H   H4463     1.0  0.98356  0.55618  0.25810  1.0000
  H   H4464     1.0  0.98289  0.54965  0.30942  1.0000
  C   C5607     1.0  0.95439  0.54566  0.03027  1.0000
  C   C5608     1.0  0.95685  0.55791  0.02594  1.0000
  C   C5609     1.0  0.96285  0.56352  0.04327  1.0000
  C   C5610     1.0  0.96669  0.55714  0.06514  1.0000
  C   C5611     1.0  0.96443  0.54491  0.06905  1.0000
  C   C5612     1.0  0.95828  0.53927  0.05200  1.0000
  H   H4465     1.0  0.96460  0.57293  0.03965  1.0000
  H   H4466     1.0  0.96737  0.53975  0.08526  1.0000
  H   H4467     1.0  0.95674  0.52987  0.05531  1.0000
  H   H4468     1.0  0.94609  0.59289  0.04672  1.0000
  C   C5613     1.0  0.96034  0.51647  0.27993  1.0000
  H   H4469     1.0  0.96767  0.52517  0.18655  1.0000
  C   C5614     1.0  0.92155  0.51489  0.34097  1.0000
  H   H4470     1.0  0.94553  0.54836  0.21943  1.0000
  C   C5615     1.0  0.81648  0.50335  0.28129  1.0000
  H   H4471     1.0  0.99121  0.53179  0.28471  1.0000
  C   C5616     1.0  0.76506  0.51163  0.33396  1.0000
  Fe  Fe375     1.0  0.99034  0.54498  0.16557  1.0000
  C   C5617     1.0  0.91467  0.52015  0.05125  1.0000
  H   H4472     1.0  0.96777  0.52245  0.23441  1.0000
  C   C5618     1.0  0.98022  0.51579  0.17296  1.0000
  H   H4473     1.0  0.97532  0.52224  0.32880  1.0000
  C   C5619     1.0  0.96262  0.51649  0.30656  1.0000
  H   H4474     1.0  0.93029  0.52393  0.29768  1.0000
  C   C5620     1.0  0.94348  0.52107  0.13413  1.0000
  C   C5621     1.0  0.92097  0.51833  0.07165  1.0000
  C   C5622     1.0  0.94241  0.51928  0.24871  1.0000
  H   H4475     1.0  0.92190  0.53184  0.11212  1.0000
  H   H4476     1.0  0.90564  0.52214  0.38979  1.0000
  Fe  Fe376     1.0  0.94576  0.53101  0.46819  1.0000
  H   H4477     1.0  0.94619  0.51301  0.13920  1.0000
  H   H4478     1.0  0.95055  0.53542  0.25778  1.0000
  C   C5623     1.0  0.94573  0.53153  0.24442  1.0000
  H   H4479     1.0  0.89823  0.51513  0.04076  1.0000
  H   H4480     1.0  0.90611  0.52136  0.27587  1.0000
  H   H4481     1.0  0.76341  0.50276  0.40966  1.0000
  C   C5624     1.0  0.97374  0.52195  0.30823  1.0000
  C   C5625     1.0  0.93674  0.54204  0.12117  1.0000
  H   H4482     1.0  0.98480  0.51008  0.40440  1.0000
  H   H4483     1.0  0.99098  0.55219  0.04728  1.0000
  H   H4484     1.0  0.97109  0.58357  0.27985  1.0000
  S   S747      1.0  0.99240  0.52651  0.17341  1.0000
  C   C5626     1.0  0.90683  0.50323  0.28496  1.0000
  C   C5627     1.0  0.95935  0.50902  0.17902  1.0000
  C   C5628     1.0  0.93550  0.50782  0.31066  1.0000
  H   H4485     1.0  0.88882  0.51789  0.31642  1.0000
  C   C5629     1.0  0.95026  0.53146  0.13683  1.0000
  H   H4486     1.0  0.93427  0.55022  0.11575  1.0000
  C   C5630     1.0  0.93631  0.51457  0.23071  1.0000
  H   H4487     1.0  0.95417  0.56310  0.00917  1.0000
  C   C5631     1.0  0.93343  0.52198  0.20907  1.0000
  C   C5632     1.0  0.94694  0.54195  0.13024  1.0000
  S   S748      1.0  0.94692  0.53803  0.00863  1.0000
  H   H4488     1.0  0.93388  0.50519  0.23299  1.0000
  H   H4489     1.0  0.91683  0.52148  0.34400  1.0000
  C   C5633     1.0  0.93668  0.53414  0.20514  1.0000
  H   H4490     1.0  0.98728  0.53188  0.23751  1.0000
  C   C5634     1.0  0.91826  0.55101  0.01895  1.0000
  S   S749      1.0  0.90535  0.52123  0.44950  1.0000
  H   H4491     1.0  0.93006  0.52318  0.06655  1.0000
  H   H4492     1.0  0.91453  0.50439  0.38427  1.0000
  H   H4493     1.0  0.77864  0.52740  0.31211  1.0000
  Fe  Fe377     1.0  0.92548  0.52536  0.43827  1.0000
  C   C5635     1.0  0.94198  0.58813  0.00971  1.0000
  C   C5636     1.0  0.96934  0.52210  0.25516  1.0000
  H   H4494     1.0  0.93455  0.53992  0.18826  1.0000
  C   C5637     1.0  0.92919  0.51622  0.31462  1.0000
  H   H4495     1.0  0.99880  0.52887  0.11418  1.0000
  H   H4496     1.0  0.94686  0.55016  0.33237  1.0000
  C   C5638     1.0  0.98963  0.58712  0.27641  1.0000
  H   H4497     1.0  0.92886  0.51831  0.19502  1.0000
  S   S750      1.0  0.93686  0.52102  0.40211  1.0000
  P   P189      1.0  0.92419  0.50746  0.12333  1.0000
  H   H4498     1.0  0.91894  0.52639  0.03090  1.0000
  H   H4499     1.0  0.99638  0.56778  0.30270  1.0000
  C   C5639     1.0  0.90406  0.50358  0.10337  1.0000
  H   H4500     1.0  0.93436  0.50539  0.04019  1.0000
  C   C5640     1.0  0.82897  0.51480  0.30363  1.0000
  C   C5641     1.0  0.77638  0.51788  0.31832  1.0000
  H   H4501     1.0  0.83746  0.52003  0.30322  1.0000
  C   C5642     1.0  0.90955  0.54688  0.00612  1.0000
  H   H4502     1.0  0.91882  0.54582  0.03897  1.0000
  H   H4503     1.0  0.78385  0.51252  0.40849  1.0000
  C   C5643     1.0  0.98173  0.50545  0.16562  1.0000
  H   H4504     1.0  0.82076  0.51591  0.34546  1.0000
  H   H4505     1.0  0.94804  0.51161  0.08756  1.0000
  C   C5644     1.0  0.90221  0.51260  0.28981  1.0000
  C   C5645     1.0  0.78479  0.51186  0.31062  1.0000
  H   H4506     1.0  0.79346  0.51687  0.29805  1.0000
  S   S751      1.0  0.99591  0.55691  0.19224  1.0000
  H   H4507     1.0  0.95071  0.51036  0.18461  1.0000
  C   C5646     1.0  0.92648  0.56176  0.00572  1.0000
  C   C5647     1.0  0.89773  0.50552  0.08295  1.0000
  C   C5648     1.0  0.94956  0.59189  0.02572  1.0000
  C   C5649     1.0  0.99366  0.54015  0.08238  1.0000
  C   C5650     1.0  0.89253  0.51068  0.31265  1.0000
  H   H4508     1.0  0.88071  0.51048  0.47094  1.0000
  H   H4509     1.0  0.98528  0.53944  0.09644  1.0000
  C   C5651     1.0  0.99878  0.56396  0.34488  1.0000
  H   H4510     1.0  0.75853  0.51626  0.34001  1.0000
  S   S752      1.0  0.93172  0.51467  0.47220  1.0000
  H   H4511     1.0  0.90328  0.53846  0.01608  1.0000
  C   C5652     1.0  0.87370  0.50794  0.43533  1.0000
  C   C5653     1.0  0.82739  0.51030  0.28052  1.0000
  C   C5654     1.0  0.80866  0.50561  0.32817  1.0000
  S   S753      1.0  0.86495  0.50550  0.38822  1.0000
  C   C5655     1.0  0.99231  0.59457  0.21779  1.0000
  C   C5656     1.0  0.97979  0.58682  0.26558  1.0000
  H   H4512     1.0  0.97347  0.58977  0.22788  1.0000
  C   C5657     1.0  0.96165  0.59433  0.01471  1.0000
  C   C5658     1.0  0.90558  0.50590  0.16876  1.0000
  C   C5659     1.0  0.99694  0.54738  0.05474  1.0000
  S   S754      1.0  0.80504  0.50454  0.40449  1.0000
  H   H4513     1.0  0.99334  0.59737  0.19506  1.0000
  S   S755      1.0  0.92317  0.51839  0.98077  1.0000
  C   C5660     1.0  0.94643  0.58660  0.98270  1.0000
  H   H4514     1.0  0.91428  0.50472  0.26719  1.0000
  H   H4515     1.0  0.99837  0.51397  0.21799  1.0000
  H   H4516     1.0  0.86483  0.50416  0.44798  1.0000
  H   H4517     1.0  0.80149  0.50387  0.34682  1.0000
  C   C5661     1.0  0.78164  0.50342  0.40775  1.0000
  H   H4518     1.0  0.99835  0.51515  0.46513  1.0000
  C   C5662     1.0  0.92020  0.50523  0.36360  1.0000
  C   C5663     1.0  0.98799  0.50443  0.41935  1.0000
  H   H4519     1.0  0.89162  0.50529  0.20429  1.0000
  S   S756      1.0  0.93190  0.54492  0.93834  1.0000
  H   H4520     1.0  0.95610  0.52802  0.74326  1.0000
  S   S757      1.0  0.95598  0.54798  0.86435  1.0000
  S   S758      1.0  0.94959  0.53263  0.51172  1.0000
  Fe  Fe378     1.0  0.97727  0.55750  0.69095  1.0000
  S   S759      1.0  0.98639  0.57297  0.65217  1.0000
  S   S760      1.0  0.96196  0.55419  0.73036  1.0000
  H   H4521     1.0  0.97641  0.50604  0.49274  1.0000
  H   H4522     1.0  0.95557  0.52304  0.88653  1.0000
  S   S761      1.0  0.89769  0.52773  0.95236  1.0000
  C   C5664     1.0  0.88745  0.51933  0.93800  1.0000
  C   C5665     1.0  0.92735  0.55409  0.74771  1.0000
  Fe  Fe379     1.0  0.98290  0.56006  0.62504  1.0000
  S   S762      1.0  0.97769  0.56315  0.58189  1.0000
  H   H4523     1.0  0.86131  0.51796  0.85055  1.0000
  S   S763      1.0  0.97264  0.54551  0.66329  1.0000
  C   C5666     1.0  0.89728  0.51570  0.53655  1.0000
  H   H4524     1.0  0.94072  0.52141  0.85910  1.0000
  C   C5667     1.0  0.91751  0.59270  0.96627  1.0000
  C   C5668     1.0  0.89087  0.51279  0.91898  1.0000
  C   C5669     1.0  0.78442  0.51270  0.88786  1.0000
  H   H4525     1.0  0.75059  0.51201  0.54126  1.0000
  C   C5670     1.0  0.96246  0.50925  0.87396  1.0000
  H   H4526     1.0  0.84104  0.51925  0.53357  1.0000
  H   H4527     1.0  0.88353  0.51054  0.58912  1.0000
  H   H4528     1.0  0.93723  0.59209  0.90143  1.0000
  C   C5671     1.0  0.88989  0.53146  0.81618  1.0000
  C   C5672     1.0  0.95490  0.51660  0.87433  1.0000
  H   H4529     1.0  0.95979  0.51711  0.78675  1.0000
  C   C5673     1.0  0.90781  0.54053  0.84438  1.0000
  C   C5674     1.0  0.96882  0.51439  0.67348  1.0000
  H   H4530     1.0  0.95069  0.50773  0.67514  1.0000
  H   H4531     1.0  0.91560  0.55707  0.90028  1.0000
  S   S764      1.0  0.99390  0.55248  0.69462  1.0000
  H   H4532     1.0  0.95221  0.52734  0.56927  1.0000
  C   C5675     1.0  0.88651  0.51577  0.52994  1.0000
  H   H4533     1.0  0.94602  0.51731  0.71402  1.0000
  H   H4534     1.0  0.94590  0.60719  0.93264  1.0000
  C   C5676     1.0  0.89911  0.54030  0.86817  1.0000
  S   S765      1.0  0.94945  0.52777  0.93909  1.0000
  C   C5677     1.0  0.95786  0.54857  0.82736  1.0000
  C   C5678     1.0  0.96868  0.55475  0.80794  1.0000
  C   C5679     1.0  0.97030  0.55609  0.77831  1.0000
  C   C5680     1.0  0.96103  0.55143  0.76762  1.0000
  C   C5681     1.0  0.95032  0.54503  0.78713  1.0000
  C   C5682     1.0  0.94879  0.54351  0.81670  1.0000
  H   H4535     1.0  0.97857  0.56111  0.76368  1.0000
  H   H4536     1.0  0.94309  0.54135  0.77930  1.0000
  C   C5683     1.0  0.90680  0.52557  0.52519  1.0000
  C   C5684     1.0  0.95777  0.54123  0.53049  1.0000
  C   C5685     1.0  0.95735  0.53625  0.55915  1.0000
  C   C5686     1.0  0.96342  0.54270  0.57502  1.0000
  C   C5687     1.0  0.97000  0.55435  0.56269  1.0000
  C   C5688     1.0  0.97044  0.55931  0.53402  1.0000
  C   C5689     1.0  0.96448  0.55282  0.51803  1.0000
  H   H4537     1.0  0.96281  0.53877  0.59704  1.0000
  H   H4538     1.0  0.97537  0.56831  0.52409  1.0000
  P   P190      1.0  0.93645  0.58242  0.96185  1.0000
  H   H4539     1.0  0.99521  0.56228  0.53077  1.0000
  H   H4540     1.0  0.89426  0.54336  0.48557  1.0000
  H   H4541     1.0  0.77055  0.51892  0.87397  1.0000
  C   C5690     1.0  0.99847  0.52948  0.73540  1.0000
  C   C5691     1.0  0.94397  0.58014  0.92893  1.0000
  C   C5692     1.0  0.87505  0.50442  0.59819  1.0000
  C   C5693     1.0  0.91342  0.55267  0.88441  1.0000
  H   H4542     1.0  0.97554  0.59482  0.97929  1.0000
  H   H4543     1.0  0.98017  0.52678  0.73697  1.0000
  C   C5694     1.0  0.90540  0.51700  0.83567  1.0000
  H   H4544     1.0  0.93683  0.62384  0.92447  1.0000
  H   H4545     1.0  0.91573  0.55568  0.78479  1.0000
  P   P191      1.0  0.90447  0.53169  0.82027  1.0000
  C   C5695     1.0  0.90565  0.53559  0.50714  1.0000
  C   C5696     1.0  0.99870  0.54528  0.54181  1.0000
  C   C5697     1.0  0.98689  0.52917  0.74779  1.0000
  C   C5698     1.0  0.96839  0.51454  0.59908  1.0000
  H   H4546     1.0  0.93112  0.55761  0.85827  1.0000
  H   H4547     1.0  0.96747  0.52219  0.67931  1.0000
  H   H4548     1.0  0.79062  0.52122  0.87922  1.0000
  C   C5699     1.0  0.86715  0.53118  0.81056  1.0000
  C   C5700     1.0  0.94656  0.51574  0.85867  1.0000
  C   C5701     1.0  0.75127  0.50450  0.96384  1.0000
  Fe  Fe380     1.0  0.94211  0.53745  0.90591  1.0000
  H   H4549     1.0  0.98307  0.52929  0.59071  1.0000
  C   C5702     1.0  0.88252  0.50633  0.90805  1.0000
  C   C5703     1.0  0.92751  0.53430  0.74472  1.0000
  C   C5704     1.0  0.87683  0.53871  0.78966  1.0000
  H   H4550     1.0  0.89250  0.50827  0.81716  1.0000
  C   C5705     1.0  0.91899  0.54962  0.77387  1.0000
  C   C5706     1.0  0.87553  0.51919  0.94597  1.0000
  H   H4551     1.0  0.83480  0.50749  0.50117  1.0000
  H   H4552     1.0  0.87271  0.52416  0.96070  1.0000
  H   H4553     1.0  0.94048  0.53872  0.83121  1.0000
  C   C5707     1.0  0.91720  0.56430  0.96680  1.0000
  C   C5708     1.0  0.91931  0.54703  0.84074  1.0000
  C   C5709     1.0  0.90190  0.54648  0.88784  1.0000
  H   H4554     1.0  0.88114  0.51817  0.85560  1.0000
  H   H4555     1.0  0.96491  0.55691  0.49620  1.0000
  H   H4556     1.0  0.96381  0.51670  0.51643  1.0000
  H   H4557     1.0  0.85838  0.51716  0.55132  1.0000
  C   C5710     1.0  0.88815  0.53887  0.79243  1.0000
  H   H4558     1.0  0.91873  0.52268  0.85671  1.0000
  Fe  Fe381     1.0  0.93851  0.53418  0.97194  1.0000
  H   H4559     1.0  0.91625  0.52037  0.77959  1.0000
  C   C5711     1.0  0.91505  0.53743  0.78605  1.0000
  H   H4560     1.0  0.80403  0.51747  0.57357  1.0000
  H   H4561     1.0  0.89023  0.53515  0.87213  1.0000
  C   C5712     1.0  0.93164  0.54644  0.73320  1.0000
  C   C5713     1.0  0.95534  0.51225  0.77436  1.0000
  H   H4562     1.0  0.93088  0.52841  0.73340  1.0000
  C   C5714     1.0  0.98412  0.53249  0.77319  1.0000
  H   H4563     1.0  0.91545  0.62070  0.94291  1.0000
  H   H4564     1.0  0.93834  0.54993  0.71325  1.0000
  H   H4565     1.0  0.89516  0.54608  0.90640  1.0000
  H   H4566     1.0  0.93067  0.56349  0.73880  1.0000
  C   C5715     1.0  0.91924  0.52979  0.77102  1.0000
  H   H4567     1.0  0.91198  0.58419  0.97862  1.0000
  H   H4568     1.0  0.89548  0.54479  0.77601  1.0000
  C   C5716     1.0  0.88009  0.52394  0.83704  1.0000
  H   H4569     1.0  0.97580  0.55874  0.81578  1.0000
  H   H4570     1.0  0.87554  0.54445  0.77132  1.0000
  H   H4571     1.0  0.92617  0.54736  0.82268  1.0000
  Fe  Fe382     1.0  0.91725  0.52855  0.94538  1.0000
  C   C5717     1.0  0.84595  0.51323  0.52710  1.0000
  C   C5718     1.0  0.92213  0.55296  0.86081  1.0000
  S   S766      1.0  0.92702  0.52203  0.91100  1.0000
  H   H4572     1.0  0.96877  0.50982  0.88660  1.0000
  H   H4573     1.0  0.76755  0.50342  0.53569  1.0000
  H   H4574     1.0  0.97528  0.53284  0.78213  1.0000
  Fe  Fe383     1.0  0.98971  0.54132  0.66516  1.0000
  C   C5719     1.0  0.95483  0.57544  0.87843  1.0000
  Fe  Fe384     1.0  0.93376  0.51293  0.94581  1.0000
  H   H4575     1.0  0.91681  0.56925  0.94632  1.0000
  C   C5720     1.0  0.97996  0.51239  0.66863  1.0000
  C   C5721     1.0  0.87061  0.50627  0.91577  1.0000
  H   H4576     1.0  0.96249  0.51831  0.61167  1.0000
  C   C5722     1.0  0.89499  0.53574  0.50043  1.0000
  H   H4577     1.0  0.90312  0.60084  0.96994  1.0000
  C   C5723     1.0  0.98380  0.50423  0.56914  1.0000
  H   H4578     1.0  0.75262  0.50619  0.79661  1.0000
  C   C5724     1.0  0.94263  0.58594  0.90265  1.0000
  H   H4579     1.0  0.89996  0.51273  0.91263  1.0000
  C   C5725     1.0  0.77298  0.51139  0.88490  1.0000
  H   H4580     1.0  0.91519  0.52540  0.52962  1.0000
  H   H4581     1.0  0.87476  0.50650  0.64039  1.0000
  H   H4582     1.0  0.91786  0.50945  0.57107  1.0000
  H   H4583     1.0  0.95138  0.56687  0.94983  1.0000
  C   C5726     1.0  0.93143  0.61513  0.93599  1.0000
  C   C5727     1.0  0.91325  0.51528  0.85250  1.0000
  C   C5728     1.0  0.95323  0.51849  0.74974  1.0000
  H   H4584     1.0  0.76980  0.51168  0.94618  1.0000
  S   S767      1.0  0.99199  0.52287  0.67078  1.0000
  C   C5729     1.0  0.95861  0.58924  0.97161  1.0000
  C   C5730     1.0  0.98009  0.52074  0.58707  1.0000
  H   H4585     1.0  0.85837  0.53106  0.80850  1.0000
  C   C5731     1.0  0.98779  0.51574  0.57121  1.0000
  H   H4586     1.0  0.87752  0.52607  0.50498  1.0000
  C   C5732     1.0  0.86716  0.51269  0.93505  1.0000
  C   C5733     1.0  0.88547  0.52587  0.51161  1.0000
  H   H4587     1.0  0.99101  0.51712  0.51348  1.0000
  C   C5734     1.0  0.91396  0.50393  0.86444  1.0000
  C   C5735     1.0  0.92958  0.59437  0.95541  1.0000
  H   H4588     1.0  0.90243  0.55015  0.96982  1.0000
  C   C5736     1.0  0.94810  0.58362  0.87750  1.0000
  C   C5737     1.0  0.99285  0.53565  0.78680  1.0000
  C   C5738     1.0  0.85580  0.51206  0.53701  1.0000
  C   C5739     1.0  0.94750  0.51245  0.73330  1.0000
  C   C5740     1.0  0.86226  0.50430  0.52861  1.0000
  H   H4589     1.0  0.79041  0.50659  0.55140  1.0000
  S   S768      1.0  0.80281  0.50602  0.90391  1.0000
  H   H4590     1.0  0.85807  0.51280  0.94124  1.0000
  C   C5741     1.0  0.94594  0.50780  0.84191  1.0000
  H   H4591     1.0  0.96103  0.56295  0.90520  1.0000
  H   H4592     1.0  0.99681  0.50506  0.77244  1.0000
  H   H4593     1.0  0.91312  0.54311  0.49767  1.0000
  C   C5742     1.0  0.91244  0.60217  0.96160  1.0000
  H   H4594     1.0  0.94702  0.58806  0.85727  1.0000
  C   C5743     1.0  0.95925  0.50603  0.67184  1.0000
  H   H4595     1.0  0.99066  0.53817  0.80654  1.0000
  C   C5744     1.0  0.79818  0.50904  0.58564  1.0000
  H   H4596     1.0  0.80445  0.50907  0.62328  1.0000
  C   C5745     1.0  0.86880  0.52381  0.83423  1.0000
  C   C5746     1.0  0.93653  0.60568  0.94059  1.0000
  H   H4597     1.0  0.95892  0.57350  0.85900  1.0000
  H   H4598     1.0  0.96234  0.58850  0.95056  1.0000
  H   H4599     1.0  0.97653  0.50647  0.77697  1.0000
  C   C5747     1.0  0.95060  0.57179  0.92970  1.0000
  C   C5748     1.0  0.96115  0.50719  0.52129  1.0000
  C   C5749     1.0  0.95606  0.56953  0.90451  1.0000
  H   H4600     1.0  0.99135  0.54098  0.53510  1.0000
  C   C5750     1.0  0.79838  0.50435  0.61366  1.0000
  C   C5751     1.0  0.75091  0.50480  0.55800  1.0000
  C   C5752     1.0  0.84242  0.50660  0.50892  1.0000
  H   H4601     1.0  0.93165  0.51013  0.60170  1.0000
  C   C5753     1.0  0.91939  0.61337  0.94641  1.0000
  C   C5754     1.0  0.76301  0.50483  0.96219  1.0000
  C   C5755     1.0  0.78800  0.50318  0.90146  1.0000
  C   C5756     1.0  0.89852  0.50719  0.83035  1.0000
  H   H4602     1.0  0.77471  0.50709  0.66401  1.0000
  H   H4603     1.0  0.93952  0.50742  0.82956  1.0000
  C   C5757     1.0  0.96437  0.50330  0.59573  1.0000
  P   P192      1.0  0.87460  0.50254  0.54287  1.0000
  H   H4604     1.0  0.94505  0.50594  0.55098  1.0000
  H   H4605     1.0  0.89840  0.50788  0.54982  1.0000
  H   H4606     1.0  0.91984  0.50264  0.87793  1.0000
  H   H4607     1.0  0.79070  0.50287  0.83643  1.0000
  H   H4608     1.0  0.89919  0.50288  0.96789  1.0000
  C   C5758     1.0  0.79048  0.50283  0.57312  1.0000
  C   C5759     1.0  0.90904  0.55351  0.98002  1.0000
  C   C5760     1.0  0.92587  0.56860  0.97976  1.0000
