data_image0
_chemical_formula_structural       FeS2FeS2FeSFeS3FeS2FeS2FeSFeS3C2HCHC4H2C2HC2HC8H5CHC3H2CH6C3HC5HC2H3CHCH2C6H2C8PC4HCHC3H2CH4CHCH4PCH2C2HCH3CH3CHC3HC2H2C2HC3HC4PH2SH4CH5CHCH2C3HC3HC2H2CHC3PH3CH2SCHC2HC2SC5HC3FeC3H4CH2CSHCH4C3HPHC2H2C4SCH3CHC6PC4HC3H2C8HCH3C2H5C2HCHCHC3H2CHCHCH2SH2C3H3CHCH2CFeS2CSFeSFeS2FeHFeS2CFeS3C2HC7HC2HCH2CH6CHC5H2C3HFeC4H3C3H2CH5PC3H4SH2C3H3C6HC2HCHC5SH2CHC3HC3H2CH3CHC4HCHCHS3PFeSFeCHSCSHFeHFeS2C2HFeHC2HCHC2HC4H4C4H2C2H2CH2C3H3CHFeCH2PH2CHCH3C7HC3H2FeCHC3HC4HSC5H2C2H2C3HCHC5H2SH2C3PHCHCH2CH2SH4CH5CHCHC2SCH4C4HSCPH2CH6CHCHCHC3H3C3H2C3HC4PC5HCHCHC9H5C2HCH2C2HCHC4H5C2H2PHC4HCHCH2C7HC2H4FeC3HC2HCHC2H2CH2CFeSHFeS2FeSFeS3FeS2FeS2FeSFeS3HCHC4HC7H5C3HC4H2C5H2CHCHC2HCHC2HC3HCHC2H2C2H2CHC3H3CHPC2H3C3H3C2PHCHCHCH2C2HCHC4HSC5H2C3HCHCH3CH2C4H2CH3C3HCHC3HCH10CFeS2FeS2FeSFeS3FeS2FeS2FeHFeS3H2CHC4HCHC7HC6H4C8HC13H3CH4CH3PHCPC7PHC3H2CHC2HCH6CHC5HC2H2CPH2CH5CH2CHC4H3CH2CHC2H5C3HCHCH2SH3CH2C3HC3H2CH3C3HC2H2CH2SH2CSC2H2CSH4CH3CHCHCH3CH5C2SCHCFeCHC2HCHC7PC4HC10HCH7CHCH2FeH5CHCHCH2C7PC4HC2HC3HCHC2HC4HFeS2FeSCFeCS2FeSFeS2FeCHS2C2HC7H2C2H2C4HC2HCH2CHC2HC2HC6H2C2FeHC3HCHC4HC3H2CH2CSHCH3C9PC6HSH2CHC4H2CH4CH2SHC2H3CPCH2FeCH3CHCHC2HPCH2C2H2CH6CHCHCH3C5HC2HC3HCHSFeS2FeCH3FeS2HCHC2SC2SCH2C2HC2FeHC2H2CSC8PH2CHCHCHC6SH6C2HC3H4C6HPC2HCFeSHC2PH2CHFeH5C3HC5HCSH3CHSC5H3CHCH6C4H2C3HC2H2SH2C4H2C2HC7HSH2CHCH2C2HC2HCH6C2H3C3H3C2H2C3PC8H2C9HCH5CH2CH8C6PC9H2C3HCHC2SH3CHCH2C3H2C2H2CHCHFeS2FeS2FeSFeS3FeS2FeS2FeSFeS3CHCPC3H2C6H4C6HCHCHCHC2H3C2HCPHCPHCH2C3H2C2HC6H8CHC2HCHC2H2C2HCH2C2H2C2H2CHCH2CH2C4H2CHC2HC8H2C2HCH2CHCH2CHCH3CH5CH2
_chemical_formula_sum              "Fe64 S128 C960 H768 P32"
_cell_length_a       39.2325
_cell_length_b       41.1238
_cell_length_c       40.5547
_cell_angle_alpha    90.0117
_cell_angle_beta     90.0569
_cell_angle_gamma    90.0645

_space_group_name_H-M_alt    "P 1"
_space_group_IT_number       1

loop_
  _space_group_symop_operation_xyz
  'x, y, z'

loop_
  _atom_site_type_symbol
  _atom_site_label
  _atom_site_symmetry_multiplicity
  _atom_site_fract_x
  _atom_site_fract_y
  _atom_site_fract_z
  _atom_site_occupancy
  Fe  Fe1       1.0  0.21612  0.15263  0.41797  1.0000
  S   S1        1.0  0.23189  0.10376  0.39647  1.0000
  S   S2        1.0  0.25633  0.18902  0.43703  1.0000
  Fe  Fe2       1.0  0.14074  0.14253  0.39892  1.0000
  S   S3        1.0  0.15174  0.09422  0.37597  1.0000
  S   S4        1.0  0.08813  0.16585  0.40590  1.0000
  Fe  Fe3       1.0  0.18422  0.08427  0.42067  1.0000
  S   S5        1.0  0.16988  0.03526  0.44386  1.0000
  Fe  Fe4       1.0  0.19855  0.11723  0.35312  1.0000
  S   S6        1.0  0.20720  0.10408  0.29834  1.0000
  S   S7        1.0  0.17094  0.13198  0.44501  1.0000
  S   S8        1.0  0.18508  0.16681  0.37321  1.0000
  Fe  Fe5       1.0  0.30430  0.14359  0.06040  1.0000
  S   S9        1.0  0.28692  0.10331  0.09479  1.0000
  S   S10       1.0  0.26349  0.17135  0.03084  1.0000
  Fe  Fe6       1.0  0.38027  0.13131  0.07643  1.0000
  S   S11       1.0  0.36780  0.09171  0.11239  1.0000
  S   S12       1.0  0.43345  0.14769  0.05950  1.0000
  Fe  Fe7       1.0  0.33059  0.07418  0.07365  1.0000
  S   S13       1.0  0.33338  0.01944  0.06353  1.0000
  Fe  Fe8       1.0  0.32505  0.12382  0.13084  1.0000
  S   S14       1.0  0.31850  0.13589  0.18614  1.0000
  S   S15       1.0  0.34491  0.11256  0.03686  1.0000
  S   S16       1.0  0.34043  0.16526  0.09722  1.0000
  C   C1        1.0  0.18927  0.29985  0.12305  1.0000
  C   C2        1.0  0.19208  0.00557  0.46732  1.0000
  H   H1        1.0  0.22873  0.30153  0.45961  1.0000
  C   C3        1.0  0.39216  0.29295  0.47322  1.0000
  H   H2        1.0  0.40397  0.01402  0.05593  1.0000
  C   C4        1.0  0.19810  0.00229  0.36485  1.0000
  C   C5        1.0  0.47364  0.13326  0.07391  1.0000
  C   C6        1.0  0.47650  0.11199  0.10069  1.0000
  C   C7        1.0  0.26297  0.27663  0.22124  1.0000
  H   H3        1.0  0.45371  0.10337  0.11292  1.0000
  H   H4        1.0  0.47302  0.08821  0.00705  1.0000
  C   C8        1.0  0.44898  0.07925  0.99788  1.0000
  C   C9        1.0  0.15062  0.27674  0.48686  1.0000
  H   H5        1.0  0.43379  0.20948  0.38465  1.0000
  C   C10       1.0  0.01773  0.16280  0.40752  1.0000
  C   C11       1.0  0.48390  0.02061  0.08806  1.0000
  H   H6        1.0  0.19332  0.02534  0.37696  1.0000
  C   C12       1.0  0.22644  0.16248  0.11364  1.0000
  C   C13       1.0  0.20127  0.26027  0.44151  1.0000
  C   C14       1.0  0.23861  0.11323  0.26759  1.0000
  C   C15       1.0  0.23302  0.10302  0.23481  1.0000
  C   C16       1.0  0.25712  0.10938  0.20963  1.0000
  C   C17       1.0  0.28738  0.12598  0.21688  1.0000
  C   C18       1.0  0.29311  0.13591  0.24971  1.0000
  C   C19       1.0  0.26891  0.12979  0.27483  1.0000
  H   H7        1.0  0.20981  0.09010  0.22880  1.0000
  H   H8        1.0  0.25222  0.10153  0.18461  1.0000
  H   H9        1.0  0.31652  0.14847  0.25575  1.0000
  H   H10       1.0  0.27384  0.13762  0.29985  1.0000
  H   H11       1.0  0.34438  0.26138  0.06865  1.0000
  C   C20       1.0  0.25942  0.21430  0.47275  1.0000
  H   H12       1.0  0.30187  0.24103  0.45303  1.0000
  C   C21       1.0  0.04517  0.12036  0.37617  1.0000
  C   C22       1.0  0.04786  0.14830  0.39568  1.0000
  C   C23       1.0  0.42702  0.19653  0.47920  1.0000
  H   H13       1.0  0.06802  0.10918  0.36653  1.0000
  H   H14       1.0  0.01945  0.18445  0.42259  1.0000
  C   C24       1.0  0.43164  0.16988  0.45826  1.0000
  H   H15       1.0  0.43705  0.15381  0.40794  1.0000
  H   H16       1.0  0.08685  0.09924  0.43513  1.0000
  H   H17       1.0  0.25512  0.29770  0.20730  1.0000
  H   H18       1.0  0.42610  0.25677  0.42142  1.0000
  H   H19       1.0  0.43436  0.02209  0.15700  1.0000
  H   H20       1.0  0.27682  0.25444  0.30109  1.0000
  C   C25       1.0  0.45826  0.01832  0.06390  1.0000
  C   C26       1.0  0.28576  0.26442  0.00098  1.0000
  C   C27       1.0  0.24148  0.27647  0.14496  1.0000
  H   H21       1.0  0.02468  0.10065  0.44600  1.0000
  C   C28       1.0  0.25783  0.30660  0.14063  1.0000
  C   C29       1.0  0.01283  0.10721  0.36859  1.0000
  C   C30       1.0  0.43382  0.17452  0.42418  1.0000
  C   C31       1.0  0.24473  0.19081  0.12090  1.0000
  C   C32       1.0  0.44115  0.02050  0.13116  1.0000
  H   H22       1.0  0.12698  0.08576  0.47952  1.0000
  C   C33       1.0  0.36546  0.28362  0.45216  1.0000
  C   C34       1.0  0.10010  0.08701  0.48511  1.0000
  H   H23       1.0  0.28443  0.30955  0.14724  1.0000
  H   H24       1.0  0.24017  0.03068  0.46920  1.0000
  H   H25       1.0  0.31074  0.22692  0.02986  1.0000
  C   C35       1.0  0.38397  0.24024  0.00633  1.0000
  H   H26       1.0  0.26005  0.30231  0.26752  1.0000
  C   C36       1.0  0.20556  0.28746  0.46184  1.0000
  H   H27       1.0  0.16281  0.29717  0.11590  1.0000
  H   H28       1.0  0.38601  0.19353  0.03032  1.0000
  C   C37       1.0  0.14671  0.24925  0.46685  1.0000
  C   C38       1.0  0.41563  0.01739  0.10736  1.0000
  C   C39       1.0  0.28822  0.23352  0.01608  1.0000
  C   C40       1.0  0.47634  0.29972  0.48194  1.0000
  C   C41       1.0  0.39684  0.32605  0.48044  1.0000
  C   C42       1.0  0.26565  0.27938  0.25555  1.0000
  H   H29       1.0  0.05847  0.04823  0.37517  1.0000
  H   H30       1.0  0.10616  0.03246  0.41156  1.0000
  C   C43       1.0  0.05329  0.03517  0.39783  1.0000
  C   C44       1.0  0.01972  0.02796  0.40680  1.0000
  C   C45       1.0  0.36721  0.23027  0.14314  1.0000
  C   C46       1.0  0.37064  0.24198  0.11097  1.0000
  C   C47       1.0  0.34197  0.25299  0.09384  1.0000
  C   C48       1.0  0.30993  0.25248  0.10891  1.0000
  C   C49       1.0  0.30640  0.24169  0.14165  1.0000
  C   C50       1.0  0.33523  0.22991  0.15838  1.0000
  P   P1        1.0  0.26500  0.24228  0.16135  1.0000
  C   C51       1.0  0.24241  0.20499  0.15231  1.0000
  C   C52       1.0  0.26995  0.24688  0.20555  1.0000
  C   C53       1.0  0.27983  0.22011  0.22482  1.0000
  C   C54       1.0  0.28228  0.22290  0.25910  1.0000
  H   H31       1.0  0.12402  0.23427  0.46867  1.0000
  C   C55       1.0  0.43988  0.04633  0.00085  1.0000
  H   H32       1.0  0.32344  0.29963  0.42202  1.0000
  C   C56       1.0  0.20619  0.14780  0.13772  1.0000
  C   C57       1.0  0.20341  0.16194  0.16890  1.0000
  C   C58       1.0  0.22104  0.19064  0.17606  1.0000
  H   H33       1.0  0.38918  0.22053  0.15599  1.0000
  H   H34       1.0  0.39534  0.24151  0.09903  1.0000
  C   C59       1.0  0.22609  0.00942  0.47696  1.0000
  H   H35       1.0  0.28792  0.26032  0.09485  1.0000
  H   H36       1.0  0.33323  0.21988  0.18292  1.0000
  H   H37       1.0  0.28515  0.19685  0.21334  1.0000
  H   H38       1.0  0.28933  0.20195  0.27379  1.0000
  C   C60       1.0  0.42415  0.01627  0.07395  1.0000
  H   H39       1.0  0.36053  0.25816  0.44724  1.0000
  C   C61       1.0  0.28509  0.23825  0.47392  1.0000
  H   H40       1.0  0.19282  0.12538  0.13222  1.0000
  H   H41       1.0  0.18797  0.15040  0.18773  1.0000
  H   H42       1.0  0.21803  0.20128  0.20027  1.0000
  H   H43       1.0  0.29273  0.03295  0.00462  1.0000
  P   P2        1.0  0.46806  0.01714  0.02030  1.0000
  C   C62       1.0  0.04230  0.09510  0.46583  1.0000
  H   H44       1.0  0.21652  0.02472  0.32030  1.0000
  H   H45       1.0  0.26054  0.20148  0.10188  1.0000
  C   C63       1.0  0.43189  0.20589  0.41106  1.0000
  C   C64       1.0  0.27517  0.25249  0.27448  1.0000
  H   H46       1.0  0.22103  0.25351  0.42414  1.0000
  C   C65       1.0  0.01304  0.01070  0.43596  1.0000
  H   H47       1.0  0.01110  0.08594  0.35300  1.0000
  H   H48       1.0  0.39491  0.25311  0.02711  1.0000
  H   H49       1.0  0.19963  0.31277  0.02527  1.0000
  C   C66       1.0  0.20701  0.27329  0.13612  1.0000
  H   H50       1.0  0.38903  0.01639  0.11465  1.0000
  H   H51       1.0  0.22830  0.15164  0.08936  1.0000
  H   H52       1.0  0.16916  0.21959  0.42883  1.0000
  C   C67       1.0  0.17205  0.24103  0.44419  1.0000
  H   H53       1.0  0.46343  0.30894  0.46030  1.0000
  C   C68       1.0  0.07730  0.09432  0.45970  1.0000
  C   C69       1.0  0.42728  0.23260  0.43195  1.0000
  C   C70       1.0  0.42382  0.22798  0.46609  1.0000
  H   H54       1.0  0.19385  0.25031  0.13903  1.0000
  C   C71       1.0  0.26162  0.21104  0.01303  1.0000
  C   C72       1.0  0.08025  0.02629  0.41841  1.0000
  H   H55       1.0  0.09475  0.00492  0.46467  1.0000
  H   H56       1.0  0.43338  0.14557  0.46845  1.0000
  C   C73       1.0  0.34433  0.30708  0.43785  1.0000
  C   C74       1.0  0.37900  0.20665  0.00813  1.0000
  H   H57       1.0  0.30666  0.28143  0.00326  1.0000
  C   C75       1.0  0.30489  0.00957  0.00148  1.0000
  C   C76       1.0  0.47530  0.02188  0.12151  1.0000
  C   C77       1.0  0.07370  0.01066  0.44833  1.0000
  H   H58       1.0  0.49511  0.02456  0.13994  1.0000
  C   C78       1.0  0.04019  0.00284  0.45713  1.0000
  C   C79       1.0  0.21127  0.00192  0.33290  1.0000
  C   C80       1.0  0.18013  0.29604  0.48458  1.0000
  C   C81       1.0  0.20575  0.32972  0.11886  1.0000
  P   P3        1.0  0.41803  0.26240  0.49308  1.0000
  H   H59       1.0  0.10709  0.33060  0.16649  1.0000
  H   H60       1.0  0.36014  0.16231  0.80514  1.0000
  S   S17       1.0  0.27342  0.27791  0.56604  1.0000
  H   H61       1.0  0.23376  0.25055  0.84870  1.0000
  H   H62       1.0  0.21175  0.20288  0.99224  1.0000
  H   H63       1.0  0.18445  0.26237  0.60877  1.0000
  H   H64       1.0  0.40276  0.26697  0.73103  1.0000
  C   C82       1.0  0.25678  0.27327  0.98245  1.0000
  H   H65       1.0  0.26552  0.20586  0.82119  1.0000
  H   H66       1.0  0.21129  0.23711  0.74058  1.0000
  H   H67       1.0  0.29259  0.23638  0.93652  1.0000
  H   H68       1.0  0.46009  0.17705  0.83750  1.0000
  H   H69       1.0  0.37873  0.28317  0.97634  1.0000
  C   C83       1.0  0.24185  0.23118  0.52782  1.0000
  H   H70       1.0  0.33809  0.21843  0.80718  1.0000
  C   C84       1.0  0.29460  0.29951  0.80733  1.0000
  H   H71       1.0  0.20764  0.25713  0.96545  1.0000
  H   H72       1.0  0.11918  0.04498  0.61736  1.0000
  C   C85       1.0  0.05282  0.08149  0.52303  1.0000
  C   C86       1.0  0.39204  0.29065  0.72613  1.0000
  C   C87       1.0  0.23405  0.24673  0.72900  1.0000
  H   H73       1.0  0.31855  0.06699  0.90001  1.0000
  C   C88       1.0  0.21818  0.12578  0.52599  1.0000
  C   C89       1.0  0.34668  0.33031  0.73086  1.0000
  C   C90       1.0  0.12373  0.02864  0.55146  1.0000
  H   H74       1.0  0.22507  0.22818  0.54873  1.0000
  C   C91       1.0  0.29013  0.31094  0.83952  1.0000
  C   C92       1.0  0.26789  0.25478  0.52917  1.0000
  H   H75       1.0  0.24728  0.26523  0.90644  1.0000
  H   H76       1.0  0.04280  0.07621  0.54730  1.0000
  C   C93       1.0  0.21243  0.09441  0.51405  1.0000
  H   H77       1.0  0.38489  0.26711  0.61073  1.0000
  C   C94       1.0  0.23388  0.25418  0.69536  1.0000
  C   C95       1.0  0.23250  0.22004  0.99486  1.0000
  C   C96       1.0  0.34548  0.22123  0.55225  1.0000
  P   P4        1.0  0.11762  0.07217  0.55010  1.0000
  H   H78       1.0  0.21107  0.25020  0.68083  1.0000
  H   H79       1.0  0.06400  0.11642  0.67272  1.0000
  H   H80       1.0  0.31491  0.28188  0.68731  1.0000
  C   C97       1.0  0.31418  0.08816  0.91538  1.0000
  H   H81       1.0  0.05569  0.14922  0.62198  1.0000
  H   H82       1.0  0.35944  0.22959  0.70356  1.0000
  S   S18       1.0  0.33217  0.32076  0.62966  1.0000
  C   C98       1.0  0.47840  0.26441  0.52973  1.0000
  H   H83       1.0  0.42016  0.28212  0.56308  1.0000
  C   C99       1.0  0.18397  0.29264  0.56542  1.0000
  C   C100      1.0  0.26316  0.26679  0.68048  1.0000
  H   H84       1.0  0.17436  0.03122  0.57291  1.0000
  C   C101      1.0  0.26346  0.25197  0.74782  1.0000
  C   C102      1.0  0.34838  0.20927  0.78434  1.0000
  S   S19       1.0  0.43165  0.32134  0.62264  1.0000
  C   C103      1.0  0.10521  0.06766  0.61785  1.0000
  C   C104      1.0  0.07411  0.10793  0.64939  1.0000
  C   C105      1.0  0.23004  0.25089  0.97968  1.0000
  C   C106      1.0  0.01705  0.32154  0.92356  1.0000
  C   C107      1.0  0.06943  0.12640  0.62081  1.0000
  H   H85       1.0  0.19810  0.16528  0.55475  1.0000
  C   C108      1.0  0.08261  0.11555  0.59073  1.0000
  C   C109      1.0  0.23738  0.21131  0.49969  1.0000
  C   C110      1.0  0.15395  0.01553  0.56449  1.0000
  Fe  Fe9       1.0  0.30907  0.32064  0.57862  1.0000
  C   C111      1.0  0.36021  0.21539  0.72608  1.0000
  C   C112      1.0  0.08811  0.08115  0.51713  1.0000
  C   C113      1.0  0.34724  0.29378  0.85347  1.0000
  H   H86       1.0  0.07901  0.13028  0.56883  1.0000
  H   H87       1.0  0.31166  0.17715  0.85086  1.0000
  H   H88       1.0  0.09582  0.06436  0.67009  1.0000
  H   H89       1.0  0.34317  0.12015  0.88449  1.0000
  C   C114      1.0  0.31623  0.30775  0.86270  1.0000
  H   H90       1.0  0.17553  0.27300  0.54973  1.0000
  H   H91       1.0  0.37621  0.27226  0.81416  1.0000
  C   C115      1.0  0.35238  0.23479  0.58311  1.0000
  S   S20       1.0  0.25628  0.31167  0.96187  1.0000
  H   H92       1.0  0.33578  0.22961  0.60379  1.0000
  C   C116      1.0  0.19371  0.14080  0.54582  1.0000
  H   H93       1.0  0.38184  0.13960  0.75255  1.0000
  H   H94       1.0  0.32345  0.20561  0.54903  1.0000
  H   H95       1.0  0.28306  0.06198  0.95026  1.0000
  H   H96       1.0  0.24138  0.13860  0.51941  1.0000
  C   C117      1.0  0.16339  0.12452  0.55357  1.0000
  C   C118      1.0  0.37264  0.16444  0.75352  1.0000
  C   C119      1.0  0.28785  0.11254  0.96329  1.0000
  H   H97       1.0  0.35939  0.05085  0.96910  1.0000
  P   P5        1.0  0.33167  0.26951  0.75663  1.0000
  H   H98       1.0  0.07367  0.01687  0.53202  1.0000
  C   C120      1.0  0.10050  0.08601  0.58900  1.0000
  C   C121      1.0  0.36048  0.17729  0.78316  1.0000
  H   H99       1.0  0.14467  0.13688  0.56849  1.0000
  H   H100      1.0  0.22065  0.31528  0.73939  1.0000
  C   C122      1.0  0.09201  0.07860  0.64790  1.0000
  C   C123      1.0  0.15742  0.09292  0.54166  1.0000
  C   C124      1.0  0.18222  0.07808  0.52183  1.0000
  C   C125      1.0  0.39361  0.25046  0.52881  1.0000
  S   S21       1.0  0.18220  0.31345  0.89198  1.0000
  C   C126      1.0  0.18905  0.28647  0.59902  1.0000
  H   H101      1.0  0.35929  0.21924  0.50121  1.0000
  H   H102      1.0  0.38120  0.17332  0.70181  1.0000
  H   H103      1.0  0.21698  0.19366  0.49880  1.0000
  C   C127      1.0  0.32509  0.28413  0.79821  1.0000
  H   H104      1.0  0.02067  0.29971  0.93802  1.0000
  C   C128      1.0  0.43141  0.15533  0.87710  1.0000
  C   C129      1.0  0.43710  0.17826  0.85226  1.0000
  C   C130      1.0  0.41352  0.20318  0.84700  1.0000
  C   C131      1.0  0.38398  0.20487  0.86623  1.0000
  C   C132      1.0  0.37749  0.18125  0.89040  1.0000
  C   C133      1.0  0.40193  0.15706  0.89639  1.0000
  P   P6        1.0  0.34064  0.18479  0.91668  1.0000
  C   C134      1.0  0.32292  0.14559  0.92704  1.0000
  C   C135      1.0  0.35570  0.20662  0.95253  1.0000
  C   C136      1.0  0.36514  0.18985  0.98131  1.0000
  C   C137      1.0  0.09744  0.00751  0.54155  1.0000
  H   H105      1.0  0.00304  0.08938  0.50218  1.0000
  C   C138      1.0  0.37501  0.25709  0.97769  1.0000
  C   C139      1.0  0.36121  0.24034  0.95077  1.0000
  C   C140      1.0  0.32831  0.11829  0.90685  1.0000
  H   H106      1.0  0.35485  0.25372  0.92862  1.0000
  H   H107      1.0  0.29633  0.16367  0.96987  1.0000
  C   C141      1.0  0.35182  0.28236  0.82123  1.0000
  C   C142      1.0  0.30189  0.14263  0.95478  1.0000
  C   C143      1.0  0.30679  0.20582  0.89532  1.0000
  C   C144      1.0  0.29826  0.19680  0.86295  1.0000
  C   C145      1.0  0.27210  0.21293  0.84611  1.0000
  C   C146      1.0  0.25402  0.23787  0.86164  1.0000
  C   C147      1.0  0.26171  0.24627  0.89417  1.0000
  C   C148      1.0  0.28775  0.23010  0.91108  1.0000
  H   H108      1.0  0.45007  0.13645  0.88174  1.0000
  C   C149      1.0  0.37987  0.25608  0.58694  1.0000
  H   H109      1.0  0.41833  0.22136  0.82822  1.0000
  H   H110      1.0  0.36643  0.22480  0.86255  1.0000
  H   H111      1.0  0.39840  0.13970  0.91615  1.0000
  C   C150      1.0  0.37234  0.18344  0.72495  1.0000
  C   C151      1.0  0.29269  0.26544  0.73326  1.0000
  H   H112      1.0  0.36782  0.29223  0.87121  1.0000
  H   H113      1.0  0.13053  0.28305  0.50400  1.0000
  H   H114      1.0  0.26323  0.27245  0.65432  1.0000
  H   H115      1.0  0.25717  0.32634  0.51768  1.0000
  H   H116      1.0  0.26329  0.24567  0.77371  1.0000
  C   C152      1.0  0.29243  0.27238  0.69934  1.0000
  C   C153      1.0  0.34893  0.22882  0.75598  1.0000
  H   H117      1.0  0.36217  0.16380  0.98319  1.0000
  C   C154      1.0  0.20094  0.31113  0.61983  1.0000
  H   H118      1.0  0.46713  0.24612  0.54553  1.0000
  C   C155      1.0  0.29410  0.08527  0.94369  1.0000
  H   H119      1.0  0.43662  0.30665  0.69935  1.0000
  C   C156      1.0  0.35899  0.29880  0.73659  1.0000
  C   C157      1.0  0.40015  0.26425  0.55984  1.0000
  C   C158      1.0  0.38470  0.05871  0.97633  1.0000
  H   H120      1.0  0.37602  0.10863  0.96362  1.0000
  H   H121      1.0  0.27430  0.30310  0.78969  1.0000
  C   C159      1.0  0.39416  0.09126  0.97316  1.0000
  H   H122      1.0  0.20518  0.30639  0.64577  1.0000
  C   C160      1.0  0.46031  0.27705  0.50272  1.0000
  H   H123      1.0  0.27198  0.11053  0.98513  1.0000
  C   C161      1.0  0.19074  0.32362  0.55241  1.0000
  H   H124      1.0  0.31244  0.31663  0.88765  1.0000
  H   H125      1.0  0.42567  0.19253  0.50558  1.0000
  S   S22       1.0  0.08723  0.32472  0.92314  1.0000
  H   H126      1.0  0.26638  0.32257  0.84643  1.0000
  H   H127      1.0  0.50013  0.30755  0.64361  1.0000
  C   C162      1.0  0.36588  0.22911  0.52516  1.0000
  C   C163      1.0  0.28913  0.25859  0.50175  1.0000
  C   C164      1.0  0.41164  0.31323  0.70861  1.0000
  H   H128      1.0  0.17794  0.05408  0.51186  1.0000
  H   H129      1.0  0.30912  0.27671  0.50232  1.0000
  H   H130      1.0  0.23108  0.08294  0.49818  1.0000
  C   C165      1.0  0.40727  0.03641  0.99031  1.0000
  H   H131      1.0  0.43282  0.12717  0.98335  1.0000
  C   C166      1.0  0.42615  0.10159  0.98413  1.0000
  H   H132      1.0  0.39864  0.01159  0.99365  1.0000
  H   H133      1.0  0.27948  0.99889  0.95543  1.0000
  C   C167      1.0  0.03010  0.08861  0.49747  1.0000
  Fe  Fe10      1.0  0.38457  0.61857  0.38620  1.0000
  S   S23       1.0  0.34555  0.57828  0.38192  1.0000
  S   S24       1.0  0.43874  0.60606  0.36943  1.0000
  C   C168      1.0  0.21215  0.63349  0.37244  1.0000
  S   S25       1.0  0.28931  0.62916  0.41064  1.0000
  Fe  Fe11      1.0  0.32785  0.59427  0.43204  1.0000
  S   S26       1.0  0.31386  0.56558  0.47855  1.0000
  Fe  Fe12      1.0  0.31043  0.61645  0.36032  1.0000
  S   S27       1.0  0.27576  0.60224  0.31644  1.0000
  S   S28       1.0  0.36862  0.63241  0.43740  1.0000
  Fe  Fe13      1.0  0.20104  0.63809  0.12941  1.0000
  H   H134      1.0  0.26947  0.58881  0.03682  1.0000
  Fe  Fe14      1.0  0.19645  0.58683  0.07327  1.0000
  S   S29       1.0  0.15678  0.61469  0.04522  1.0000
  S   S30       1.0  0.21505  0.53610  0.05865  1.0000
  C   C169      1.0  0.28001  0.36790  0.49457  1.0000
  Fe  Fe15      1.0  0.13184  0.62259  0.09461  1.0000
  S   S31       1.0  0.07673  0.60732  0.10633  1.0000
  S   S32       1.0  0.23057  0.63051  0.08202  1.0000
  S   S33       1.0  0.17034  0.59231  0.12244  1.0000
  C   C170      1.0  0.03588  0.62273  0.09517  1.0000
  C   C171      1.0  0.37590  0.34948  0.46578  1.0000
  H   H135      1.0  0.24201  0.40866  0.03343  1.0000
  C   C172      1.0  0.11622  0.44124  0.06003  1.0000
  C   C173      1.0  0.26297  0.61890  0.27742  1.0000
  C   C174      1.0  0.11209  0.36065  0.12319  1.0000
  C   C175      1.0  0.03173  0.64981  0.07468  1.0000
  C   C176      1.0  0.24053  0.64298  0.21486  1.0000
  C   C177      1.0  0.23326  0.61100  0.22439  1.0000
  C   C178      1.0  0.24423  0.59919  0.25543  1.0000
  H   H136      1.0  0.21911  0.59534  0.20788  1.0000
  C   C179      1.0  0.02290  0.36806  0.05427  1.0000
  C   C180      1.0  0.47898  0.61837  0.38537  1.0000
  H   H137      1.0  0.33303  0.35822  0.43381  1.0000
  C   C181      1.0  0.16072  0.38338  0.04887  1.0000
  H   H138      1.0  0.17159  0.41456  0.17685  1.0000
  H   H139      1.0  0.23198  0.47211  0.03617  1.0000
  C   C182      1.0  0.41945  0.53029  0.40663  1.0000
  H   H140      1.0  0.05395  0.66215  0.06505  1.0000
  H   H141      1.0  0.29243  0.53357  0.02903  1.0000
  H   H142      1.0  0.36617  0.45770  0.46039  1.0000
  H   H143      1.0  0.13911  0.34247  0.45238  1.0000
  H   H144      1.0  0.49599  0.50488  0.38154  1.0000
  H   H145      1.0  0.10325  0.53387  0.04469  1.0000
  C   C183      1.0  0.34382  0.50507  0.46777  1.0000
  H   H146      1.0  0.35200  0.51444  0.44414  1.0000
  C   C184      1.0  0.20160  0.62871  0.40495  1.0000
  C   C185      1.0  0.05256  0.38244  0.06676  1.0000
  C   C186      1.0  0.19653  0.33829  0.03140  1.0000
  C   C187      1.0  0.00658  0.60703  0.10745  1.0000
  C   C188      1.0  0.27019  0.65096  0.26796  1.0000
  H   H147      1.0  0.44998  0.48043  0.48195  1.0000
  H   H148      1.0  0.24864  0.35027  0.01997  1.0000
  C   C189      1.0  0.11840  0.35236  0.15610  1.0000
  C   C190      1.0  0.27445  0.39668  0.47712  1.0000
  C   C191      1.0  0.20565  0.51553  0.02112  1.0000
  H   H149      1.0  0.08538  0.37265  0.44488  1.0000
  Fe  Fe16      1.0  0.18905  0.65899  0.05696  1.0000
  C   C192      1.0  0.44663  0.61684  0.49389  1.0000
  C   C193      1.0  0.14859  0.40791  0.12906  1.0000
  C   C194      1.0  0.32502  0.52496  0.48900  1.0000
  C   C195      1.0  0.21726  0.48346  0.01680  1.0000
  H   H150      1.0  0.05132  0.39615  0.08953  1.0000
  H   H151      1.0  0.41135  0.54406  0.38526  1.0000
  H   H152      1.0  0.47075  0.61774  0.48097  1.0000
  C   C196      1.0  0.42994  0.47855  0.43293  1.0000
  C   C197      1.0  0.35186  0.47292  0.47709  1.0000
  C   C198      1.0  0.48212  0.64077  0.41117  1.0000
  H   H153      1.0  0.14466  0.36534  0.20094  1.0000
  H   H154      1.0  0.23710  0.42829  0.45528  1.0000
  C   C199      1.0  0.43024  0.54655  0.43510  1.0000
  H   H155      1.0  0.44934  0.38204  0.45701  1.0000
  H   H156      1.0  0.09100  0.51058  0.09961  1.0000
  H   H157      1.0  0.18824  0.39399  0.47100  1.0000
  H   H158      1.0  0.21752  0.61271  0.35683  1.0000
  H   H159      1.0  0.01668  0.49289  0.02386  1.0000
  P   P7        1.0  0.12144  0.39809  0.06646  1.0000
  C   C200      1.0  0.05469  0.34775  0.00760  1.0000
  C   C201      1.0  0.08362  0.37919  0.04989  1.0000
  C   C202      1.0  0.41899  0.49637  0.40562  1.0000
  H   H160      1.0  0.19902  0.60424  0.41454  1.0000
  H   H161      1.0  0.41000  0.48404  0.38365  1.0000
  H   H162      1.0  0.23835  0.57442  0.26235  1.0000
  H   H163      1.0  0.37936  0.37497  0.47162  1.0000
  S   S34       1.0  0.35054  0.65560  0.36163  1.0000
  H   H164      1.0  0.42935  0.45224  0.43231  1.0000
  H   H165      1.0  0.29580  0.41220  0.47071  1.0000
  C   C203      1.0  0.09939  0.49475  0.07981  1.0000
  C   C204      1.0  0.50046  0.56134  0.49364  1.0000
  C   C205      1.0  0.15479  0.39959  0.16195  1.0000
  H   H166      1.0  0.18661  0.42983  0.05235  1.0000
  H   H167      1.0  0.13080  0.43936  0.00852  1.0000
  H   H168      1.0  0.30955  0.65133  0.48319  1.0000
  C   C206      1.0  0.19527  0.65547  0.42522  1.0000
  C   C207      1.0  0.11687  0.48772  0.02313  1.0000
  C   C208      1.0  0.44113  0.52882  0.46270  1.0000
  C   C209      1.0  0.10613  0.50793  0.04877  1.0000
  C   C210      1.0  0.12819  0.35534  0.47316  1.0000
  C   C211      1.0  0.08428  0.36253  0.01968  1.0000
  H   H169      1.0  0.16117  0.42908  0.11870  1.0000
  C   C212      1.0  0.18886  0.40431  0.04614  1.0000
  C   C213      1.0  0.13966  0.37186  0.17549  1.0000
  H   H170      1.0  0.10734  0.36107  0.00509  1.0000
  C   C214      1.0  0.02403  0.35051  0.02480  1.0000
  H   H171      1.0  0.43034  0.57291  0.43530  1.0000
  C   C215      1.0  0.09777  0.37252  0.46878  1.0000
  C   C216      1.0  0.24131  0.40575  0.46852  1.0000
  C   C217      1.0  0.12202  0.45453  0.02867  1.0000
  C   C218      1.0  0.12671  0.38881  0.10961  1.0000
  C   C219      1.0  0.46424  0.39803  0.47261  1.0000
  S   S35       1.0  0.22685  0.65958  0.17609  1.0000
  H   H172      1.0  0.09786  0.45167  0.10941  1.0000
  H   H173      1.0  0.17821  0.55488  0.99860  1.0000
  C   C220      1.0  0.10384  0.46142  0.08534  1.0000
  H   H174      1.0  0.25281  0.35618  0.12405  1.0000
  C   C221      1.0  0.22045  0.39234  0.03585  1.0000
  C   C222      1.0  0.22424  0.35941  0.02835  1.0000
  C   C223      1.0  0.16496  0.35010  0.04204  1.0000
  H   H175      1.0  0.18759  0.65179  0.45060  1.0000
  C   C224      1.0  0.44132  0.49468  0.46123  1.0000
  C   C225      1.0  0.21365  0.38618  0.47757  1.0000
  C   C226      1.0  0.21677  0.66497  0.36023  1.0000
  H   H176      1.0  0.45944  0.65091  0.42227  1.0000
  H   H177      1.0  0.00949  0.58610  0.12336  1.0000
  C   C227      1.0  0.28542  0.54799  0.00771  1.0000
  H   H178      1.0  0.00698  0.54160  0.05822  1.0000
  H   H179      1.0  0.09635  0.34474  0.10829  1.0000
  H   H180      1.0  0.49987  0.46427  0.42600  1.0000
  C   C228      1.0  0.34967  0.34002  0.44452  1.0000
  H   H181      1.0  0.19211  0.35023  0.10863  1.0000
  C   C229      1.0  0.49640  0.40874  0.46237  1.0000
  C   C230      1.0  0.27218  0.57919  0.01212  1.0000
  C   C231      1.0  0.25895  0.66286  0.23700  1.0000
  C   C232      1.0  0.24000  0.33308  0.12761  1.0000
  H   H182      1.0  0.14408  0.33315  0.04518  1.0000
  C   C233      1.0  0.08336  0.38946  0.49517  1.0000
  H   H183      1.0  0.05979  0.40277  0.49176  1.0000
  C   C234      1.0  0.21904  0.35733  0.49542  1.0000
  H   H184      1.0  0.12171  0.49790  0.99902  1.0000
  S   S36       1.0  0.28899  0.37198  0.58317  1.0000
  S   S37       1.0  0.20931  0.33963  0.80481  1.0000
  S   S38       1.0  0.36416  0.39260  0.61272  1.0000
  P   P8        1.0  0.45629  0.54961  0.49914  1.0000
  Fe  Fe17      1.0  0.31461  0.37249  0.63320  1.0000
  S   S39       1.0  0.29272  0.39562  0.68041  1.0000
  Fe  Fe18      1.0  0.33985  0.38790  0.56263  1.0000
  C   C235      1.0  0.31072  0.61720  0.88211  1.0000
  H   H185      1.0  0.20889  0.37211  0.56396  1.0000
  S   S40       1.0  0.23235  0.37721  0.89626  1.0000
  C   C236      1.0  0.28864  0.62985  0.90612  1.0000
  S   S41       1.0  0.15196  0.38567  0.87428  1.0000
  H   H186      1.0  0.29997  0.52746  0.53623  1.0000
  Fe  Fe19      1.0  0.19703  0.35516  0.85839  1.0000
  H   H187      1.0  0.21918  0.44142  0.98453  1.0000
  Fe  Fe20      1.0  0.18642  0.40507  0.91464  1.0000
  S   S42       1.0  0.18221  0.45985  0.92480  1.0000
  S   S43       1.0  0.17151  0.36679  0.95146  1.0000
  C   C237      1.0  0.19146  0.48060  0.96225  1.0000
  C   C238      1.0  0.18033  0.51289  0.96631  1.0000
  H   H188      1.0  0.16584  0.52441  0.94686  1.0000
  Fe  Fe21      1.0  0.21489  0.33705  0.93068  1.0000
  H   H189      1.0  0.25322  0.33559  0.69089  1.0000
  C   C239      1.0  0.30272  0.65771  0.50826  1.0000
  C   C240      1.0  0.43787  0.48209  0.58878  1.0000
  H   H190      1.0  0.49022  0.49136  0.60165  1.0000
  C   C241      1.0  0.06580  0.41770  0.95510  1.0000
  H   H191      1.0  0.45151  0.36019  0.56522  1.0000
  C   C242      1.0  0.25265  0.34956  0.71344  1.0000
  C   C243      1.0  0.07045  0.47602  0.94938  1.0000
  H   H192      1.0  0.41155  0.64520  0.60789  1.0000
  C   C244      1.0  0.26974  0.37941  0.71485  1.0000
  C   C245      1.0  0.23260  0.35609  0.77063  1.0000
  C   C246      1.0  0.24992  0.38583  0.77213  1.0000
  C   C247      1.0  0.26811  0.39746  0.74438  1.0000
  H   H193      1.0  0.24912  0.40001  0.79458  1.0000
  H   H194      1.0  0.28106  0.42065  0.74583  1.0000
  H   H195      1.0  0.06243  0.38071  0.88487  1.0000
  H   H196      1.0  0.35660  0.37704  0.70882  1.0000
  C   C248      1.0  0.43251  0.58707  0.50429  1.0000
  C   C249      1.0  0.32265  0.48016  0.52896  1.0000
  C   C250      1.0  0.28872  0.53517  0.97599  1.0000
  C   C251      1.0  0.03647  0.47944  0.95924  1.0000
  H   H197      1.0  0.32150  0.33729  0.73920  1.0000
  H   H198      1.0  0.50122  0.52617  0.55366  1.0000
  C   C252      1.0  0.47438  0.35215  0.57768  1.0000
  C   C253      1.0  0.44970  0.52289  0.53424  1.0000
  H   H199      1.0  0.08823  0.40243  0.54643  1.0000
  H   H200      1.0  0.02534  0.50352  0.95999  1.0000
  C   C254      1.0  0.34144  0.46030  0.50772  1.0000
  H   H201      1.0  0.01722  0.39919  0.96978  1.0000
  H   H202      1.0  0.39781  0.51058  0.52051  1.0000
  C   C255      1.0  0.22117  0.57472  0.82701  1.0000
  C   C256      1.0  0.23413  0.33813  0.74103  1.0000
  C   C257      1.0  0.29786  0.65834  0.92303  1.0000
  H   H203      1.0  0.41370  0.36143  0.68790  1.0000
  H   H204      1.0  0.30493  0.59446  0.86985  1.0000
  H   H205      1.0  0.31441  0.47081  0.55259  1.0000
  C   C258      1.0  0.47177  0.33308  0.60612  1.0000
  H   H206      1.0  0.25103  0.62148  0.98900  1.0000
  Fe  Fe22      1.0  0.13966  0.34585  0.91022  1.0000
  C   C259      1.0  0.16309  0.64495  0.95741  1.0000
  H   H207      1.0  0.35740  0.61594  0.53479  1.0000
  H   H208      1.0  0.29874  0.51086  0.97266  1.0000
  P   P9        1.0  0.25065  0.60802  0.91785  1.0000
  H   H209      1.0  0.21723  0.54395  0.91723  1.0000
  H   H210      1.0  0.19652  0.52936  0.81463  1.0000
  C   C260      1.0  0.20300  0.34814  0.57348  1.0000
  H   H211      1.0  0.05546  0.33443  0.98459  1.0000
  C   C261      1.0  0.23467  0.59395  0.85236  1.0000
  H   H212      1.0  0.19034  0.59976  0.95913  1.0000
  H   H213      1.0  0.22152  0.58342  0.80180  1.0000
  H   H214      1.0  0.08548  0.49723  0.94296  1.0000
  C   C262      1.0  0.47595  0.51636  0.55694  1.0000
  C   C263      1.0  0.26140  0.59738  0.98495  1.0000
  C   C264      1.0  0.21908  0.55263  0.89213  1.0000
  C   C265      1.0  0.03177  0.42097  0.96488  1.0000
  C   C266      1.0  0.41209  0.48730  0.56563  1.0000
  C   C267      1.0  0.04067  0.36702  0.89359  1.0000
  C   C268      1.0  0.41800  0.50744  0.53847  1.0000
  H   H215      1.0  0.38756  0.47538  0.56847  1.0000
  C   C269      1.0  0.34953  0.66228  0.89074  1.0000
  C   C270      1.0  0.46991  0.49628  0.58421  1.0000
  C   C271      1.0  0.34095  0.63355  0.87427  1.0000
  H   H216      1.0  0.43994  0.63488  0.83250  1.0000
  H   H217      1.0  0.27147  0.61525  0.51504  1.0000
  Fe  Fe23      1.0  0.37982  0.34061  0.60582  1.0000
  C   C272      1.0  0.00730  0.37751  0.88611  1.0000
  H   H218      1.0  0.19428  0.51003  0.87255  1.0000
  C   C273      1.0  0.23464  0.58258  0.88501  1.0000
  C   C274      1.0  0.39771  0.64584  0.51510  1.0000
  C   C275      1.0  0.25246  0.34831  0.50370  1.0000
  H   H219      1.0  0.07705  0.39374  0.95271  1.0000
  C   C276      1.0  0.08511  0.44516  0.94733  1.0000
  C   C277      1.0  0.09937  0.38925  0.52596  1.0000
  C   C278      1.0  0.21002  0.46600  0.98764  1.0000
  C   C279      1.0  0.14439  0.35489  0.50408  1.0000
  H   H220      1.0  0.43325  0.46628  0.60972  1.0000
  S   S44       1.0  0.35329  0.41989  0.51822  1.0000
  C   C280      1.0  0.27854  0.55349  0.94867  1.0000
  C   C281      1.0  0.47064  0.42822  0.52338  1.0000
  C   C282      1.0  0.40002  0.58709  0.51886  1.0000
  C   C283      1.0  0.42944  0.64605  0.49957  1.0000
  C   C284      1.0  0.26385  0.58434  0.95304  1.0000
  H   H221      1.0  0.28177  0.54332  0.92426  1.0000
  H   H222      1.0  0.38738  0.56475  0.52553  1.0000
  C   C285      1.0  0.31456  0.51231  0.51963  1.0000
  C   C286      1.0  0.38280  0.61635  0.52431  1.0000
  H   H223      1.0  0.46096  0.43479  0.54741  1.0000
  H   H224      1.0  0.11133  0.44246  0.93931  1.0000
  C   C287      1.0  0.12976  0.37205  0.53046  1.0000
  C   C288      1.0  0.28110  0.63743  0.52620  1.0000
  C   C289      1.0  0.18990  0.62416  0.94909  1.0000
  H   H225      1.0  0.24499  0.61769  0.84654  1.0000
  C   C290      1.0  0.21621  0.63507  0.92843  1.0000
  H   H226      1.0  0.14160  0.37226  0.55454  1.0000
  C   C291      1.0  0.20571  0.53341  0.86679  1.0000
  C   C292      1.0  0.01682  0.45192  0.96726  1.0000
  C   C293      1.0  0.36652  0.35292  0.71370  1.0000
  C   C294      1.0  0.39877  0.34425  0.70216  1.0000
  C   C295      1.0  0.20693  0.54435  0.83421  1.0000
  H   H227      1.0  0.35795  0.62371  0.85577  1.0000
  H   H228      1.0  0.21783  0.36085  0.62310  1.0000
  S   S45       1.0  0.35808  0.33632  0.55476  1.0000
  H   H229      1.0  0.25526  0.62994  0.57231  1.0000
  H   H230      1.0  0.30567  0.36115  0.50171  1.0000
  C   C296      1.0  0.27208  0.64572  0.55842  1.0000
  C   C297      1.0  0.20797  0.34192  0.60704  1.0000
  C   C298      1.0  0.04577  0.33888  0.91232  1.0000
  P   P10       1.0  0.18370  0.33258  0.50925  1.0000
  H   H231      1.0  0.14338  0.63682  0.97419  1.0000
  C   C299      1.0  0.18725  0.53024  0.99561  1.0000
  H   H232      1.0  0.00372  0.39932  0.87162  1.0000
  C   C300      1.0  0.45134  0.40784  0.50312  1.0000
  H   H233      1.0  0.42652  0.39948  0.51134  1.0000
  H   H234      1.0  0.35521  0.66342  0.58899  1.0000
  C   C301      1.0  0.43560  0.65972  0.84037  1.0000
  H   H235      1.0  0.46085  0.65327  0.88720  1.0000
  H   H236      1.0  0.41598  0.33375  0.49807  1.0000
  S   S46       1.0  0.32445  0.71802  0.43269  1.0000
  H   H237      1.0  0.30962  0.77995  0.46173  1.0000
  H   H238      1.0  0.34934  0.77943  0.35781  1.0000
  H   H239      1.0  0.43507  0.90083  0.02694  1.0000
  H   H240      1.0  0.24177  0.75582  0.29988  1.0000
  C   C302      1.0  0.20164  0.84236  0.10462  1.0000
  H   H241      1.0  0.22236  0.76256  0.42793  1.0000
  H   H242      1.0  0.25024  0.86736  0.10689  1.0000
  H   H243      1.0  0.12609  0.87444  0.35939  1.0000
  H   H244      1.0  0.21598  0.92039  0.32094  1.0000
  H   H245      1.0  0.16814  0.80296  0.29398  1.0000
  C   C303      1.0  0.29073  0.82904  0.00717  1.0000
  H   H246      1.0  0.23517  0.86517  0.34900  1.0000
  C   C304      1.0  0.15427  0.77010  0.37622  1.0000
  H   H247      1.0  0.47751  0.83176  0.06244  1.0000
  C   C305      1.0  0.28941  0.73155  0.45673  1.0000
  C   C306      1.0  0.18048  0.79304  0.05559  1.0000
  S   S47       1.0  0.19549  0.70003  0.01875  1.0000
  C   C307      1.0  0.24187  0.91951  0.42969  1.0000
  H   H248      1.0  0.22659  0.82053  0.30915  1.0000
  H   H249      1.0  0.44037  0.66876  0.49108  1.0000
  H   H250      1.0  0.12969  0.81579  0.44225  1.0000
  H   H251      1.0  0.22802  0.97209  0.29254  1.0000
  C   C308      1.0  0.46310  0.83167  0.01119  1.0000
  C   C309      1.0  0.24332  0.74945  0.08401  1.0000
  C   C310      1.0  0.16277  0.76734  0.07076  1.0000
  C   C311      1.0  0.13541  0.75236  0.05468  1.0000
  H   H252      1.0  0.21688  0.70503  0.49440  1.0000
  S   S48       1.0  0.16080  0.66909  0.10454  1.0000
  C   C312      1.0  0.25785  0.72389  0.10179  1.0000
  P   P11       1.0  0.21266  0.73279  0.36322  1.0000
  H   H253      1.0  0.22670  0.74376  0.24226  1.0000
  H   H254      1.0  0.39130  0.78162  0.48484  1.0000
  C   C313      1.0  0.21292  0.89067  0.13749  1.0000
  H   H255      1.0  0.24341  0.79713  0.37551  1.0000
  H   H256      1.0  0.21500  0.87617  0.04546  1.0000
  H   H257      1.0  0.01175  0.94178  0.43769  1.0000
  H   H258      1.0  0.07014  0.92375  0.46748  1.0000
  H   H259      1.0  0.12268  0.73181  0.06604  1.0000
  H   H260      1.0  0.26025  0.70009  0.09055  1.0000
  C   C314      1.0  0.27048  0.81391  0.03109  1.0000
  H   H261      1.0  0.11807  0.83029  0.31898  1.0000
  C   C315      1.0  0.27525  0.87855  0.45805  1.0000
  H   H262      1.0  0.14464  0.76219  0.35256  1.0000
  C   C316      1.0  0.19114  0.97308  0.38120  1.0000
  H   H263      1.0  0.18619  0.79768  0.46254  1.0000
  C   C317      1.0  0.25620  0.74725  0.36318  1.0000
  C   C318      1.0  0.23632  0.86281  0.03532  1.0000
  C   C319      1.0  0.22411  0.86673  0.11554  1.0000
  H   H264      1.0  0.27599  0.78899  0.03778  1.0000
  H   H265      1.0  0.26914  0.68558  0.01890  1.0000
  H   H266      1.0  0.24715  0.80829  0.14310  1.0000
  C   C320      1.0  0.21034  0.73544  0.26207  1.0000
  C   C321      1.0  0.44058  0.92120  0.01088  1.0000
  C   C322      1.0  0.29693  0.79174  0.36772  1.0000
  H   H267      1.0  0.28180  0.93013  0.46460  1.0000
  H   H268      1.0  0.03548  0.99077  0.48042  1.0000
  C   C323      1.0  0.18181  0.71643  0.25469  1.0000
  C   C324      1.0  0.23899  0.78011  0.09854  1.0000
  C   C325      1.0  0.09398  0.93421  0.42067  1.0000
  H   H269      1.0  0.26188  0.82882  0.44757  1.0000
  C   C326      1.0  0.34174  0.96707  0.02195  1.0000
  C   C327      1.0  0.14793  0.89599  0.44359  1.0000
  C   C328      1.0  0.15030  0.91090  0.41247  1.0000
  C   C329      1.0  0.12287  0.92970  0.40100  1.0000
  P   P12       1.0  0.18776  0.90541  0.38703  1.0000
  C   C330      1.0  0.19731  0.94310  0.36573  1.0000
  C   C331      1.0  0.22295  0.89509  0.41382  1.0000
  C   C332      1.0  0.23022  0.86231  0.42070  1.0000
  C   C333      1.0  0.15705  0.86569  0.13878  1.0000
  C   C334      1.0  0.32329  0.77073  0.35880  1.0000
  H   H270      1.0  0.35850  0.95774  0.04089  1.0000
  C   C335      1.0  0.17937  0.89021  0.14904  1.0000
  H   H271      1.0  0.43976  0.81810  0.01520  1.0000
  C   C336      1.0  0.26356  0.77443  0.49038  1.0000
  H   H272      1.0  0.23025  0.90971  0.14538  1.0000
  C   C337      1.0  0.20992  0.69213  0.38026  1.0000
  C   C338      1.0  0.21077  0.94294  0.33360  1.0000
  C   C339      1.0  0.18126  0.87298  0.35747  1.0000
  C   C340      1.0  0.14826  0.86298  0.34866  1.0000
  C   C341      1.0  0.14360  0.83790  0.32572  1.0000
  C   C342      1.0  0.17180  0.82251  0.31159  1.0000
  C   C343      1.0  0.20471  0.83237  0.32018  1.0000
  C   C344      1.0  0.20946  0.85761  0.34286  1.0000
  C   C345      1.0  0.19786  0.77049  0.41854  1.0000
  H   H273      1.0  0.18098  0.97398  0.40596  1.0000
  H   H274      1.0  0.07324  0.94922  0.41181  1.0000
  H   H275      1.0  0.16856  0.88129  0.45314  1.0000
  H   H276      1.0  0.12401  0.94127  0.37702  1.0000
  H   H277      1.0  0.21515  0.84304  0.40990  1.0000
  C   C346      1.0  0.25651  0.85412  0.44240  1.0000
  C   C347      1.0  0.13399  0.79035  0.39585  1.0000
  H   H278      1.0  0.27882  0.70859  0.14833  1.0000
  C   C348      1.0  0.17441  0.97743  0.47711  1.0000
  H   H279      1.0  0.17049  0.75833  0.09472  1.0000
  H   H280      1.0  0.15410  0.70089  0.33246  1.0000
  C   C349      1.0  0.26346  0.78020  0.36942  1.0000
  C   C350      1.0  0.26258  0.71084  0.46535  1.0000
  H   H281      1.0  0.13106  0.86529  0.14778  1.0000
  C   C351      1.0  0.18650  0.76016  0.38734  1.0000
  H   H282      1.0  0.23458  0.74508  0.05915  1.0000
  C   C352      1.0  0.17746  0.79047  0.43818  1.0000
  C   C353      1.0  0.14559  0.80055  0.42679  1.0000
  C   C354      1.0  0.17003  0.80374  0.02428  1.0000
  C   C355      1.0  0.31616  0.73825  0.35152  1.0000
  H   H283      1.0  0.10473  0.75073  0.01072  1.0000
  H   H284      1.0  0.17628  0.70999  0.22926  1.0000
  H   H285      1.0  0.26482  0.68760  0.23004  1.0000
  H   H286      1.0  0.26202  0.68626  0.45592  1.0000
  H   H287      1.0  0.15042  0.82301  0.10912  1.0000
  C   C356      1.0  0.16813  0.84175  0.11674  1.0000
  C   C357      1.0  0.24327  0.83081  0.04560  1.0000
  H   H288      1.0  0.10904  0.79782  0.38728  1.0000
  H   H289      1.0  0.23605  0.94497  0.42601  1.0000
  P   P13       1.0  0.21648  0.81160  0.07624  1.0000
  H   H290      1.0  0.17069  0.90891  0.16589  1.0000
  C   C358      1.0  0.23702  0.72156  0.48720  1.0000
  C   C359      1.0  0.28283  0.72637  0.35403  1.0000
  C   C360      1.0  0.26797  0.91119  0.45163  1.0000
  C   C361      1.0  0.28930  0.76361  0.46875  1.0000
  H   H291      1.0  0.33671  0.72207  0.34469  1.0000
  C   C362      1.0  0.09218  0.91988  0.45189  1.0000
  H   H292      1.0  0.30251  0.81692  0.37341  1.0000
  C   C363      1.0  0.12541  0.76293  0.02341  1.0000
  H   H293      1.0  0.18327  0.82325  0.01181  1.0000
  H   H294      1.0  0.45368  0.95319  0.05073  1.0000
  C   C364      1.0  0.19867  0.72976  0.32073  1.0000
  C   C365      1.0  0.25019  0.78502  0.13110  1.0000
  C   C366      1.0  0.26483  0.75937  0.14887  1.0000
  C   C367      1.0  0.26839  0.72875  0.13431  1.0000
  C   C368      1.0  0.21767  0.97225  0.31731  1.0000
  C   C369      1.0  0.21877  0.74215  0.29491  1.0000
  C   C370      1.0  0.14259  0.78871  0.00830  1.0000
  H   H295      1.0  0.27804  0.70096  0.34872  1.0000
  C   C371      1.0  0.11903  0.90065  0.46324  1.0000
  C   C372      1.0  0.45119  0.95094  0.02424  1.0000
  H   H296      1.0  0.22555  0.66788  0.33505  1.0000
  H   H297      1.0  0.27296  0.76296  0.17414  1.0000
  H   H298      1.0  0.14823  0.97399  0.46959  1.0000
  H   H299      1.0  0.00837  0.88621  0.46068  1.0000
  Fe  Fe24      1.0  0.33111  0.66622  0.41311  1.0000
  C   C373      1.0  0.16118  0.70474  0.28013  1.0000
  C   C374      1.0  0.16950  0.71138  0.31301  1.0000
  C   C375      1.0  0.45754  0.97759  0.00349  1.0000
  H   H300      1.0  0.29488  0.87230  0.47573  1.0000
  C   C376      1.0  0.25665  0.87782  0.01145  1.0000
  C   C377      1.0  0.23149  0.71791  0.99868  1.0000
  H   H301      1.0  0.11763  0.88970  0.48758  1.0000
  C   C378      1.0  0.26473  0.70635  0.00309  1.0000
  H   H302      1.0  0.19366  0.70711  0.42915  1.0000
  C   C379      1.0  0.19910  0.68701  0.41289  1.0000
  C   C380      1.0  0.48430  0.83952  0.03777  1.0000
  H   H303      1.0  0.36152  0.83456  0.49046  1.0000
  H   H304      1.0  0.25139  0.90253  0.00354  1.0000
  C   C381      1.0  0.32664  0.99788  0.02607  1.0000
  H   H305      1.0  0.13948  0.68944  0.27432  1.0000
  H   H306      1.0  0.28444  0.66654  0.28444  1.0000
  C   C382      1.0  0.28382  0.86095  0.99741  1.0000
  Fe  Fe25      1.0  0.21426  0.88709  0.55614  1.0000
  S   S49       1.0  0.17676  0.85791  0.52658  1.0000
  H   H307      1.0  0.33164  0.77073  0.77076  1.0000
  Fe  Fe26      1.0  0.20102  0.84915  0.62066  1.0000
  S   S50       1.0  0.16169  0.81762  0.59516  1.0000
  S   S51       1.0  0.20466  0.84333  0.67722  1.0000
  Fe  Fe27      1.0  0.19923  0.81480  0.55299  1.0000
  S   S52       1.0  0.20514  0.76542  0.52791  1.0000
  Fe  Fe28      1.0  0.14225  0.86288  0.57059  1.0000
  S   S53       1.0  0.08837  0.88358  0.56552  1.0000
  S   S54       1.0  0.23974  0.84341  0.57980  1.0000
  S   S55       1.0  0.17879  0.89484  0.59882  1.0000
  Fe  Fe29      1.0  0.39062  0.85723  0.89371  1.0000
  S   S56       1.0  0.35473  0.89254  0.86948  1.0000
  S   S57       1.0  0.44650  0.87349  0.89108  1.0000
  Fe  Fe30      1.0  0.33043  0.81448  0.91725  1.0000
  S   S58       1.0  0.29084  0.84721  0.89404  1.0000
  S   S59       1.0  0.32330  0.76643  0.94585  1.0000
  Fe  Fe31      1.0  0.32577  0.84947  0.84964  1.0000
  S   S60       1.0  0.31694  0.84926  0.79307  1.0000
  Fe  Fe32      1.0  0.32294  0.88822  0.91523  1.0000
  S   S61       1.0  0.29908  0.93478  0.93572  1.0000
  S   S62       1.0  0.36382  0.81415  0.87167  1.0000
  S   S63       1.0  0.36038  0.85550  0.94090  1.0000
  H   H308      1.0  0.44480  0.74455  0.61585  1.0000
  C   C383      1.0  0.41849  0.68145  0.81959  1.0000
  H   H309      1.0  0.24096  0.78097  0.67507  1.0000
  C   C384      1.0  0.11035  0.86702  0.69411  1.0000
  C   C385      1.0  0.43174  0.69369  0.61326  1.0000
  C   C386      1.0  0.46888  0.80972  0.81225  1.0000
  C   C387      1.0  0.45097  0.78034  0.81030  1.0000
  H   H310      1.0  0.46622  0.80475  0.89947  1.0000
  C   C388      1.0  0.48551  0.85199  0.88638  1.0000
  C   C389      1.0  0.23647  0.84561  0.70891  1.0000
  C   C390      1.0  0.27133  0.84842  0.70207  1.0000
  C   C391      1.0  0.29537  0.84946  0.72811  1.0000
  C   C392      1.0  0.28507  0.84799  0.76140  1.0000
  C   C393      1.0  0.25023  0.84506  0.76823  1.0000
  C   C394      1.0  0.22621  0.84372  0.74219  1.0000
  H   H311      1.0  0.27977  0.84977  0.67672  1.0000
  H   H312      1.0  0.32219  0.85173  0.72241  1.0000
  H   H313      1.0  0.24177  0.84387  0.79357  1.0000
  H   H314      1.0  0.19940  0.84142  0.74791  1.0000
  H   H315      1.0  0.29925  0.87269  0.97874  1.0000
  C   C395      1.0  0.42508  0.72693  0.61016  1.0000
  C   C396      1.0  0.28737  0.74890  0.96642  1.0000
  C   C397      1.0  0.09926  0.87099  0.66164  1.0000
  H   H316      1.0  0.28190  0.66781  0.94259  1.0000
  C   C398      1.0  0.15822  0.98187  0.56647  1.0000
  C   C399      1.0  0.04634  0.82959  0.55628  1.0000
  C   C400      1.0  0.04868  0.86296  0.56253  1.0000
  C   C401      1.0  0.01852  0.88108  0.56591  1.0000
  H   H317      1.0  0.06933  0.81533  0.55360  1.0000
  H   H318      1.0  0.02008  0.90691  0.57049  1.0000
  C   C402      1.0  0.31196  0.95914  0.96982  1.0000
  C   C403      1.0  0.47230  0.84089  0.97927  1.0000
  C   C404      1.0  0.24383  0.76129  0.62595  1.0000
  C   C405      1.0  0.41261  0.73857  0.73695  1.0000
  C   C406      1.0  0.33475  0.94793  0.99382  1.0000
  H   H319      1.0  0.42734  0.73654  0.68584  1.0000
  H   H320      1.0  0.17628  0.93222  0.50426  1.0000
  C   C407      1.0  0.36275  0.75855  0.52370  1.0000
  H   H321      1.0  0.21699  0.76515  0.62082  1.0000
  C   C408      1.0  0.41581  0.78024  0.80337  1.0000
  H   H322      1.0  0.45663  0.68549  0.62136  1.0000
  C   C409      1.0  0.39957  0.80980  0.79658  1.0000
  C   C410      1.0  0.23758  0.75328  0.50011  1.0000
  H   H323      1.0  0.38127  0.69799  0.67022  1.0000
  C   C411      1.0  0.08713  0.86979  0.72008  1.0000
  H   H324      1.0  0.37304  0.67477  0.88498  1.0000
  C   C412      1.0  0.41308  0.71372  0.82960  1.0000
  C   C413      1.0  0.01408  0.81476  0.55274  1.0000
  H   H325      1.0  0.45616  0.83451  0.95850  1.0000
  C   C414      1.0  0.29736  0.99016  0.97371  1.0000
  C   C415      1.0  0.44196  0.70209  0.88137  1.0000
  C   C416      1.0  0.42478  0.72383  0.86075  1.0000
  H   H326      1.0  0.34614  0.92412  0.99125  1.0000
  C   C417      1.0  0.38942  0.72781  0.76096  1.0000
  H   H327      1.0  0.37292  0.81041  0.79035  1.0000
  C   C418      1.0  0.45196  0.83916  0.80707  1.0000
  C   C419      1.0  0.31523  0.68640  0.52232  1.0000
  H   H328      1.0  0.11719  0.86860  0.64146  1.0000
  H   H329      1.0  0.46550  0.86198  0.80994  1.0000
  C   C420      1.0  0.37156  0.78463  0.50327  1.0000
  C   C421      1.0  0.05281  0.87660  0.71361  1.0000
  H   H330      1.0  0.33147  0.70173  0.50752  1.0000
  H   H331      1.0  0.45812  0.99418  0.95278  1.0000
  C   C422      1.0  0.25417  0.76065  0.96226  1.0000
  H   H332      1.0  0.29727  0.73956  0.88413  1.0000
  C   C423      1.0  0.43619  0.91792  0.97683  1.0000
  C   C424      1.0  0.33831  0.74038  0.84879  1.0000
  C   C425      1.0  0.29098  0.76838  0.80584  1.0000
  H   H333      1.0  0.13577  0.93506  0.55707  1.0000
  H   H334      1.0  0.37660  0.73592  0.52133  1.0000
  H   H335      1.0  0.40401  0.86194  0.79512  1.0000
  C   C426      1.0  0.13219  0.96110  0.55603  1.0000
  H   H336      1.0  0.30250  0.77372  0.68638  1.0000
  P   P14       1.0  0.39192  0.74251  0.80288  1.0000
  C   C427      1.0  0.19023  0.95367  0.49684  1.0000
  C   C428      1.0  0.39314  0.73752  0.59922  1.0000
  H   H337      1.0  0.25548  0.76481  0.84614  1.0000
  H   H338      1.0  0.08167  0.95737  0.53604  1.0000
  H   H339      1.0  0.13693  0.86166  0.69909  1.0000
  C   C429      1.0  0.31338  0.75280  0.63863  1.0000
  C   C430      1.0  0.29210  0.76607  0.66284  1.0000
  C   C431      1.0  0.25736  0.77028  0.65649  1.0000
  H   H340      1.0  0.34024  0.75028  0.64391  1.0000
  H   H341      1.0  0.46461  0.75791  0.81469  1.0000
  H   H342      1.0  0.24977  0.78157  0.94666  1.0000
  C   C432      1.0  0.34859  0.74927  0.81683  1.0000
  C   C433      1.0  0.26497  0.74806  0.60170  1.0000
  P   P15       1.0  0.32714  0.72883  0.57523  1.0000
  H   H343      1.0  0.25416  0.74193  0.57787  1.0000
  C   C434      1.0  0.29991  0.74367  0.60785  1.0000
  H   H344      1.0  0.04368  0.94153  0.65010  1.0000
  C   C435      1.0  0.45364  0.97387  0.96922  1.0000
  H   H345      1.0  0.09584  0.86654  0.74522  1.0000
  C   C436      1.0  0.35473  0.81440  0.50635  1.0000
  H   H346      1.0  0.42071  0.74863  0.86904  1.0000
  H   H347      1.0  0.29956  0.79547  0.56768  1.0000
  C   C437      1.0  0.38376  0.70609  0.69553  1.0000
  C   C438      1.0  0.31974  0.79188  0.54992  1.0000
  H   H348      1.0  0.31569  0.84108  0.53219  1.0000
  C   C439      1.0  0.32891  0.81805  0.52975  1.0000
  H   H349      1.0  0.18745  0.71211  0.91457  1.0000
  C   C440      1.0  0.30475  0.74563  0.85914  1.0000
  C   C441      1.0  0.22650  0.74520  0.97822  1.0000
  C   C442      1.0  0.41738  0.83916  0.79890  1.0000
  C   C443      1.0  0.33647  0.76180  0.54700  1.0000
  H   H350      1.0  0.35616  0.73042  0.86631  1.0000
  S   S64       1.0  0.24407  0.92905  0.53340  1.0000
  C   C444      1.0  0.44285  0.94416  0.95601  1.0000
  C   C445      1.0  0.32447  0.76311  0.79537  1.0000
  C   C446      1.0  0.48858  0.81870  0.89291  1.0000
  C   C447      1.0  0.36094  0.69488  0.71940  1.0000
  C   C448      1.0  0.04153  0.88094  0.68100  1.0000
  H   H351      1.0  0.31789  0.71241  0.99064  1.0000
  H   H352      1.0  0.33484  0.69679  0.92814  1.0000
  C   C449      1.0  0.36763  0.71488  0.59114  1.0000
  C   C450      1.0  0.06504  0.87787  0.65511  1.0000
  C   C451      1.0  0.16225  0.67663  0.94502  1.0000
  H   H353      1.0  0.38845  0.76338  0.59662  1.0000
  C   C452      1.0  0.28117  0.75982  0.83776  1.0000
  H   H354      1.0  0.26794  0.98916  0.50492  1.0000
  C   C453      1.0  0.40966  0.72780  0.70432  1.0000
  H   H355      1.0  0.03534  0.87845  0.73411  1.0000
  H   H356      1.0  0.43924  0.94139  0.92960  1.0000
  H   H357      1.0  0.05686  0.88069  0.62981  1.0000
  C   C454      1.0  0.29238  0.72170  0.98701  1.0000
  H   H358      1.0  0.18198  0.97175  0.57557  1.0000
  H   H359      1.0  0.27293  0.78011  0.78947  1.0000
  C   C455      1.0  0.10176  0.97383  0.54377  1.0000
  C   C456      1.0  0.44742  0.67005  0.87119  1.0000
  C   C457      1.0  0.28501  0.67411  0.57280  1.0000
  C   C458      1.0  0.02034  0.94304  0.63594  1.0000
  H   H360      1.0  0.45112  0.71019  0.90525  1.0000
  H   H361      1.0  0.43266  0.75561  0.74320  1.0000
  C   C459      1.0  0.37433  0.68151  0.59490  1.0000
  H   H362      1.0  0.02214  0.82966  0.63865  1.0000
  H   H363      1.0  0.27840  0.67957  0.59810  1.0000
  H   H364      1.0  0.20100  0.75452  0.97474  1.0000
  C   C460      1.0  0.18790  0.68740  0.92378  1.0000
  C   C461      1.0  0.30674  0.69477  0.55483  1.0000
  C   C462      1.0  0.24180  0.98578  0.49711  1.0000
  H   H365      1.0  0.13509  0.79664  0.98389  1.0000
  C   C463      1.0  0.01730  0.96736  0.61198  1.0000
  H   H366      1.0  0.42735  0.89513  0.96639  1.0000
  C   C464      1.0  0.22380  0.95799  0.50750  1.0000
  C   C465      1.0  0.32803  0.67465  0.91510  1.0000
  C   C466      1.0  0.40635  0.67101  0.60571  1.0000
  H   H367      1.0  0.01248  0.78906  0.54725  1.0000
  C   C467      1.0  0.36384  0.70554  0.75204  1.0000
  H   H368      1.0  0.14219  0.69308  0.95261  1.0000
  H   H369      1.0  0.38418  0.66843  0.51878  1.0000
  H   H370      1.0  0.03838  0.98384  0.60757  1.0000
  H   H371      1.0  0.49572  0.80983  0.81872  1.0000
  H   H372      1.0  0.40982  0.67305  0.79574  1.0000
  H   H373      1.0  0.26402  0.79895  0.49996  1.0000
  H   H374      1.0  0.23407  0.67534  0.89848  1.0000
  H   H375      1.0  0.34580  0.69682  0.77023  1.0000
  H   H376      1.0  0.34080  0.67810  0.71258  1.0000
  H   H377      1.0  0.31160  0.81586  0.99591  1.0000
  C   C468      1.0  0.21461  0.66659  0.91516  1.0000
  Fe  Fe33      1.0  0.88781  0.11904  0.38115  1.0000
  S   S65       1.0  0.84734  0.08875  0.35577  1.0000
  S   S66       1.0  0.94283  0.10318  0.37055  1.0000
  Fe  Fe34      1.0  0.83400  0.15970  0.41791  1.0000
  S   S67       1.0  0.79044  0.13148  0.39597  1.0000
  S   S68       1.0  0.83096  0.20540  0.45035  1.0000
  Fe  Fe35      1.0  0.82243  0.08690  0.40571  1.0000
  S   S69       1.0  0.79804  0.03894  0.42170  1.0000
  Fe  Fe36      1.0  0.81822  0.13520  0.34742  1.0000
  S   S70       1.0  0.78510  0.15380  0.30420  1.0000
  S   S71       1.0  0.86405  0.11466  0.43149  1.0000
  S   S72       1.0  0.86070  0.16579  0.36888  1.0000
  Fe  Fe37      1.0  0.70907  0.10731  0.11762  1.0000
  S   S73       1.0  0.67176  0.14697  0.10425  1.0000
  S   S74       1.0  0.74895  0.10125  0.15908  1.0000
  Fe  Fe38      1.0  0.68687  0.06450  0.05818  1.0000
  S   S75       1.0  0.64884  0.10131  0.04025  1.0000
  S   S76       1.0  0.69559  0.18305  0.01654  1.0000
  Fe  Fe39      1.0  0.68950  0.13918  0.05156  1.0000
  H   H378      1.0  0.85361  0.15998  0.02510  1.0000
  Fe  Fe40      1.0  0.63357  0.10709  0.09326  1.0000
  S   S77       1.0  0.57916  0.10074  0.11298  1.0000
  S   S78       1.0  0.72862  0.10161  0.06546  1.0000
  S   S79       1.0  0.66966  0.06821  0.11079  1.0000
  H   H379      1.0  0.99910  0.03617  0.39107  1.0000
  H   H380      1.0  0.80777  0.19185  0.23007  1.0000
  C   C469      1.0  0.64764  0.24818  0.31101  1.0000
  H   H381      1.0  0.94770  0.06655  0.43464  1.0000
  C   C470      1.0  0.70371  0.22557  0.40772  1.0000
  C   C471      1.0  0.53900  0.11345  0.09686  1.0000
  C   C472      1.0  0.53615  0.13417  0.06961  1.0000
  C   C473      1.0  0.69680  0.26163  0.34497  1.0000
  H   H382      1.0  0.55894  0.14301  0.05758  1.0000
  C   C474      1.0  0.51261  0.02665  0.01287  1.0000
  H   H383      1.0  0.70870  0.32787  0.36300  1.0000
  C   C475      1.0  0.67900  0.17271  0.44453  1.0000
  C   C476      1.0  0.71421  0.29716  0.44085  1.0000
  C   C477      1.0  0.66391  0.09017  0.20319  1.0000
  C   C478      1.0  0.81041  0.23200  0.34344  1.0000
  C   C479      1.0  0.82153  0.20147  0.20905  1.0000
  C   C480      1.0  0.50896  0.10241  0.11221  1.0000
  C   C481      1.0  0.70882  0.32690  0.38963  1.0000
  H   H384      1.0  0.76414  0.17944  0.46902  1.0000
  C   C482      1.0  0.77483  0.13814  0.26427  1.0000
  C   C483      1.0  0.79152  0.11131  0.25062  1.0000
  C   C484      1.0  0.78332  0.10064  0.21844  1.0000
  C   C485      1.0  0.75810  0.11633  0.19948  1.0000
  C   C486      1.0  0.74115  0.14303  0.21323  1.0000
  C   C487      1.0  0.74948  0.15380  0.24538  1.0000
  H   H385      1.0  0.81108  0.09900  0.26469  1.0000
  H   H386      1.0  0.79666  0.08001  0.20813  1.0000
  H   H387      1.0  0.72169  0.15539  0.19910  1.0000
  H   H388      1.0  0.73628  0.17454  0.25564  1.0000
  C   C488      1.0  0.79619  0.22151  0.47342  1.0000
  C   C489      1.0  0.70833  0.16925  0.42536  1.0000
  C   C490      1.0  0.93425  0.08691  0.48155  1.0000
  C   C491      1.0  0.76629  0.20381  0.47876  1.0000
  C   C492      1.0  0.98272  0.12156  0.38054  1.0000
  C   C493      1.0  0.66125  0.02157  0.31702  1.0000
  C   C494      1.0  0.77317  0.02512  0.26368  1.0000
  C   C495      1.0  0.80315  0.26704  0.05840  1.0000
  H   H389      1.0  0.96250  0.16086  0.40953  1.0000
  C   C496      1.0  0.69799  0.22616  0.09664  1.0000
  C   C497      1.0  0.68549  0.24540  0.12229  1.0000
  C   C498      1.0  0.70794  0.25835  0.14563  1.0000
  C   C499      1.0  0.74288  0.25194  0.14336  1.0000
  C   C500      1.0  0.75544  0.23169  0.11828  1.0000
  C   C501      1.0  0.73280  0.21920  0.09464  1.0000
  C   C502      1.0  0.61039  0.06789  0.22225  1.0000
  C   C503      1.0  0.80944  0.18952  0.09103  1.0000
  C   C504      1.0  0.83019  0.18933  0.06281  1.0000
  C   C505      1.0  0.83800  0.15996  0.04712  1.0000
  C   C506      1.0  0.82586  0.13060  0.05993  1.0000
  C   C507      1.0  0.80598  0.13059  0.08848  1.0000
  C   C508      1.0  0.79748  0.15991  0.10378  1.0000
  H   H390      1.0  0.68068  0.21671  0.07809  1.0000
  H   H391      1.0  0.65844  0.25053  0.12374  1.0000
  H   H392      1.0  0.77008  0.17299  0.01374  1.0000
  C   C509      1.0  0.80428  0.20828  0.17965  1.0000
  H   H393      1.0  0.74193  0.20454  0.07428  1.0000
  H   H394      1.0  0.51078  0.08655  0.13338  1.0000
  H   H395      1.0  0.87220  0.23165  0.13290  1.0000
  H   H396      1.0  0.84060  0.21162  0.05288  1.0000
  C   C510      1.0  0.66292  0.26327  0.28392  1.0000
  H   H397      1.0  0.51050  0.02192  0.08148  1.0000
  H   H398      1.0  0.79697  0.10784  0.09888  1.0000
  H   H399      1.0  0.78194  0.15936  0.12587  1.0000
  P   P16       1.0  0.80074  0.22658  0.11325  1.0000
  H   H400      1.0  0.62280  0.23690  0.30834  1.0000
  C   C511      1.0  0.82212  0.22050  0.15225  1.0000
  P   P17       1.0  0.96991  1.00000  0.44702  1.0000
  C   C512      1.0  0.78843  0.26831  0.39769  1.0000
  C   C513      1.0  0.69435  0.14628  0.33740  1.0000
  C   C514      1.0  0.66426  0.15120  0.35512  1.0000
  C   C515      1.0  0.63916  0.12705  0.35565  1.0000
  C   C516      1.0  0.64414  0.09792  0.33847  1.0000
  C   C517      1.0  0.67461  0.09258  0.32119  1.0000
  C   C518      1.0  0.69936  0.11720  0.32026  1.0000
  P   P18       1.0  0.68001  0.05632  0.29681  1.0000
  H   H401      1.0  0.69831  0.27376  0.16515  1.0000
  C   C519      1.0  0.72467  0.04622  0.29414  1.0000
  C   C520      1.0  0.73868  0.03364  0.26494  1.0000
  C   C521      1.0  0.98536  0.14947  0.40015  1.0000
  H   H402      1.0  0.83198  0.10782  0.04789  1.0000
  H   H403      1.0  0.67867  0.10233  0.18425  1.0000
  C   C522      1.0  0.71312  0.29722  0.40628  1.0000
  H   H404      1.0  0.72193  0.14633  0.42526  1.0000
  C   C523      1.0  0.71182  0.27707  0.31768  1.0000
  C   C524      1.0  0.84233  0.02513  0.47348  1.0000
  H   H405      1.0  0.72322  0.03053  0.24305  1.0000
  C   C525      1.0  0.67922  0.08182  0.23316  1.0000
  H   H406      1.0  0.74403  0.19249  0.39312  1.0000
  H   H407      1.0  0.71390  0.16495  0.33670  1.0000
  H   H408      1.0  0.66036  0.17375  0.36834  1.0000
  H   H409      1.0  0.61573  0.13101  0.36917  1.0000
  H   H410      1.0  0.62415  0.07974  0.33845  1.0000
  H   H411      1.0  0.72252  0.11406  0.30613  1.0000
  C   C526      1.0  0.62958  0.08304  0.19763  1.0000
  H   H412      1.0  0.85443  0.04821  0.46827  1.0000
  C   C527      1.0  0.62565  0.05948  0.25228  1.0000
  C   C528      1.0  0.67396  0.22871  0.42674  1.0000
  C   C529      1.0  0.66442  0.24743  0.34145  1.0000
  C   C530      1.0  0.58281  0.03875  0.00548  1.0000
  C   C531      1.0  0.66049  0.06558  0.25758  1.0000
  H   H413      1.0  0.70561  0.08824  0.23732  1.0000
  C   C532      1.0  0.69495  0.27780  0.28729  1.0000
  C   C533      1.0  0.77556  0.23597  0.34927  1.0000
  H   H414      1.0  0.73671  0.28832  0.31981  1.0000
  H   H415      1.0  0.84173  0.27342  0.40938  1.0000
  C   C534      1.0  0.81234  0.29505  0.04100  1.0000
  P   P19       1.0  0.71929  0.25963  0.38386  1.0000
  H   H416      1.0  0.67003  0.15254  0.45937  1.0000
  H   H417      1.0  0.65207  0.23562  0.36203  1.0000
  C   C535      1.0  0.94607  0.06211  0.46097  1.0000
  H   H418      1.0  0.92701  0.11015  0.47106  1.0000
  H   H419      1.0  0.75757  0.22378  0.33317  1.0000
  H   H420      1.0  0.71095  0.32538  0.48529  1.0000
  H   H421      1.0  0.70683  0.28946  0.26627  1.0000
  H   H422      1.0  0.82039  0.02179  0.29076  1.0000
  C   C536      1.0  0.74529  0.04872  0.32237  1.0000
  H   H423      1.0  0.51308  0.06971  0.04370  1.0000
  H   H424      1.0  0.71850  0.27480  0.45423  1.0000
  C   C537      1.0  0.83425  0.24614  0.36468  1.0000
  H   H425      1.0  0.78715  0.24907  0.04644  1.0000
  C   C538      1.0  0.85766  0.22416  0.15429  1.0000
  C   C539      1.0  0.83204  0.31905  0.05622  1.0000
  C   C540      1.0  0.81427  0.26240  0.09099  1.0000
  C   C541      1.0  0.87483  0.21730  0.18374  1.0000
  H   H426      1.0  0.73501  0.05772  0.34542  1.0000
  H   H427      1.0  0.76013  0.26302  0.16095  1.0000
  H   H428      1.0  0.79764  0.00822  0.00297  1.0000
  C   C542      1.0  0.82326  0.26412  0.39187  1.0000
  H   H429      1.0  0.86125  0.24205  0.36087  1.0000
  H   H430      1.0  0.77727  0.20300  0.17817  1.0000
  C   C543      1.0  0.50931  0.31069  0.48900  1.0000
  H   H431      1.0  0.87004  0.20021  0.23384  1.0000
  C   C544      1.0  0.72081  0.19559  0.40715  1.0000
  C   C545      1.0  0.85674  0.20608  0.21115  1.0000
  H   H432      1.0  0.63957  0.20537  0.46075  1.0000
  H   H433      1.0  0.81892  0.21697  0.32308  1.0000
  H   H434      1.0  0.78059  0.28128  0.41961  1.0000
  H   H435      1.0  0.67475  0.03762  0.36625  1.0000
  H   H436      1.0  0.61777  0.08959  0.17435  1.0000
  C   C546      1.0  0.81411  0.01523  0.45492  1.0000
  C   C547      1.0  0.77951  0.03949  0.32121  1.0000
  C   C548      1.0  0.56278  0.05963  0.02447  1.0000
  H   H437      1.0  0.61001  0.04297  0.00337  1.0000
  C   C549      1.0  0.79889  0.25293  0.48710  1.0000
  H   H438      1.0  0.57440  0.08002  0.03719  1.0000
  C   C550      1.0  0.76430  0.25480  0.37606  1.0000
  H   H439      1.0  0.80394  0.29822  0.01571  1.0000
  H   H440      1.0  0.66040  0.25160  0.42774  1.0000
  S   S80       1.0  0.69555  0.01162  0.04267  1.0000
  H   H441      1.0  0.82202  0.26677  0.48336  1.0000
  H   H442      1.0  0.75563  0.04747  0.02447  1.0000
  H   H443      1.0  0.52128  0.32873  0.47339  1.0000
  C   C551      1.0  0.52786  0.05376  0.02801  1.0000
  H   H444      1.0  0.79503  0.04124  0.34327  1.0000
  H   H445      1.0  0.64995  0.26366  0.26030  1.0000
  C   C552      1.0  0.66184  0.20244  0.44524  1.0000
  C   C553      1.0  0.66302  0.01869  0.35149  1.0000
  C   C554      1.0  0.79361  0.02812  0.29178  1.0000
  H   H446      1.0  0.78411  0.01646  0.24078  1.0000
  C   C555      1.0  0.83325  0.28706  0.10647  1.0000
  C   C556      1.0  0.95525  0.03180  0.47423  1.0000
  C   C557      1.0  0.71007  0.32599  0.45857  1.0000
  H   H447      1.0  0.61014  0.04859  0.27137  1.0000
  H   H448      1.0  0.90227  0.22001  0.18515  1.0000
  C   C558      1.0  0.76409  0.19538  0.00101  1.0000
  H   H449      1.0  0.86099  0.01480  0.38765  1.0000
  H   H450      1.0  0.84052  0.28504  0.13211  1.0000
  H   H451      1.0  0.89829  0.01729  0.43620  1.0000
  C   C559      1.0  0.50368  0.14407  0.05833  1.0000
  C   C560      1.0  0.84231  0.31516  0.08902  1.0000
  C   C561      1.0  0.73013  0.20560  0.99894  1.0000
  H   H452      1.0  0.58359  0.06299  0.21800  1.0000
  C   C562      1.0  0.90836  0.00776  0.41342  1.0000
  C   C563      1.0  0.88704  0.00616  0.38586  1.0000
  H   H453      1.0  0.63216  0.33043  0.43082  1.0000
  H   H454      1.0  0.59619  0.32967  0.48110  1.0000
  C   C564      1.0  0.76000  0.04589  0.99816  1.0000
  H   H455      1.0  0.50183  0.16054  0.03762  1.0000
  H   H456      1.0  0.58990  0.11434  0.96556  1.0000
  S   S81       1.0  0.70596  0.26527  0.53184  1.0000
  H   H457      1.0  0.72223  0.08168  0.98649  1.0000
  H   H458      1.0  0.72824  0.26464  0.65751  1.0000
  C   C565      1.0  0.71324  0.03358  0.87358  1.0000
  S   S82       1.0  0.81758  0.26559  0.95134  1.0000
  C   C566      1.0  0.78318  0.24330  0.96955  1.0000
  C   C567      1.0  0.98367  0.33195  0.91596  1.0000
  H   H459      1.0  0.73018  0.20560  0.88988  1.0000
  H   H460      1.0  0.71117  0.08323  0.79234  1.0000
  C   C568      1.0  0.71201  0.06938  0.81505  1.0000
  S   S83       1.0  0.85481  0.31344  0.87603  1.0000
  H   H461      1.0  0.77625  0.03926  0.90423  1.0000
  H   H462      1.0  0.55713  0.32282  0.62155  1.0000
  H   H463      1.0  0.88112  0.30693  0.79794  1.0000
  H   H464      1.0  0.78698  0.12531  0.84440  1.0000
  C   C569      1.0  0.64253  0.12916  0.96410  1.0000
  H   H465      1.0  0.96191  0.31819  0.92452  1.0000
  H   H466      1.0  0.66210  0.00219  0.92547  1.0000
  H   H467      1.0  0.77434  0.29081  0.51575  1.0000
  C   C570      1.0  0.70806  0.03558  0.81416  1.0000
  H   H468      1.0  0.79081  0.20994  0.90685  1.0000
  C   C571      1.0  0.70860  0.01772  0.84345  1.0000
  H   H469      1.0  0.94051  0.04826  0.55543  1.0000
  C   C572      1.0  0.74038  0.25678  0.68021  1.0000
  H   H470      1.0  0.71910  0.11152  0.84540  1.0000
  H   H471      1.0  0.70431  0.02316  0.79084  1.0000
  H   H472      1.0  0.59866  0.06717  0.92827  1.0000
  C   C573      1.0  0.94224  0.05215  0.52906  1.0000
  H   H473      1.0  0.91449  0.21105  0.77060  1.0000
  H   H474      1.0  0.82207  0.16112  0.92524  1.0000
  H   H475      1.0  0.71321  0.01920  0.89595  1.0000
  H   H476      1.0  0.92191  0.10086  0.53128  1.0000
  H   H477      1.0  0.52473  0.26667  0.55836  1.0000
  C   C574      1.0  0.71759  0.06752  0.87475  1.0000
  C   C575      1.0  0.90174  0.26007  0.78453  1.0000
  S   S84       1.0  0.65628  0.30729  0.60172  1.0000
  C   C576      1.0  0.71664  0.08534  0.84523  1.0000
  H   H478      1.0  0.65551  0.05581  0.90554  1.0000
  C   C577      1.0  0.51129  0.27554  0.53679  1.0000
  Fe  Fe41      1.0  0.69578  0.31190  0.56146  1.0000
  C   C578      1.0  0.77103  0.04107  0.93037  1.0000
  H   H479      1.0  0.69685  0.24290  0.98005  1.0000
  C   C579      1.0  0.87543  0.28198  0.79112  1.0000
  C   C580      1.0  0.74923  0.25349  0.96745  1.0000
  H   H480      1.0  0.68974  0.28125  0.83054  1.0000
  C   C581      1.0  0.77194  0.26659  0.50561  1.0000
  H   H481      1.0  0.69626  0.13740  0.96001  1.0000
  C   C582      1.0  0.72492  0.23315  0.69991  1.0000
  C   C583      1.0  0.78838  0.12897  0.76062  1.0000
  C   C584      1.0  0.78759  0.11545  0.79223  1.0000
  C   C585      1.0  0.78701  0.13574  0.81986  1.0000
  C   C586      1.0  0.78690  0.16953  0.81592  1.0000
  C   C587      1.0  0.78714  0.18334  0.78427  1.0000
  C   C588      1.0  0.78849  0.16278  0.75662  1.0000
  P   P20       1.0  0.78944  0.22696  0.77925  1.0000
  C   C589      1.0  0.76652  0.24656  0.81255  1.0000
  C   C590      1.0  0.83354  0.23957  0.78080  1.0000
  C   C591      1.0  0.84153  0.27173  0.78921  1.0000
  C   C592      1.0  0.78948  0.02145  0.95214  1.0000
  H   H482      1.0  0.78258  0.28973  0.67510  1.0000
  C   C593      1.0  0.89405  0.22798  0.77577  1.0000
  C   C594      1.0  0.86005  0.21772  0.77383  1.0000
  C   C595      1.0  0.73280  0.25731  0.80830  1.0000
  C   C596      1.0  0.71552  0.27254  0.83421  1.0000
  C   C597      1.0  0.73179  0.27742  0.86446  1.0000
  C   C598      1.0  0.76530  0.26694  0.86887  1.0000
  C   C599      1.0  0.78261  0.25152  0.84315  1.0000
  C   C600      1.0  0.77060  0.23844  0.74021  1.0000
  C   C601      1.0  0.78591  0.26223  0.72025  1.0000
  C   C602      1.0  0.61499  0.10928  0.95563  1.0000
  H   H483      1.0  0.66790  0.03205  0.97865  1.0000
  C   C603      1.0  0.74096  0.06511  0.97646  1.0000
  H   H484      1.0  0.96305  0.00493  0.51955  1.0000
  H   H485      1.0  0.78930  0.11326  0.73917  1.0000
  H   H486      1.0  0.78781  0.08926  0.79532  1.0000
  H   H487      1.0  0.87732  0.01275  0.51256  1.0000
  H   H488      1.0  0.78707  0.18477  0.83760  1.0000
  H   H489      1.0  0.78999  0.17280  0.73195  1.0000
  H   H490      1.0  0.82140  0.28884  0.79442  1.0000
  C   C604      1.0  0.72298  0.23470  0.98191  1.0000
  H   H491      1.0  0.72752  0.20574  0.74485  1.0000
  C   C605      1.0  0.77100  0.27103  0.69022  1.0000
  H   H492      1.0  0.85465  0.19281  0.76700  1.0000
  H   H493      1.0  0.71984  0.25472  0.78493  1.0000
  Fe  Fe42      1.0  0.82373  0.31425  0.92327  1.0000
  H   H494      1.0  0.71863  0.28968  0.88439  1.0000
  H   H495      1.0  0.77800  0.27104  0.89223  1.0000
  H   H496      1.0  0.80869  0.24382  0.84713  1.0000
  H   H497      1.0  0.80901  0.27449  0.72788  1.0000
  H   H498      1.0  0.79325  0.10795  0.92766  1.0000
  C   C606      1.0  0.74004  0.22384  0.72971  1.0000
  H   H499      1.0  0.63883  0.14969  0.98054  1.0000
  C   C607      1.0  0.67630  0.00711  0.97668  1.0000
  H   H500      1.0  0.92804  0.26800  0.78628  1.0000
  C   C608      1.0  0.52674  0.29862  0.51643  1.0000
  H   H501      1.0  0.70071  0.15257  0.89171  1.0000
  H   H502      1.0  0.70092  0.22251  0.69223  1.0000
  C   C609      1.0  0.95457  0.02744  0.50856  1.0000
  C   C610      1.0  0.79574  0.15892  0.91742  1.0000
  C   C611      1.0  0.77809  0.18652  0.90700  1.0000
  C   C612      1.0  0.74396  0.18403  0.89745  1.0000
  C   C613      1.0  0.72736  0.15394  0.89860  1.0000
  C   C614      1.0  0.74466  0.12616  0.90987  1.0000
  C   C615      1.0  0.77918  0.12881  0.91882  1.0000
  P   P21       1.0  0.72226  0.08789  0.91405  1.0000
  C   C616      1.0  0.74599  0.06250  0.94231  1.0000
  C   C617      1.0  0.68034  0.09582  0.93080  1.0000
  C   C618      1.0  0.65241  0.07621  0.92203  1.0000
  C   C619      1.0  0.61996  0.08273  0.93469  1.0000
  H   H503      1.0  0.74314  0.27583  0.95468  1.0000
  C   C620      1.0  0.79033  0.21402  0.98629  1.0000
  C   C621      1.0  0.67516  0.12215  0.95228  1.0000
  H   H504      1.0  0.55206  0.30747  0.52233  1.0000
  C   C622      1.0  0.85527  0.00495  0.49863  1.0000
  C   C623      1.0  0.74193  0.24886  0.51076  1.0000
  C   C624      1.0  0.93174  0.08176  0.51551  1.0000
  H   H505      1.0  0.71634  0.20348  0.50107  1.0000
  C   C625      1.0  0.78381  0.02374  0.98603  1.0000
  H   H506      1.0  0.80796  0.00424  0.94272  1.0000
  C   C626      1.0  0.56787  0.01204  0.98982  1.0000
  C   C627      1.0  0.73935  0.21745  0.49719  1.0000
  H   H507      1.0  0.81641  0.20570  0.98787  1.0000
  C   C628      1.0  0.53298  0.00595  0.99356  1.0000
  C   C629      1.0  0.50185  0.32244  0.62169  1.0000
  C   C630      1.0  0.71776  0.33187  0.75132  1.0000
  C   C631      1.0  0.53423  0.33108  0.60926  1.0000
  H   H508      1.0  0.69216  0.32426  0.75753  1.0000
  Fe  Fe43      1.0  0.68085  0.57223  0.41815  1.0000
  S   S85       1.0  0.66996  0.61672  0.44848  1.0000
  S   S86       1.0  0.67176  0.51934  0.43352  1.0000
  Fe  Fe44      1.0  0.69104  0.61242  0.35369  1.0000
  S   S87       1.0  0.70217  0.59980  0.29922  1.0000
  C   C632      1.0  0.88037  0.65942  0.22155  1.0000
  Fe  Fe45      1.0  0.63703  0.63245  0.40571  1.0000
  C   C633      1.0  0.80667  0.51104  0.47350  1.0000
  S   S88       1.0  0.72645  0.59466  0.39331  1.0000
  S   S89       1.0  0.64584  0.58689  0.37676  1.0000
  Fe  Fe46      1.0  0.81740  0.62778  0.12998  1.0000
  S   S90       1.0  0.80356  0.64367  0.18290  1.0000
  Fe  Fe47      1.0  0.83189  0.57724  0.07530  1.0000
  S   S91       1.0  0.84669  0.61532  0.03847  1.0000
  S   S92       1.0  0.84060  0.52303  0.06532  1.0000
  Fe  Fe48      1.0  0.87656  0.63775  0.08011  1.0000
  C   C634      1.0  0.54903  0.51804  0.38408  1.0000
  H   H509      1.0  0.92162  0.52281  0.39780  1.0000
  S   S93       1.0  0.86411  0.59839  0.11645  1.0000
  S   S94       1.0  0.78431  0.60395  0.09148  1.0000
  C   C635      1.0  0.68601  0.49675  0.46815  1.0000
  C   C636      1.0  0.96943  0.64531  0.07903  1.0000
  H   H510      1.0  0.92513  0.39700  0.07394  1.0000
  C   C637      1.0  0.58012  0.51282  0.40003  1.0000
  C   C638      1.0  0.72939  0.61361  0.26670  1.0000
  C   C639      1.0  0.73100  0.59540  0.23729  1.0000
  C   C640      1.0  0.75289  0.60451  0.21118  1.0000
  C   C641      1.0  0.77392  0.63184  0.21419  1.0000
  C   C642      1.0  0.85573  0.58659  0.35364  1.0000
  C   C643      1.0  0.74982  0.64145  0.26941  1.0000
  H   H511      1.0  0.71517  0.57400  0.23465  1.0000
  H   H512      1.0  0.75356  0.59032  0.18877  1.0000
  C   C644      1.0  0.54134  0.61537  0.38198  1.0000
  C   C645      1.0  0.59696  0.35115  0.46562  1.0000
  H   H513      1.0  0.92802  0.50013  0.34139  1.0000
  H   H514      1.0  0.56396  0.60572  0.37035  1.0000
  C   C646      1.0  0.74849  0.53093  0.33046  1.0000
  C   C647      1.0  0.79133  0.55226  0.43359  1.0000
  C   C648      1.0  0.79597  0.56633  0.49137  1.0000
  C   C649      1.0  0.97359  0.61826  0.09954  1.0000
  H   H515      1.0  0.86089  0.45933  0.04358  1.0000
  C   C650      1.0  0.76755  0.49995  0.37821  1.0000
  C   C651      1.0  0.95598  0.42108  0.99923  1.0000
  H   H516      1.0  0.87922  0.47223  0.31458  1.0000
  C   C652      1.0  0.80847  0.51274  0.00489  1.0000
  H   H517      1.0  0.95213  0.44420  0.04714  1.0000
  H   H518      1.0  0.95001  0.56767  0.05945  1.0000
  C   C653      1.0  0.77204  0.65032  0.24343  1.0000
  H   H519      1.0  0.70145  0.37760  0.45579  1.0000
  C   C654      1.0  0.90027  0.51077  0.38597  1.0000
  C   C655      1.0  0.70495  0.35585  0.40745  1.0000
  H   H520      1.0  0.79799  0.53686  0.00764  1.0000
  C   C656      1.0  0.93052  0.54678  0.26860  1.0000
  C   C657      1.0  0.58030  0.40728  0.45568  1.0000
  H   H521      1.0  0.81340  0.60854  0.37939  1.0000
  C   C658      1.0  0.86829  0.57608  0.32312  1.0000
  C   C659      1.0  0.58235  0.49021  0.42565  1.0000
  C   C660      1.0  0.90490  0.65510  0.19698  1.0000
  C   C661      1.0  0.87640  0.48233  0.33907  1.0000
  C   C662      1.0  0.86913  0.50804  0.40255  1.0000
  C   C663      1.0  0.73413  0.48848  0.38249  1.0000
  H   H522      1.0  0.74875  0.65598  0.29162  1.0000
  H   H523      1.0  0.78281  0.60039  0.45310  1.0000
  C   C664      1.0  0.96556  0.49234  0.00323  1.0000
  C   C665      1.0  0.54453  0.63832  0.40728  1.0000
  Fe  Fe49      1.0  0.80186  0.64422  0.05712  1.0000
  H   H524      1.0  0.75356  0.54822  0.31089  1.0000
  C   C666      1.0  0.84524  0.47961  0.35553  1.0000
  C   C667      1.0  0.84379  0.46899  0.02509  1.0000
  C   C668      1.0  0.95118  0.49154  0.26344  1.0000
  H   H525      1.0  0.99905  0.37055  0.06740  1.0000
  C   C669      1.0  0.55366  0.47214  0.43527  1.0000
  H   H526      1.0  0.70185  0.37877  0.39462  1.0000
  C   C670      1.0  0.57805  0.37861  0.47437  1.0000
  C   C671      1.0  0.51633  0.55824  0.46275  1.0000
  C   C672      1.0  0.84131  0.49255  0.38736  1.0000
  C   C673      1.0  0.70825  0.49802  0.36079  1.0000
  H   H527      1.0  0.91316  0.34672  0.04180  1.0000
  C   C674      1.0  0.61738  0.35169  0.43745  1.0000
  C   C675      1.0  0.60082  0.40760  0.42731  1.0000
  C   C676      1.0  0.61905  0.37981  0.41815  1.0000
  H   H528      1.0  0.60652  0.48700  0.43814  1.0000
  H   H529      1.0  0.85690  0.33415  0.10102  1.0000
  C   C677      1.0  0.82303  0.59985  0.35591  1.0000
  H   H530      1.0  0.83169  0.42597  0.39338  1.0000
  H   H531      1.0  0.86686  0.51813  0.42711  1.0000
  C   C678      1.0  0.81303  0.42298  0.41270  1.0000
  S   S95       1.0  0.92840  0.66055  0.06832  1.0000
  H   H532      1.0  0.89378  0.56630  0.32198  1.0000
  C   C679      1.0  0.90390  0.49798  0.35422  1.0000
  H   H533      1.0  0.72751  0.47319  0.40320  1.0000
  H   H534      1.0  0.60304  0.42917  0.41226  1.0000
  H   H535      1.0  0.63477  0.38026  0.39624  1.0000
  C   C680      1.0  0.78955  0.57541  0.45878  1.0000
  C   C681      1.0  0.70508  0.35532  0.44193  1.0000
  C   C682      1.0  0.71538  0.51931  0.33488  1.0000
  C   C683      1.0  0.77811  0.51678  0.22658  1.0000
  C   C684      1.0  0.77754  0.52114  0.19240  1.0000
  C   C685      1.0  0.80306  0.53938  0.17706  1.0000
  C   C686      1.0  0.82892  0.55364  0.19591  1.0000
  C   C687      1.0  0.82962  0.54955  0.23030  1.0000
  C   C688      1.0  0.80427  0.53056  0.24544  1.0000
  P   P22       1.0  0.86410  0.56639  0.25457  1.0000
  C   C689      1.0  0.89780  0.53676  0.25880  1.0000
  C   C690      1.0  0.88104  0.60144  0.23315  1.0000
  C   C691      1.0  0.90586  0.59734  0.20847  1.0000
  C   C692      1.0  0.79376  0.44950  0.42411  1.0000
  C   C693      1.0  0.76981  0.44436  0.44934  1.0000
  C   C694      1.0  0.99869  0.66102  0.06671  1.0000
  H   H536      1.0  0.90256  0.54484  0.02660  1.0000
  S   S96       1.0  0.67948  0.65990  0.37970  1.0000
  H   H537      1.0  0.78644  0.55971  0.40852  1.0000
  H   H538      1.0  0.54717  0.53614  0.36469  1.0000
  C   C695      1.0  0.54880  0.57130  0.45751  1.0000
  H   H539      1.0  0.70735  0.55706  0.00437  1.0000
  C   C696      1.0  0.84811  0.57871  0.29459  1.0000
  C   C697      1.0  0.81516  0.59164  0.29727  1.0000
  C   C698      1.0  0.80267  0.60212  0.32776  1.0000
  C   C699      1.0  0.86841  0.63273  0.23955  1.0000
  H   H540      1.0  0.65627  0.45467  0.45456  1.0000
  H   H541      1.0  0.98235  0.53223  0.27815  1.0000
  C   C700      1.0  0.89211  0.50388  0.25117  1.0000
  H   H542      1.0  0.75713  0.51073  0.17776  1.0000
  H   H543      1.0  0.80253  0.54300  0.15055  1.0000
  H   H544      1.0  0.84795  0.56814  0.18347  1.0000
  H   H545      1.0  0.80448  0.52669  0.27184  1.0000
  C   C701      1.0  0.95706  0.52423  0.27099  1.0000
  H   H546      1.0  0.82409  0.46752  0.34341  1.0000
  H   H547      1.0  0.97191  0.47417  0.26485  1.0000
  S   S97       1.0  0.58502  0.65253  0.42099  1.0000
  H   H548      1.0  0.95139  0.60603  0.10935  1.0000
  C   C702      1.0  0.92537  0.36735  0.03009  1.0000
  C   C703      1.0  0.83047  0.50056  0.02904  1.0000
  H   H549      1.0  0.93561  0.57217  0.27393  1.0000
  H   H550      1.0  0.79920  0.59388  0.27563  1.0000
  H   H551      1.0  0.77713  0.61214  0.32953  1.0000
  C   C704      1.0  0.93220  0.39560  0.04816  1.0000
  P   P23       1.0  0.55725  0.44311  0.46873  1.0000
  C   C705      1.0  0.67411  0.46471  0.47215  1.0000
  H   H552      1.0  0.60247  0.52675  0.39303  1.0000
  H   H553      1.0  0.91533  0.57339  0.20231  1.0000
  Fe  Fe50      1.0  0.71290  0.64092  0.42078  1.0000
  C   C706      1.0  0.94757  0.42237  0.03285  1.0000
  H   H554      1.0  0.82380  0.37177  0.41797  1.0000
  H   H555      1.0  0.74767  0.59876  0.02507  1.0000
  H   H556      1.0  0.68227  0.49011  0.36505  1.0000
  C   C707      1.0  0.79910  0.51976  0.44078  1.0000
  H   H557      1.0  0.81382  0.48639  0.47976  1.0000
  C   C708      1.0  0.76614  0.41367  0.46372  1.0000
  H   H558      1.0  0.50622  0.40081  0.43874  1.0000
  C   C709      1.0  0.80873  0.39210  0.42667  1.0000
  C   C710      1.0  0.91775  0.62410  0.19054  1.0000
  H   H559      1.0  0.79951  0.53198  0.34898  1.0000
  P   P24       1.0  0.80049  0.49009  0.40788  1.0000
  C   C711      1.0  0.77442  0.52156  0.35213  1.0000
  H   H560      1.0  0.84840  0.63657  0.25744  1.0000
  H   H561      1.0  0.56052  0.56989  0.43340  1.0000
  C   C712      1.0  0.50876  0.60551  0.37113  1.0000
  C   C713      1.0  0.92770  0.53391  0.02518  1.0000
  H   H562      1.0  0.69505  0.52775  0.31887  1.0000
  H   H563      1.0  0.75803  0.50300  0.23848  1.0000
  C   C714      1.0  0.51576  0.42963  0.48246  1.0000
  H   H564      1.0  0.93633  0.62075  0.17104  1.0000
  H   H565      1.0  0.56417  0.51090  0.49045  1.0000
  H   H566      1.0  0.86733  0.49556  0.24298  1.0000
  H   H567      1.0  0.78263  0.36375  0.46364  1.0000
  H   H568      1.0  0.91433  0.45613  0.24714  1.0000
  H   H569      1.0  0.50330  0.54703  0.44220  1.0000
  C   C715      1.0  0.56566  0.58775  0.48280  1.0000
  H   H570      1.0  0.83883  0.34085  0.04266  1.0000
  C   C716      1.0  0.52251  0.47743  0.41901  1.0000
  H   H571      1.0  0.75448  0.46429  0.45850  1.0000
  C   C717      1.0  0.52022  0.50036  0.39359  1.0000
  H   H572      1.0  0.50659  0.58829  0.35108  1.0000
  H   H573      1.0  0.59040  0.59866  0.47810  1.0000
  H   H574      1.0  0.87149  0.58488  0.37553  1.0000
  C   C718      1.0  0.78551  0.38751  0.45235  1.0000
  C   C719      1.0  0.91875  0.48139  0.25349  1.0000
  C   C720      1.0  0.98644  0.53183  0.04323  1.0000
  C   C721      1.0  0.99190  0.50446  0.02338  1.0000
  C   C722      1.0  0.93389  0.36586  0.99669  1.0000
  H   H575      1.0  0.74857  0.41030  0.48409  1.0000
  C   C723      1.0  0.95438  0.54659  0.04400  1.0000
  C   C724      1.0  0.51474  0.65069  0.42201  1.0000
  H   H576      1.0  0.71897  0.53375  0.48800  1.0000
  C   C725      1.0  0.70934  0.50927  0.49098  1.0000
  C   C726      1.0  0.93320  0.50695  0.00488  1.0000
  C   C727      1.0  0.75016  0.58954  0.00016  1.0000
  H   H577      1.0  0.00117  0.33930  0.01497  1.0000
  C   C728      1.0  0.83465  0.44957  0.99773  1.0000
  H   H578      1.0  0.56238  0.37776  0.49634  1.0000
  S   S98       1.0  0.73055  0.34374  0.59211  1.0000
  Fe  Fe51      1.0  0.63145  0.35158  0.57997  1.0000
  S   S99       1.0  0.66166  0.38610  0.61170  1.0000
  S   S100      1.0  0.57664  0.36138  0.56330  1.0000
  Fe  Fe52      1.0  0.70018  0.38570  0.57066  1.0000
  C   C729      1.0  0.79668  0.64371  0.90279  1.0000
  H   H579      1.0  0.79410  0.58427  0.51088  1.0000
  H   H580      1.0  0.76619  0.35228  0.68509  1.0000
  H   H581      1.0  0.84468  0.42519  0.99531  1.0000
  Fe  Fe53      1.0  0.81696  0.38818  0.92221  1.0000
  S   S101      1.0  0.85528  0.35499  0.94598  1.0000
  S   S102      1.0  0.79730  0.43747  0.94032  1.0000
  H   H582      1.0  0.83175  0.41585  0.71913  1.0000
  C   C730      1.0  0.89401  0.39356  0.77269  1.0000
  H   H583      1.0  0.75100  0.43962  0.65582  1.0000
  C   C731      1.0  0.90848  0.63235  0.98098  1.0000
  C   C732      1.0  0.88494  0.41272  0.79970  1.0000
  S   S103      1.0  0.84629  0.39149  0.87517  1.0000
  C   C733      1.0  0.81172  0.46141  0.97417  1.0000
  C   C734      1.0  0.60003  0.44321  0.52427  1.0000
  S   S104      1.0  0.66858  0.35403  0.53768  1.0000
  C   C735      1.0  0.84962  0.61598  0.94490  1.0000
  H   H584      1.0  0.50860  0.37464  0.54281  1.0000
  H   H585      1.0  0.79315  0.61979  0.98911  1.0000
  C   C736      1.0  0.79891  0.49314  0.97784  1.0000
  C   C737      1.0  0.85880  0.53939  0.74069  1.0000
  H   H586      1.0  0.73895  0.49950  0.53483  1.0000
  C   C738      1.0  0.51742  0.57848  0.51881  1.0000
  C   C739      1.0  0.72726  0.56625  0.98837  1.0000
  Fe  Fe54      1.0  0.68949  0.34192  0.63112  1.0000
  H   H587      1.0  0.86734  0.49292  0.76302  1.0000
  C   C740      1.0  0.97862  0.35993  0.89697  1.0000
  C   C741      1.0  0.85645  0.43309  0.79786  1.0000
  H   H588      1.0  0.75677  0.55875  0.91013  1.0000
  H   H589      1.0  0.91564  0.37729  0.77448  1.0000
  C   C742      1.0  0.73996  0.42748  0.75016  1.0000
  S   S105      1.0  0.72444  0.43363  0.55444  1.0000
  C   C743      1.0  0.82736  0.58423  0.85685  1.0000
  C   C744      1.0  0.81388  0.49991  0.75113  1.0000
  C   C745      1.0  0.75369  0.49912  0.84870  1.0000
  C   C746      1.0  0.75285  0.47257  0.87019  1.0000
  C   C747      1.0  0.76519  0.44244  0.85983  1.0000
  C   C748      1.0  0.77910  0.43896  0.82834  1.0000
  C   C749      1.0  0.78118  0.46571  0.80696  1.0000
  C   C750      1.0  0.76757  0.49570  0.81710  1.0000
  P   P25       1.0  0.79992  0.46083  0.76649  1.0000
  H   H590      1.0  0.88169  0.37990  0.72284  1.0000
  H   H591      1.0  0.80970  0.52715  0.52400  1.0000
  C   C751      1.0  0.96323  0.46773  0.91026  1.0000
  H   H592      1.0  0.50487  0.58303  0.54213  1.0000
  C   C752      1.0  0.68506  0.44542  0.49881  1.0000
  H   H593      1.0  0.63501  0.44356  0.56522  1.0000
  C   C753      1.0  0.90870  0.46381  0.88244  1.0000
  H   H594      1.0  0.51723  0.45491  0.52939  1.0000
  C   C754      1.0  0.55001  0.59129  0.51350  1.0000
  C   C755      1.0  0.79010  0.52150  0.73730  1.0000
  C   C756      1.0  0.76851  0.44446  0.73830  1.0000
  C   C757      1.0  0.77226  0.44893  0.70411  1.0000
  C   C758      1.0  0.74782  0.43665  0.68222  1.0000
  C   C759      1.0  0.91235  0.45416  0.94114  1.0000
  S   S106      1.0  0.93726  0.37433  0.88638  1.0000
  H   H595      1.0  0.73672  0.42277  0.77619  1.0000
  H   H596      1.0  0.74386  0.52242  0.85667  1.0000
  H   H597      1.0  0.74277  0.47518  0.89495  1.0000
  H   H598      1.0  0.76430  0.42176  0.87640  1.0000
  H   H599      1.0  0.78843  0.41537  0.82079  1.0000
  H   H600      1.0  0.76805  0.51664  0.80105  1.0000
  C   C760      1.0  0.89300  0.45625  0.91235  1.0000
  C   C761      1.0  0.80062  0.55180  0.72539  1.0000
  H   H601      1.0  0.95614  0.47449  0.85805  1.0000
  C   C762      1.0  0.72608  0.33767  0.71800  1.0000
  C   C763      1.0  0.77940  0.58984  0.94742  1.0000
  C   C764      1.0  0.71938  0.42005  0.69430  1.0000
  H   H602      1.0  0.89975  0.44735  0.96386  1.0000
  H   H603      1.0  0.76339  0.51488  0.73574  1.0000
  H   H604      1.0  0.79421  0.46162  0.69429  1.0000
  H   H605      1.0  0.95460  0.39139  0.95518  1.0000
  C   C765      1.0  0.75930  0.34762  0.71047  1.0000
  C   C766      1.0  0.75561  0.56715  0.93536  1.0000
  C   C767      1.0  0.88281  0.65540  0.97625  1.0000
  C   C768      1.0  0.83663  0.43428  0.76897  1.0000
  C   C769      1.0  0.59900  0.51083  0.53111  1.0000
  C   C770      1.0  0.61912  0.49201  0.55217  1.0000
  H   H606      1.0  0.63489  0.50354  0.57075  1.0000
  P   P26       1.0  0.97222  0.45649  0.97802  1.0000
  C   C771      1.0  0.87549  0.59288  0.94999  1.0000
  C   C772      1.0  0.77611  0.60130  0.97977  1.0000
  H   H607      1.0  0.91187  0.49752  0.99099  1.0000
  C   C773      1.0  0.84640  0.41544  0.74171  1.0000
  Fe  Fe55      1.0  0.88324  0.35615  0.89742  1.0000
  S   S107      1.0  0.69386  0.33266  0.68714  1.0000
  H   H608      1.0  0.92828  0.34421  0.98238  1.0000
  C   C774      1.0  0.78370  0.35148  0.73583  1.0000
  C   C775      1.0  0.61926  0.45821  0.54901  1.0000
  P   P27       1.0  0.81208  0.60616  0.92075  1.0000
  H   H609      1.0  0.92453  0.58316  0.97199  1.0000
  H   H610      1.0  0.82470  0.60911  0.84872  1.0000
  C   C776      1.0  0.57943  0.49587  0.50656  1.0000
  H   H611      1.0  0.84960  0.44737  0.81921  1.0000
  Fe  Fe56      1.0  0.81620  0.34908  0.85614  1.0000
  H   H612      1.0  0.86592  0.45119  0.91330  1.0000
  H   H613      1.0  0.88548  0.54624  0.74177  1.0000
  H   H614      1.0  0.87319  0.56845  0.94048  1.0000
  H   H615      1.0  0.59909  0.53706  0.53337  1.0000
  H   H616      1.0  0.56275  0.60494  0.53275  1.0000
  C   C777      1.0  0.83495  0.56075  0.72706  1.0000
  C   C778      1.0  0.85343  0.64724  0.95850  1.0000
  C   C779      1.0  0.82255  0.57578  0.89008  1.0000
  H   H617      1.0  0.60116  0.41706  0.52229  1.0000
  C   C780      1.0  0.83564  0.56032  0.83362  1.0000
  C   C781      1.0  0.83890  0.52786  0.84334  1.0000
  C   C782      1.0  0.83348  0.51918  0.87620  1.0000
  C   C783      1.0  0.82568  0.54302  0.89952  1.0000
  C   C784      1.0  0.72063  0.48978  0.51748  1.0000
  H   H618      1.0  0.73495  0.33262  0.80220  1.0000
  C   C785      1.0  0.70844  0.45783  0.52163  1.0000
  S   S108      1.0  0.78337  0.34775  0.90206  1.0000
  H   H619      1.0  0.89381  0.46458  0.86002  1.0000
  H   H620      1.0  0.99042  0.47158  0.90860  1.0000
  H   H621      1.0  0.78099  0.50242  0.95993  1.0000
  C   C786      1.0  0.94380  0.46947  0.88137  1.0000
  H   H622      1.0  0.89961  0.41106  0.82236  1.0000
  S   S109      1.0  0.80703  0.35307  0.80003  1.0000
  C   C787      1.0  0.84836  0.50908  0.75271  1.0000
  C   C788      1.0  0.90479  0.60111  0.96788  1.0000
  C   C789      1.0  0.87487  0.39505  0.74366  1.0000
  C   C790      1.0  0.72989  0.55515  0.95592  1.0000
  C   C791      1.0  0.50265  0.43934  0.51310  1.0000
  H   H623      1.0  0.84508  0.50933  0.82538  1.0000
  H   H624      1.0  0.83483  0.49390  0.88367  1.0000
  H   H625      1.0  0.82195  0.53582  0.92497  1.0000
  C   C792      1.0  0.94760  0.46018  0.94047  1.0000
  H   H626      1.0  0.78214  0.56829  0.71465  1.0000
  C   C793      1.0  0.71537  0.41566  0.72822  1.0000
  H   H627      1.0  0.84311  0.58416  0.71761  1.0000
  H   H628      1.0  0.71197  0.53724  0.94675  1.0000
  H   H629      1.0  0.83938  0.56698  0.80803  1.0000
  H   H630      1.0  0.70081  0.40980  0.67738  1.0000
  H   H631      1.0  0.69375  0.40193  0.73736  1.0000
  H   H632      1.0  0.80936  0.35855  0.72949  1.0000
  C   C794      1.0  0.94900  0.39262  0.98131  1.0000
  C   C795      1.0  0.74200  0.33647  0.77675  1.0000
  C   C796      1.0  0.53681  0.35028  0.58092  1.0000
  C   C797      1.0  0.77521  0.34634  0.76917  1.0000
  H   H633      1.0  0.74498  0.63933  0.92157  1.0000
  H   H634      1.0  0.84574  0.65724  0.88254  1.0000
  C   C798      1.0  0.50673  0.36052  0.56514  1.0000
  C   C799      1.0  0.58040  0.46196  0.50238  1.0000
  C   C800      1.0  0.81937  0.66427  0.88592  1.0000
  H   H635      1.0  0.67555  0.42089  0.50158  1.0000
  C   C801      1.0  0.76293  0.65405  0.90789  1.0000
  C   C802      1.0  0.80474  0.53420  0.49871  1.0000
  H   H636      1.0  0.93078  0.63847  0.99559  1.0000
  H   H637      1.0  0.83350  0.66524  0.95588  1.0000
  S   S110      1.0  0.76069  0.67069  0.02670  1.0000
  H   H638      1.0  0.53117  0.86202  0.05313  1.0000
  H   H639      1.0  0.74027  0.74623  0.05821  1.0000
  C   C803      1.0  0.96829  0.95983  0.46505  1.0000
  C   C804      1.0  0.73771  0.71222  0.09793  1.0000
  C   C805      1.0  0.63421  0.96842  0.31424  1.0000
  C   C806      1.0  0.99202  0.93610  0.45540  1.0000
  H   H640      1.0  0.71831  0.69757  0.08598  1.0000
  H   H641      1.0  0.77183  0.81709  0.13939  1.0000
  C   C807      1.0  0.75201  0.87518  0.48039  1.0000
  C   C808      1.0  0.72896  0.81910  0.00173  1.0000
  H   H642      1.0  0.72049  0.88697  0.04877  1.0000
  C   C809      1.0  0.77661  0.75831  0.09671  1.0000
  C   C810      1.0  0.69060  0.99167  0.00410  1.0000
  C   C811      1.0  0.76054  0.70504  0.46695  1.0000
  C   C812      1.0  0.77726  0.72045  0.14289  1.0000
  C   C813      1.0  0.95428  0.98399  0.38175  1.0000
  C   C814      1.0  0.75114  0.70245  0.12826  1.0000
  C   C815      1.0  0.52338  0.86708  0.00054  1.0000
  H   H643      1.0  0.51692  0.66841  0.44160  1.0000
  S   S111      1.0  0.75832  0.66808  0.44386  1.0000
  H   H644      1.0  0.62423  0.92573  0.00874  1.0000
  H   H645      1.0  0.63500  0.97108  0.04729  1.0000
  C   C816      1.0  0.88186  0.92054  0.41959  1.0000
  H   H646      1.0  0.70812  0.95148  0.30676  1.0000
  C   C817      1.0  0.73153  0.72301  0.47538  1.0000
  H   H647      1.0  0.78822  0.71224  0.16599  1.0000
  H   H648      1.0  0.58864  0.99208  0.08271  1.0000
  C   C818      1.0  0.86466  0.91187  0.44839  1.0000
  C   C819      1.0  0.61558  0.85196  0.02309  1.0000
  H   H649      1.0  0.61439  0.86886  0.04350  1.0000
  C   C820      1.0  0.75174  0.84556  0.06127  1.0000
  C   C821      1.0  0.65006  0.99104  0.36720  1.0000
  H   H650      1.0  0.91340  0.67564  0.18238  1.0000
  C   C822      1.0  0.51453  0.85687  0.03245  1.0000
  H   H651      1.0  0.76050  0.77811  0.01335  1.0000
  H   H652      1.0  0.87893  0.92409  0.36674  1.0000
  H   H653      1.0  0.87698  0.91415  0.47213  1.0000
  H   H654      1.0  0.81143  0.76072  0.13831  1.0000
  H   H655      1.0  0.79716  0.85524  0.17961  1.0000
  H   H656      1.0  0.74201  0.68043  0.14006  1.0000
  C   C823      1.0  0.81082  0.96559  0.48826  1.0000
  C   C824      1.0  0.70113  0.95908  0.00117  1.0000
  H   H657      1.0  0.71213  0.94692  0.02228  1.0000
  H   H658      1.0  0.90785  0.92938  0.42095  1.0000
  H   H659      1.0  0.76050  0.85662  0.08390  1.0000
  C   C825      1.0  0.75037  0.73999  0.08217  1.0000
  C   C826      1.0  0.79018  0.74807  0.12712  1.0000
  C   C827      1.0  0.88065  0.75434  0.00795  1.0000
  H   H660      1.0  0.76677  0.85298  0.47875  1.0000
  H   H661      1.0  0.84292  0.73841  0.08139  1.0000
  H   H662      1.0  0.81535  0.70322  0.47048  1.0000
  C   C828      1.0  0.71470  0.93268  0.48635  1.0000
  C   C829      1.0  0.86549  0.91768  0.38911  1.0000
  H   H663      1.0  0.82112  0.81418  0.01070  1.0000
  H   H664      1.0  0.88851  0.71795  0.04548  1.0000
  C   C830      1.0  0.83110  0.90067  0.44690  1.0000
  C   C831      1.0  0.81397  0.89903  0.41663  1.0000
  C   C832      1.0  0.83170  0.90679  0.38756  1.0000
  P   P28       1.0  0.77017  0.88555  0.41485  1.0000
  C   C833      1.0  0.74905  0.89597  0.45309  1.0000
  C   C834      1.0  0.74966  0.90628  0.38090  1.0000
  C   C835      1.0  0.72804  0.88952  0.35911  1.0000
  C   C836      1.0  0.71304  0.90582  0.33251  1.0000
  C   C837      1.0  0.71951  0.93890  0.32749  1.0000
  C   C838      1.0  0.74079  0.95577  0.34918  1.0000
  C   C839      1.0  0.75594  0.93956  0.37568  1.0000
  C   C840      1.0  0.73001  0.92473  0.45625  1.0000
  H   H665      1.0  0.85339  0.88067  0.16841  1.0000
  H   H666      1.0  0.51931  0.92278  0.04072  1.0000
  C   C841      1.0  0.60997  0.95994  0.04626  1.0000
  C   C842      1.0  0.57141  0.91954  0.02324  1.0000
  C   C843      1.0  0.76861  0.84180  0.41042  1.0000
  C   C844      1.0  0.79803  0.82404  0.40236  1.0000
  C   C845      1.0  0.79699  0.79004  0.40125  1.0000
  C   C846      1.0  0.76666  0.77354  0.40807  1.0000
  C   C847      1.0  0.73727  0.79102  0.41594  1.0000
  C   C848      1.0  0.73820  0.82500  0.41716  1.0000
  C   C849      1.0  0.63546  0.96600  0.34861  1.0000
  H   H667      1.0  0.88427  0.86778  0.11667  1.0000
  C   C850      1.0  0.55132  0.95787  0.06446  1.0000
  H   H668      1.0  0.81852  0.89393  0.46958  1.0000
  H   H669      1.0  0.81942  0.90463  0.36375  1.0000
  H   H670      1.0  0.72293  0.86386  0.36237  1.0000
  H   H671      1.0  0.69655  0.89271  0.31566  1.0000
  H   H672      1.0  0.85947  0.82976  0.07632  1.0000
  C   C851      1.0  0.94237  0.99747  0.41139  1.0000
  H   H673      1.0  0.77263  0.95304  0.39210  1.0000
  H   H674      1.0  0.72724  0.94139  0.43587  1.0000
  C   C852      1.0  0.96412  0.89627  0.49010  1.0000
  H   H675      1.0  0.74572  0.98142  0.34546  1.0000
  H   H676      1.0  0.98016  0.97507  0.37986  1.0000
  H   H677      1.0  0.62542  0.94459  0.36082  1.0000
  H   H678      1.0  0.82200  0.83620  0.39765  1.0000
  H   H679      1.0  0.81986  0.77633  0.39575  1.0000
  H   H680      1.0  0.76603  0.74715  0.40784  1.0000
  H   H681      1.0  0.71400  0.77805  0.42189  1.0000
  H   H682      1.0  0.71539  0.83811  0.42415  1.0000
  C   C853      1.0  0.81075  0.84950  0.15710  1.0000
  C   C854      1.0  0.84240  0.86384  0.15079  1.0000
  C   C855      1.0  0.85980  0.85656  0.12165  1.0000
  C   C856      1.0  0.84566  0.83487  0.09883  1.0000
  C   C857      1.0  0.81407  0.82006  0.10519  1.0000
  C   C858      1.0  0.79654  0.82781  0.13434  1.0000
  P   P29       1.0  0.79495  0.79288  0.07544  1.0000
  C   C859      1.0  0.76335  0.81467  0.05145  1.0000
  C   C860      1.0  0.82800  0.77747  0.04858  1.0000
  C   C861      1.0  0.83546  0.79308  0.01861  1.0000
  C   C862      1.0  0.54495  0.93225  0.04263  1.0000
  C   C863      1.0  0.99002  0.90451  0.46804  1.0000
  C   C864      1.0  0.87369  0.73894  0.03790  1.0000
  C   C865      1.0  0.84759  0.75053  0.05819  1.0000
  C   C866      1.0  0.75154  0.80158  0.02162  1.0000
  C   C867      1.0  0.94188  0.95110  0.48670  1.0000
  H   H683      1.0  0.70662  0.71439  0.46795  1.0000
  H   H684      1.0  0.77606  0.97805  0.44893  1.0000
  C   C868      1.0  0.71781  0.84983  0.01149  1.0000
  C   C869      1.0  0.63790  0.82549  0.02504  1.0000
  C   C870      1.0  0.60380  0.93409  0.02464  1.0000
  H   H685      1.0  0.62324  0.94883  0.29981  1.0000
  C   C871      1.0  0.79595  0.74611  0.49481  1.0000
  H   H686      1.0  0.94256  0.97305  0.33099  1.0000
  C   C872      1.0  0.58379  0.97179  0.06624  1.0000
  C   C873      1.0  0.72902  0.86300  0.04134  1.0000
  S   S112      1.0  0.83260  0.66914  0.09638  1.0000
  H   H687      1.0  0.65416  0.82249  0.04644  1.0000
  H   H688      1.0  0.79797  0.94315  0.49442  1.0000
  H   H689      1.0  0.78795  0.67166  0.24606  1.0000
  C   C874      1.0  0.93296  0.98256  0.35409  1.0000
  H   H690      1.0  0.53097  0.96710  0.07980  1.0000
  C   C875      1.0  0.79826  0.98553  0.46269  1.0000
  H   H691      1.0  0.70071  0.95524  0.48884  1.0000
  H   H692      1.0  0.99581  0.68202  0.05092  1.0000
  C   C876      1.0  0.64745  0.99591  0.29844  1.0000
  C   C877      1.0  0.79270  0.71682  0.47685  1.0000
  C   C878      1.0  0.73478  0.75229  0.49341  1.0000
  H   H693      1.0  0.64722  0.99694  0.27175  1.0000
  H   H694      1.0  0.86950  0.68326  0.22573  1.0000
  C   C879      1.0  0.86162  0.78147  0.99838  1.0000
  C   C880      1.0  0.89944  0.99394  0.35607  1.0000
  H   H695      1.0  0.65153  0.98895  0.39381  1.0000
  H   H696      1.0  0.88305  0.99338  0.33457  1.0000
  C   C881      1.0  0.63922  0.80275  0.99944  1.0000
  H   H697      1.0  0.65661  0.78231  0.00083  1.0000
  C   C882      1.0  0.76148  0.70248  0.99674  1.0000
  H   H698      1.0  0.92209  0.96829  0.49324  1.0000
  Fe  Fe57      1.0  0.83912  0.85388  0.61438  1.0000
  S   S113      1.0  0.85044  0.80851  0.58526  1.0000
  S   S114      1.0  0.83434  0.85036  0.67089  1.0000
  Fe  Fe58      1.0  0.84777  0.89723  0.55209  1.0000
  S   S115      1.0  0.85811  0.85424  0.51911  1.0000
  S   S116      1.0  0.85825  0.95004  0.53713  1.0000
  Fe  Fe59      1.0  0.81549  0.82909  0.54667  1.0000
  S   S117      1.0  0.76940  0.80129  0.52576  1.0000
  Fe  Fe60      1.0  0.89219  0.83698  0.56031  1.0000
  S   S118      1.0  0.94387  0.81355  0.55017  1.0000
  S   S119      1.0  0.80243  0.87387  0.57688  1.0000
  S   S120      1.0  0.88379  0.88065  0.59209  1.0000
  Fe  Fe61      1.0  0.68830  0.88556  0.88988  1.0000
  S   S121      1.0  0.67466  0.84209  0.92098  1.0000
  S   S122      1.0  0.68382  0.93950  0.90373  1.0000
  Fe  Fe62      1.0  0.69975  0.84413  0.82678  1.0000
  S   S123      1.0  0.68607  0.79774  0.85362  1.0000
  S   S124      1.0  0.70659  0.84747  0.77020  1.0000
  Fe  Fe63      1.0  0.64309  0.82605  0.87722  1.0000
  S   S125      1.0  0.59081  0.80180  0.88377  1.0000
  Fe  Fe64      1.0  0.71833  0.81662  0.89552  1.0000
  S   S126      1.0  0.76059  0.78643  0.92051  1.0000
  S   S127      1.0  0.65418  0.87079  0.84762  1.0000
  S   S128      1.0  0.73457  0.86179  0.86724  1.0000
  C   C883      1.0  0.75987  0.75339  0.94909  1.0000
  H   H699      1.0  0.71220  0.76598  0.49971  1.0000
  C   C884      1.0  0.73036  0.71416  0.98402  1.0000
  P   P30       1.0  0.99716  0.88919  0.67197  1.0000
  C   C885      1.0  0.52091  0.80362  0.89168  1.0000
  C   C886      1.0  0.55045  0.82156  0.88389  1.0000
  C   C887      1.0  0.54718  0.85464  0.87672  1.0000
  H   H700      1.0  0.52314  0.77798  0.89721  1.0000
  H   H701      1.0  0.56954  0.86864  0.87028  1.0000
  C   C888      1.0  0.79841  0.85006  0.69804  1.0000
  C   C889      1.0  0.80352  0.84327  0.73175  1.0000
  C   C890      1.0  0.77597  0.84273  0.75424  1.0000
  C   C891      1.0  0.74277  0.84910  0.74334  1.0000
  C   C892      1.0  0.73774  0.85624  0.70965  1.0000
  C   C893      1.0  0.76526  0.85657  0.68716  1.0000
  H   H702      1.0  0.82902  0.83832  0.74057  1.0000
  H   H703      1.0  0.78040  0.83723  0.77997  1.0000
  H   H704      1.0  0.71234  0.86168  0.70088  1.0000
  H   H705      1.0  0.76092  0.86217  0.66148  1.0000
  C   C894      1.0  0.68366  0.88667  0.61849  1.0000
  C   C895      1.0  0.56336  0.90861  0.95430  1.0000
  C   C896      1.0  0.59261  0.92646  0.90480  1.0000
  C   C897      1.0  0.56405  0.94453  0.89551  1.0000
  C   C898      1.0  0.95387  0.94617  0.74356  1.0000
  C   C899      1.0  0.79783  0.75012  0.60925  1.0000
  H   H706      1.0  0.65451  0.79676  0.57535  1.0000
  C   C900      1.0  0.79098  0.74134  0.96142  1.0000
  H   H707      1.0  0.63640  0.87932  0.64444  1.0000
  C   C901      1.0  0.66352  0.83429  0.63759  1.0000
  H   H708      1.0  0.96335  0.88031  0.56609  1.0000
  C   C902      1.0  0.68486  0.95804  0.94328  1.0000
  H   H709      1.0  0.80986  0.77314  0.68896  1.0000
  C   C903      1.0  0.79660  0.76760  0.66616  1.0000
  C   C904      1.0  0.71746  0.83828  0.60879  1.0000
  H   H710      1.0  0.82629  0.71083  0.86224  1.0000
  H   H711      1.0  0.84174  0.75104  0.64120  1.0000
  H   H712      1.0  0.75135  0.75463  0.58220  1.0000
  C   C905      1.0  0.97573  0.90270  0.70893  1.0000
  C   C906      1.0  0.76316  0.75721  0.60621  1.0000
  H   H713      1.0  0.93691  0.95073  0.58491  1.0000
  C   C907      1.0  0.94621  0.89008  0.76005  1.0000
  P   P31       1.0  0.56328  0.88791  0.99345  1.0000
  H   H714      1.0  0.86683  0.79331  0.97505  1.0000
  C   C908      1.0  0.97846  0.79968  0.63079  1.0000
  P   P32       1.0  0.69927  0.77610  0.63008  1.0000
  H   H715      1.0  0.70670  0.70361  0.99258  1.0000
  C   C909      1.0  0.64971  0.75563  0.54326  1.0000
  H   H716      1.0  0.95003  0.97186  0.74811  1.0000
  H   H717      1.0  0.63413  0.76853  0.52550  1.0000
  C   C910      1.0  0.97620  0.85274  0.65718  1.0000
  C   C911      1.0  0.94066  0.84931  0.66028  1.0000
  C   C912      1.0  0.92432  0.82131  0.64875  1.0000
  H   H718      1.0  0.70607  0.91795  0.53668  1.0000
  H   H719      1.0  0.70516  0.99149  0.84298  1.0000
  C   C913      1.0  0.94132  0.92323  0.76592  1.0000
  C   C914      1.0  0.97107  0.93599  0.71517  1.0000
  H   H720      1.0  0.99290  0.78092  0.61832  1.0000
  C   C915      1.0  0.99356  0.92090  0.64122  1.0000
  C   C916      1.0  0.96027  0.94870  0.59916  1.0000
  C   C917      1.0  0.61798  0.80630  0.97202  1.0000
  C   C918      1.0  0.96334  0.92431  0.62301  1.0000
  C   C919      1.0  0.98633  0.86608  0.56339  1.0000
  C   C920      1.0  0.74450  0.76820  0.63360  1.0000
  H   H721      1.0  0.61881  0.78869  0.95210  1.0000
  H   H722      1.0  0.90080  0.74524  0.99222  1.0000
  H   H723      1.0  0.93632  0.87227  0.77729  1.0000
  H   H724      1.0  0.56421  0.95786  0.87248  1.0000
  H   H725      1.0  0.68038  0.91274  0.61640  1.0000
  H   H726      1.0  0.92531  0.86834  0.67123  1.0000
  H   H727      1.0  0.89688  0.81906  0.65079  1.0000
  H   H728      1.0  0.70729  0.70953  0.60536  1.0000
  C   C921      1.0  0.98732  0.97013  0.59354  1.0000
  H   H729      1.0  0.92768  0.93111  0.78772  1.0000
  C   C922      1.0  0.67942  0.70679  0.55987  1.0000
  C   C923      1.0  0.69088  0.72253  0.58839  1.0000
  H   H730      1.0  0.51283  0.95854  0.90829  1.0000
  C   C924      1.0  0.98390  0.83292  0.55621  1.0000
  H   H731      1.0  0.94215  0.90800  0.62700  1.0000
  C   C925      1.0  0.59247  0.90873  0.93422  1.0000
  C   C926      1.0  0.81457  0.75533  0.63922  1.0000
  H   H732      1.0  0.74867  0.78383  0.68462  1.0000
  H   H733      1.0  0.81197  0.74181  0.58789  1.0000
  C   C927      1.0  0.53521  0.94496  0.91570  1.0000
  C   C928      1.0  0.77504  0.70480  0.87988  1.0000
  H   H734      1.0  0.93032  0.77545  0.62382  1.0000
  C   C929      1.0  0.66558  0.77186  0.72574  1.0000
  H   H735      1.0  0.70534  0.74835  0.95127  1.0000
  H   H736      1.0  0.57926  0.83500  0.94860  1.0000
  C   C930      1.0  0.69838  0.94234  0.97091  1.0000
  C   C931      1.0  0.53492  0.92712  0.94502  1.0000
  H   H737      1.0  0.69400  0.80511  0.69608  1.0000
  H   H738      1.0  0.73181  0.88651  0.59326  1.0000
  C   C932      1.0  0.76170  0.77387  0.66347  1.0000
  C   C933      1.0  0.72949  0.73952  0.96050  1.0000
  H   H739      1.0  0.50947  0.86440  0.94895  1.0000
  H   H740      1.0  0.65908  0.71756  0.64780  1.0000
  C   C934      1.0  0.68217  0.75515  0.59440  1.0000
  H   H741      1.0  0.61486  0.92597  0.88900  1.0000
  C   C935      1.0  0.80855  0.69467  0.87452  1.0000
  H   H742      1.0  0.70760  0.91768  0.96868  1.0000
  H   H743      1.0  0.61513  0.89533  0.94114  1.0000
  C   C936      1.0  0.71270  0.87185  0.60547  1.0000
  H   H744      1.0  0.92035  0.91315  0.51700  1.0000
  H   H745      1.0  0.63653  0.73444  0.74986  1.0000
  C   C937      1.0  0.66120  0.73299  0.66925  1.0000
  C   C938      1.0  0.50242  0.85829  0.97394  1.0000
  C   C939      1.0  0.59577  0.83278  0.96993  1.0000
  C   C940      1.0  0.75225  0.68446  0.89643  1.0000
  H   H746      1.0  0.66751  0.78703  0.74761  1.0000
  H   H747      1.0  0.64400  0.82009  0.64979  1.0000
  C   C941      1.0  0.51493  0.86967  0.87791  1.0000
  H   H748      1.0  0.76691  0.72881  0.87199  1.0000
  C   C942      1.0  0.64819  0.74226  0.72697  1.0000
  C   C943      1.0  0.69328  0.81941  0.62565  1.0000
  H   H749      1.0  0.65046  0.71125  0.51493  1.0000
  C   C944      1.0  0.65895  0.86785  0.63434  1.0000
  C   C945      1.0  0.67889  0.76269  0.66783  1.0000
  C   C946      1.0  0.65886  0.72333  0.53730  1.0000
  C   C947      1.0  0.79183  0.71638  0.98536  1.0000
  C   C948      1.0  0.68075  0.78205  0.69635  1.0000
  C   C949      1.0  0.96349  0.87982  0.73177  1.0000
  C   C950      1.0  0.83992  0.97486  0.50589  1.0000
  C   C951      1.0  0.64594  0.72285  0.69873  1.0000
  H   H750      1.0  0.74020  0.82721  0.59856  1.0000
  H   H751      1.0  0.81461  0.75172  0.95265  1.0000
  C   C952      1.0  0.66135  0.77155  0.57164  1.0000
  C   C953      1.0  0.94317  0.79658  0.63388  1.0000
  H   H752      1.0  0.73868  0.86654  0.53106  1.0000
  C   C954      1.0  0.59462  0.85595  0.99527  1.0000
  H   H753      1.0  0.88523  0.67927  0.98732  1.0000
  H   H754      1.0  0.63244  0.69989  0.69973  1.0000
  C   C955      1.0  0.73627  0.88294  0.51026  1.0000
  H   H755      1.0  0.98502  0.98884  0.57493  1.0000
  C   C956      1.0  0.71780  0.91177  0.51334  1.0000
  H   H756      1.0  0.72654  0.69280  0.90132  1.0000
  H   H757      1.0  0.68702  0.68194  0.55486  1.0000
  C   C957      1.0  0.76698  0.76408  0.50320  1.0000
  H   H758      1.0  0.51276  0.89529  0.87242  1.0000
  C   C958      1.0  0.67327  0.99024  0.94654  1.0000
  H   H759      1.0  0.98048  0.95412  0.69812  1.0000
  H   H760      1.0  0.52233  0.98465  0.98196  1.0000
  H   H761      1.0  0.51245  0.92755  0.96043  1.0000
  C   C959      1.0  0.94040  0.91966  0.49979  1.0000
  H   H762      1.0  0.70053  0.86341  0.99580  1.0000
  H   H763      1.0  0.96703  0.85401  0.72758  1.0000
  H   H764      1.0  0.96221  0.87163  0.49949  1.0000
  H   H765      1.0  0.82088  0.75479  0.50210  1.0000
  H   H766      1.0  0.72056  0.80906  0.97837  1.0000
  C   C960      1.0  0.99495  0.82765  0.64225  1.0000
  H   H767      1.0  0.81592  0.70801  0.99511  1.0000
  H   H768      1.0  0.58355  0.99557  0.97546  1.0000
