data_image0
_chemical_formula_structural       SFeSHFeCFeS3CFeS2FeS2FeSFeHS2FeS2FeS2FeSFeS3C6H2FeHC6H4C6H4C6H4CHC3HC5H2C5HCHCHPH4CHC3HCH2C6H2C2H3CH3C2HPH7SCH2C3H3C2H2C3H4C4HC4H2CH5CH3C2HCHC2HC5H2CHC3HCSH4C6PC8HCH2C6H10C4H4C8PC18HCH18C5FeHPHPC12H6C11H4CPCHC2H2C2HC2HC2HCHCHC3H4CSC3HCHC3SHC2H3CH4C2HSC2HSCFeSCFeS2FeSFeS3FeS2FeS2FeSFeS3FeSCHSFeSFeHSC6HPH2C6H4C6H4C6H4CPHC2H3C2H2PCH2C2H2CHCH2C7HCHC2H2CHCH2C2PHC6H2CH2PCH2CHC6H2CH3CH2CHC2H5CH3CH2C3HC2HC6HCH2CH2C4HSHCH3CH2C3H2C3HC3H2CHC7H2C2H3CHC4HC2HC6H4C3HCH3C3HPC10HC3HC4H2C2HCH5CH3CH2PC3HC3H2C2H4C8SC4HCH3C5HPC2HCH2CH4C3H6C2H2CHC3H5CH2C2HC4HCHCH2FeS2HSHFeSHSHFeS2FeS2FeSFeS3FeS2C6H5C4H3C3HC7H4C8H4CHC9PC18H11C2H7CHC2HC4H2C3HC3HCH4C3H3C3HC2HC4H2C2HCHCHCHCHCHC2HFeCHC4H4CHCHCHCPHC2HCHC2HC3H3CHCH2CHCH2C3HCHC2PHCHC2H3CHCH2CHCH4CH4C2H2CH4C2FeCH3C2SPC4HSCFeSHFeSCSFeS2FeS2FeSFeS3FeS2C6H4CHC2HC2H2C6H5PC8H3SC6H2C3H2CH3CH2CHCH2CHCH2FeC3H2C2H2C7H2PCH2C3H5CHC9HCHCHC2H2C7PC19H15CHC2H8C3H4C2H3C3H2CHCHCH2CH3CHC5H2CHCHCFeC2HCH2CH2CH2C3H2CHC2HC5HC5SFeS2C2FeSFeCS2FeS2FeS2FeSFeS3FeS2C6H4C6H4C2H2C3H2C6H5C9PC5HC3H5PCH3CH3CHC2PC3HCHCHC3HC2HCHC2H2C3HC2H2C3HC2HCHC3PC10HC2PCHC3H3FeH3CH2C4HC3HC2HCHCH2C2H2CHCPH5C2H7CHC3H2C2HC3H2C2HC3H4CHCHPH7C2HC5HCH2CHC2H2CHC5HSHC2HC5H2CHCHC2HCH2CH2C5PCH3C2H4CHCFeS2CSCHFeSCSFeS2FeS2FeSFeS3CSHC6H4C2H3CH2CHC6H4CPC9H10C3H2FeCSC6PC8HPC8H11CH8C6HCH2C2PCH2C2H3C4HC2H3CHC4H5CFeC5HC4HC7HCHCH2C3H5CHCH8CHC2HFeCH2CHC6HC3HC2H5CH3CH2CH3C2H6CHC2SFeS2FeS2FeSFeS3FeS2FeS2FeSFeS2FeS2CHC3HSHCH2C3H2C2HCH3C4H2C3HC2H4C6H4C6H4C7H4FeC6PC16HCH7CFeH9CH3C3HCH2CHC2H2C5HC8H3CH2CH2PCHCHC3H2C2H5CH6CH3CH3C2HC3H3CSHCHC2H2CHCSC3HC2HCHCPC3H2CH2C2PC2SHC5H3CHPH3CH2CH3CHCH2CHCH3C2HC4HCHCFeH3SHC2HC3FeHFeHSCHS2CHSFeS2FeS2FeSFeS3FeS2FeS2Fe2S3C5H2C2H3C7H2CHC6H4C6H4C8H5C3H2CSC3PC5HC2HC4H10C2H3C3HC2PHCHCH2C2HC9H2C3HCHCH2CH2CH4C7PC15HCHCH13CSH2C9PC12H8SHCH4CHC4H2C2H2CSHCH3PH2C6PHCH2CH3C6H5CHC2HC2HC3H5CH2CHCHCH2CFeCH3CH2CHCHCHC2HC8H4C2H2CH2C2HC2HC2HCH2CH2CH2CHCH3CFeCHSH2PC7HCH2CH2SHSHFeS2HSFeSFeS3FeS2FeSCFeSFeS3HCSCSHC7H4C6H4CSHC6H4C3H2C6H4CH4CH2C6H5C5H4CHCSCHC3HC2HCHCHC4HC4HCH2C4H3C4H2FePH2C2H2C2FeCHCHCHCH3CH3FeCH4C7PC18H18PHC3H2CHC3H4SC3HCHSH3C2HC2SC4H3CH5CHC2FeSFeS2FeSFeS3FeS2FeS2FeSFeS3HCSHS2HC6H4C2H2CH2C6H4C6H4CSCHC7H4C6HPHCH2C3H5C3H3C3H8CHC2HCHC2H2C2HFeCHCH2CH3SCHCHCFeCHPHC4SCHPC4HC2H2CHC8H2CH7CHCH2C3HC3PC15H2CH2C2H7C8PC2HC7H5C3H2CH2C2HCH2CH2C2H5C6HC2HCHSFeS2FeS2FeSFeS2FeHSCS2FeHSHC4S2CHSHFeS2FeS2FeSFeS2C6H4C6H5C2H2C2H2CHCHCH2C9H4C6H4C3HSH2CHC2H4C2H2CH2FeCH2C3HC3H3CHCHCHC4H3C2HC2HC3PC19H18CH5C2PC2H2CH2CH2C2H2CH2C2HFeHC8PC18HFeH20CH2C4HC3H5C3HSC7HCHCS2CHC3SCH2CH2CHCH2C2FeH2CHC3HCHC2PC12HCHC5HCPH2CHSH2C2HCH4CH2CHC2SC3HC4H3CHS2C2SH3PHCHCHC2FeH2CH2C2H2C2H3CSC2HCHSFeS2H2FeH2SCFeSHFeS2FeS2Fe2S3HSCHFeS2FeS2FeSFeS2FeCSCSHCSCHC5HCH2C6H4C7H3C2HPH2C7H4CSFeHC10H5CHC3H4C4PH3CH2SCHCH3FeSC9PCHC7HC3H9CHCH2C6PCHC9H5CH6C6PC18HFe2H17S2C15HSH6C2HCH2C2H2C9HC6H5PCHCH2CH8PC3HFeHC2H2CHC3SC4HCH5CHSHCHCH3CHC4PC8HC7HCH12CH4C3H3C6H2C4H2SC2H2C7H2C2HCH3CHC2H4CHCHCHC3H3C3H2C2PCH3CH2C2HSCSH2SCFeSHC2SFeS2FeS2FeHFeS3FeHFeS2FeSCS3C2FeS2FeS2FeSFeHS2C6H4CH2C2HC6H4C4HC2HC7H4C8FeH2C6H7CHC2H4SHPHCHCH2C4HC5SC5HSHC4SC4H3CH7CH7CHC3PC19H5CH5CH9CH2CHCHCH2CHC2H2C2H2C2HCHFeHC2HC7HC4HCHCSH3SHC2H3C2HCH4C5H4C6PC16H15CH2C6H2C2H2C2H3CHC3H3CPC3H4C5HCHCH2CFePHC6H2CH2C4HCHC3H3FeC2H2CH3CFeC2H2C3HC2H2CHC5H2CHCHC2SHC2H4CH2C2HPCHPC2HC2H2C2H3CH2C3PC2HCSHSC2HC2SCHC2FeS2FeS2FeSFeCS2FeS2CHFeSHSHSHFeSHFeS2FeSFeS3HSCHSFeSFeC6H3C8H3C6H4C3HC2H2SPC11H4C6H4CH2C2HCHCSCHC2H3C3PC9HC8H9C2H7CHC5H6C3SHC2PC10HC7HC2H9C2SH9CHSH3PHCHC3HC3SC2HC2H2C2SHCHCH2C3H2CHPH2C2H4C6PC12HC3HC2H4CSH4CH6C7PC18H15CH2CHCH3CHC3HFeHC3H2C3SHCH2C4H3SH3C3HCH2C3FeH2C3HC3FeH2CH6CH3C2H2CH2C4FeS2FeSFeSFeS3FeSCFeS2FeSFeS3FeS2FeS2C6H4C6H5C3H3C7H6C8H4C2HCH2C3HC6PCHCH2C2H2C3H2CH3CH3C10H5C2H3C5H4C2HC4HP2HCHC2HC5HCH3CHC6H2C5H2CHCH2CHCH5CHPC5H3C4HCHC2HC2HCH2C4H3C2H2CH2SHC2H3C2H3PHC2HCSC2H5CH2C2HC2H3CHC2H4C2HCH2C4HC4HC2HC2FeS2FeSFeSFeS3FeSCFeS2FeSFeS3FeS2FeS2C6H6C6HCH2C6H4C4H2C6H6C3HPHC4H3C2H2CHSCH6CH2CH2CHC5HCH6CHCH2CHC8H2C2H7C2HCH2CHPH3CHC2HC3HCHCH4CHCH3C2HC5HC6H2C3H3CHC2H2C2H2CHPC2HCHC2HCHC5H3C12PC8HCHCH3CHCHCH2C5HC2HC3HC2HCH2C3H2C3SCFeSCHCSFeS2FeS2FeCFeS3FeS2FeS2FeSFeS4C6H4C2PC7H4C6H4C6H4C3HC2HC2H4C2HC7PC14H2CH15CHC2H3C3HCHC2HCH3SCHC3HCH3CH2PCHCHC10H2SH3CHCHC4H2C2H3CHC2H2CSHC2HC8HCH2CHC5H6C2HC5H4FeHCHC3HCH6C3HFeHCHC4HC3PC2H2C2H6CH3C2HPCHCHC3SCHC2HCPHC3HCH2CHFeCH2C2HC2H2S2H5FeSCFeS2FeHFeS3FeS2FeS2FeSFeS3FeHSHSCSCHC6H8C6HCH2C6H4C6H4PH2C3H5C6PC2H2C9HC3H5C2H7C2H3SC5H2CH4CH2CHFeHC3HC2HCHCHCHCH2CH2C4HC4HSHCHFeC2H2C3HCH5CHCH4C2HCH2C5HC2H2C4H2C5HCSPCHC3HC2PH2CHCH2CHC4H2C3HC2HCHC4H2C3HCHCHFeHCHCHC3HCSHC2H4PCSC2HC3HCHCHCHC2H3SHCH2C2HC2HCH2C2HSHC2FeSCFeS2FeSFeS3FeS2FeS2FeSFeS3CHSC6H6CH2C6H7C2H2C6H4C4H3CHC4PHCH3C6H2CH3CH2C3HC4HC6PCFeC2H2SC8H2C2H2CHC4H2C3H6CHCHC2PC18HC4H2C3H11C4H2CH3CHCH2CHC3H2C4H10CSHCHCH3C2H2CHPHPCH2CH2C2H2C2H3C8HCH4C2H3C2HC2H2CHC2FeSCFeS2FeSFeHS2FeS2FeS2FeSFeS3CSC7H4C3H2C6H4CH2C2HCH2C6H4C2H4CHPHC3HCH3C2PCHCHC3H2CHC8HCHC2HC2PC2HCHC4HCH2C4SH2CHC2HC2HC4HCH4C4HCH6CSC2HCH2CHCH3C5HCHC2H3CHC2HCHCHPC4H6CH3CHC2HC3H2CH2CHSHSC2HCHC4H2CH2CHC2H2C2HCHCHCHC3HCHPCH2Fe2SCFeS2FeSFeSHSHFeS2FeS2FeSFeS3CSHC6H5C3H2C6H4CHC7H4C3H3C2SHC2H4C6H2C6HCH2CH2C4HSCHC4H3PC2HC3PC9H3C6H12C2H5CHC2HC5HC2HCHCPC3H3CH3CHCH2CH3C2H2CPHCH2CHC3FeHC3HC3H3SCH2C5HC2H4CHCH2C2HFeSCFeS2FeSFeS4FeS2FeS2FeSFeS3C2SC6H5CFeC7H7CHC6H5CHCHC4HC3PC18H4CH8CH9CHCHC2HCHCH5CHCH2C2HCH2CH2C2HC3HCHPC3H5CHC2HC2HC4HCH2CHCH2C3HSC2HC4H5C3HCHC5HCHCPHC2SHSH3C2H2CH2C2HC3S2CHCFeS2FeSHSFeS2FeSFeSFeS3FeS2FeS2FeSFeS3C3H3C6H4C6H4C6H4C6H4CHC2HC2HC8PC11H7CH2CH4C6PC2PCH2C12H5CPHPH11C2HCH3CHCHC3HC14H4C2HCHC5HCHC8PC9H2C2H2CHCH10CH6C2HC2H5CHC2H2CH3C4HCH2C2H2C2H3C2HCH5SHC2HC3HPHCH3CH2CHC4HC2HCHCHCFeHC3HC2HCHCPCHC4HCH2C2HC2HCHC2H2SCHCHCHC3HCHCFeC2H4FeCHC3HCH6CPC2SCFeS2FeS2FeSFeS2FeS2FeS2FeSFeS3CSHC2FeSHC3HC2H2C6H4C6H4C6H4C6H11CPH2CHC2HCH2C2HCH2PCH2C6H4C5H2SC2SCHC2HC3HFeHSCH2CH3C3H3C6H2CH3CH3CH3CHCH2PC2H2C2H2C5H2C2HC6SHC2HCHCH2CH4C3H2C2FeC3PC19H8CH9SCH2C4HC2H3CHC8PC15H8CH3CH2CH2CPC3HSCH2CHC2HCHCH3CHC2HC2H2C2HCHSH
_chemical_formula_sum              "S544 Fe272 H3264 C4080 P136"
_cell_length_a       72.2818
_cell_length_b       72.1492
_cell_length_c       61.4667
_cell_angle_alpha    88.087
_cell_angle_beta     88.0927
_cell_angle_gamma    87.3346

_space_group_name_H-M_alt    "P 1"
_space_group_IT_number       1

loop_
  _space_group_symop_operation_xyz
  'x, y, z'

loop_
  _atom_site_type_symbol
  _atom_site_label
  _atom_site_symmetry_multiplicity
  _atom_site_fract_x
  _atom_site_fract_y
  _atom_site_fract_z
  _atom_site_occupancy
  S   S1        1.0  0.03449  0.13145  0.03706  1.0000
  Fe  Fe1       1.0  0.07984  0.10153  0.03062  1.0000
  S   S2        1.0  0.05988  0.09748  0.05890  1.0000
  H   H1        1.0  0.19794  0.24231  0.23353  1.0000
  Fe  Fe2       1.0  0.03798  0.10066  0.03382  1.0000
  C   C1        1.0  0.00424  0.12501  0.42727  1.0000
  Fe  Fe3       1.0  0.05796  0.12860  0.06042  1.0000
  S   S3        1.0  0.05202  0.14275  0.09289  1.0000
  S   S4        1.0  0.07997  0.13270  0.03400  1.0000
  S   S5        1.0  0.16938  0.03152  0.46571  1.0000
  C   C2        1.0  0.22703  0.07045  0.47000  1.0000
  Fe  Fe4       1.0  0.07197  0.19682  0.22542  1.0000
  S   S6        1.0  0.09114  0.21346  0.24409  1.0000
  S   S7        1.0  0.04367  0.18597  0.23553  1.0000
  Fe  Fe5       1.0  0.10116  0.18979  0.18923  1.0000
  S   S8        1.0  0.12268  0.20576  0.20587  1.0000
  S   S9        1.0  0.10911  0.17484  0.15784  1.0000
  Fe  Fe6       1.0  0.11303  0.19094  0.23676  1.0000
  S   S10       1.0  0.12925  0.17919  0.26609  1.0000
  Fe  Fe7       1.0  0.09934  0.22721  0.21161  1.0000
  H   H2        1.0  0.19705  0.01834  0.30421  1.0000
  S   S11       1.0  0.09332  0.17366  0.21975  1.0000
  S   S12       1.0  0.07837  0.21188  0.19336  1.0000
  Fe  Fe8       1.0  0.19749  0.07820  0.35023  1.0000
  S   S13       1.0  0.20752  0.10650  0.34029  1.0000
  S   S14       1.0  0.17348  0.07808  0.37535  1.0000
  Fe  Fe9       1.0  0.22199  0.05876  0.31557  1.0000
  S   S15       1.0  0.23364  0.08592  0.30378  1.0000
  S   S16       1.0  0.23413  0.03324  0.29769  1.0000
  Fe  Fe10      1.0  0.23621  0.09237  0.33918  1.0000
  S   S17       1.0  0.26109  0.10832  0.35048  1.0000
  Fe  Fe11      1.0  0.20422  0.09792  0.30590  1.0000
  S   S18       1.0  0.19239  0.11427  0.27628  1.0000
  S   S19       1.0  0.22623  0.06452  0.35110  1.0000
  S   S20       1.0  0.19258  0.07035  0.31567  1.0000
  C   C3        1.0  0.28225  0.10420  0.36476  1.0000
  C   C4        1.0  0.28690  0.08728  0.37544  1.0000
  C   C5        1.0  0.30403  0.08458  0.38587  1.0000
  C   C6        1.0  0.26084  0.07966  0.44342  1.0000
  C   C7        1.0  0.18478  0.02786  0.15400  1.0000
  C   C8        1.0  0.29480  0.11856  0.36544  1.0000
  H   H3        1.0  0.27722  0.07632  0.37581  1.0000
  H   H4        1.0  0.06690  0.16826  0.34029  1.0000
  Fe  Fe12      1.0  0.05667  0.13349  0.01046  1.0000
  H   H5        1.0  0.29132  0.13183  0.35755  1.0000
  C   C9        1.0  0.14684  0.16111  0.26837  1.0000
  C   C10       1.0  0.15560  0.15295  0.25020  1.0000
  C   C11       1.0  0.16971  0.13891  0.25298  1.0000
  C   C12       1.0  0.17493  0.13248  0.27389  1.0000
  C   C13       1.0  0.16623  0.14071  0.29203  1.0000
  C   C14       1.0  0.15246  0.15506  0.28924  1.0000
  H   H6        1.0  0.15158  0.15753  0.23402  1.0000
  H   H7        1.0  0.17655  0.13289  0.23881  1.0000
  H   H8        1.0  0.17028  0.13616  0.30819  1.0000
  H   H9        1.0  0.14607  0.16154  0.30339  1.0000
  C   C15       1.0  0.17054  0.04516  0.44105  1.0000
  C   C16       1.0  0.18490  0.04117  0.42563  1.0000
  C   C17       1.0  0.18618  0.05130  0.40565  1.0000
  C   C18       1.0  0.17294  0.06542  0.40069  1.0000
  C   C19       1.0  0.15862  0.06948  0.41611  1.0000
  C   C20       1.0  0.15749  0.05953  0.43626  1.0000
  H   H10       1.0  0.19505  0.03006  0.42911  1.0000
  H   H11       1.0  0.19716  0.04795  0.39387  1.0000
  H   H12       1.0  0.14827  0.08035  0.41244  1.0000
  H   H13       1.0  0.14634  0.06275  0.44789  1.0000
  C   C21       1.0  0.06822  0.15170  0.11053  1.0000
  C   C22       1.0  0.08738  0.14981  0.10649  1.0000
  C   C23       1.0  0.09970  0.15697  0.12111  1.0000
  C   C24       1.0  0.09305  0.16614  0.13986  1.0000
  C   C25       1.0  0.07391  0.16811  0.14384  1.0000
  C   C26       1.0  0.06159  0.16088  0.12930  1.0000
  H   H14       1.0  0.09269  0.14284  0.09211  1.0000
  H   H15       1.0  0.11447  0.15544  0.11783  1.0000
  H   H16       1.0  0.06863  0.17533  0.15804  1.0000
  H   H17       1.0  0.04683  0.16253  0.13252  1.0000
  C   C27       1.0  0.22394  0.08805  0.42591  1.0000
  H   H18       1.0  0.01531  0.15488  0.14611  1.0000
  C   C28       1.0  0.02742  0.19385  0.25587  1.0000
  C   C29       1.0  0.03120  0.20802  0.26981  1.0000
  C   C30       1.0  0.03261  0.16350  0.18568  1.0000
  H   H19       1.0  0.04430  0.21468  0.26816  1.0000
  C   C31       1.0  0.17754  0.04470  0.14521  1.0000
  C   C32       1.0  0.00705  0.16792  0.39012  1.0000
  C   C33       1.0  0.12411  0.00828  0.10904  1.0000
  C   C34       1.0  0.24032  0.01560  0.43497  1.0000
  C   C35       1.0  0.10102  0.01997  0.03296  1.0000
  H   H20       1.0  0.32743  0.05642  0.24233  1.0000
  H   H21       1.0  0.00899  0.10090  0.10966  1.0000
  C   C36       1.0  0.10351  0.05883  0.02724  1.0000
  C   C37       1.0  0.08767  0.05143  0.03709  1.0000
  C   C38       1.0  0.08666  0.03215  0.04039  1.0000
  C   C39       1.0  0.13610  0.24557  0.24875  1.0000
  C   C40       1.0  0.09144  0.20354  0.00743  1.0000
  H   H22       1.0  0.07636  0.06056  0.04273  1.0000
  C   C41       1.0  0.19443  0.10323  0.41655  1.0000
  H   H23       1.0  0.02174  0.11468  0.47722  1.0000
  C   C42       1.0  0.15067  0.02590  0.07798  1.0000
  H   H24       1.0  0.23369  0.05984  0.39801  1.0000
  P   P1        1.0  0.32167  0.06101  0.32232  1.0000
  H   H25       1.0  0.24690  0.00634  0.26641  1.0000
  H   H26       1.0  0.23325  0.02898  0.38219  1.0000
  H   H27       1.0  0.31471  0.02505  0.24208  1.0000
  H   H28       1.0  0.28109  0.05969  0.32878  1.0000
  C   C43       1.0  0.11676  0.02728  0.02269  1.0000
  H   H29       1.0  0.02582  0.11180  0.36375  1.0000
  C   C44       1.0  0.12283  0.04810  0.10513  1.0000
  C   C45       1.0  0.31198  0.11586  0.37580  1.0000
  C   C46       1.0  0.00029  0.17591  0.37062  1.0000
  H   H30       1.0  0.06062  0.15291  0.19013  1.0000
  C   C47       1.0  0.21197  0.05910  0.47437  1.0000
  H   H31       1.0  0.19574  0.02770  0.16565  1.0000
  H   H32       1.0  0.30960  0.02067  0.38769  1.0000
  C   C48       1.0  0.11362  0.05460  0.08643  1.0000
  C   C49       1.0  0.10197  0.07060  0.08707  1.0000
  C   C50       1.0  0.09888  0.07988  0.10652  1.0000
  C   C51       1.0  0.10728  0.07298  0.12549  1.0000
  C   C52       1.0  0.11907  0.05703  0.12486  1.0000
  C   C53       1.0  0.02079  0.12069  0.46084  1.0000
  H   H33       1.0  0.32146  0.12701  0.37587  1.0000
  H   H34       1.0  0.13692  0.24794  0.17678  1.0000
  C   C54       1.0  0.28422  0.03095  0.37335  1.0000
  C   C55       1.0  0.16285  0.03987  0.04426  1.0000
  H   H35       1.0  0.00975  0.17210  0.42468  1.0000
  H   H36       1.0  0.19214  0.04912  0.49840  1.0000
  H   H37       1.0  0.01837  0.19997  0.20659  1.0000
  C   C56       1.0  0.26389  0.09870  0.44456  1.0000
  H   H38       1.0  0.14556  0.02241  0.32375  1.0000
  H   H39       1.0  0.31099  0.09731  0.43936  1.0000
  H   H40       1.0  0.14922  0.05540  0.06969  1.0000
  C   C57       1.0  0.30702  0.04992  0.34294  1.0000
  C   C58       1.0  0.27634  0.04180  0.35654  1.0000
  H   H41       1.0  0.03428  0.22903  0.19947  1.0000
  P   P2        1.0  0.23742  0.07188  0.44279  1.0000
  H   H42       1.0  0.11551  0.04742  0.07126  1.0000
  H   H43       1.0  0.09537  0.07586  0.07239  1.0000
  H   H44       1.0  0.08985  0.09233  0.10685  1.0000
  H   H45       1.0  0.10459  0.08005  0.14061  1.0000
  H   H46       1.0  0.28962  0.07827  0.30008  1.0000
  H   H47       1.0  0.12211  0.22750  0.15170  1.0000
  H   H48       1.0  0.13268  0.22389  0.27339  1.0000
  S   S21       1.0  0.10579  0.08313  0.02491  1.0000
  C   C59       1.0  0.31679  0.09878  0.38606  1.0000
  H   H49       1.0  0.25231  0.10873  0.44582  1.0000
  H   H50       1.0  0.03583  0.16944  0.35774  1.0000
  C   C60       1.0  0.03364  0.13926  0.43094  1.0000
  C   C61       1.0  0.28191  0.10502  0.44323  1.0000
  C   C62       1.0  0.17224  0.21555  0.17007  1.0000
  H   H51       1.0  0.19767  0.08342  0.44296  1.0000
  H   H52       1.0  0.30741  0.07133  0.39384  1.0000
  H   H53       1.0  0.28416  0.11976  0.44330  1.0000
  C   C63       1.0  0.04078  0.13492  0.20554  1.0000
  C   C64       1.0  0.03300  0.03244  0.02181  1.0000
  H   H54       1.0  0.24466  0.09019  0.48382  1.0000
  H   H55       1.0  0.00594  0.14496  0.11048  1.0000
  C   C65       1.0  0.31821  0.11814  0.32011  1.0000
  C   C66       1.0  0.23789  0.04926  0.43094  1.0000
  C   C67       1.0  0.03480  0.13170  0.45216  1.0000
  H   H56       1.0  0.11856  0.00497  0.07502  1.0000
  H   H57       1.0  0.30847  0.02437  0.31168  1.0000
  H   H58       1.0  0.06646  0.04640  0.29023  1.0000
  H   H59       1.0  0.02693  0.04807  0.46048  1.0000
  C   C68       1.0  0.07124  0.12954  0.37317  1.0000
  C   C69       1.0  0.07606  0.14331  0.35776  1.0000
  C   C70       1.0  0.04058  0.14456  0.37804  1.0000
  C   C71       1.0  0.05356  0.13008  0.38317  1.0000
  H   H60       1.0  0.23638  0.23825  0.16531  1.0000
  C   C72       1.0  0.01238  0.02762  0.47967  1.0000
  C   C73       1.0  0.27616  0.06702  0.44158  1.0000
  C   C74       1.0  0.00509  0.20909  0.15458  1.0000
  C   C75       1.0  0.15567  0.21752  0.25133  1.0000
  H   H61       1.0  0.04656  0.13431  0.46193  1.0000
  H   H62       1.0  0.17592  0.02092  0.02143  1.0000
  C   C76       1.0  0.16289  0.23190  0.17705  1.0000
  H   H63       1.0  0.07467  0.02666  0.04884  1.0000
  H   H64       1.0  0.03706  0.17549  0.17623  1.0000
  H   H65       1.0  0.19486  0.12176  0.38836  1.0000
  H   H66       1.0  0.20654  0.05105  0.46167  1.0000
  H   H67       1.0  0.22869  0.11679  0.38104  1.0000
  C   C77       1.0  0.30346  0.02925  0.37481  1.0000
  H   H68       1.0  0.08125  0.11845  0.37741  1.0000
  H   H69       1.0  0.08976  0.14292  0.35004  1.0000
  H   H70       1.0  0.05000  0.11916  0.39489  1.0000
  C   C78       1.0  0.02466  0.23289  0.16670  1.0000
  C   C79       1.0  0.31092  0.02286  0.27695  1.0000
  H   H71       1.0  0.26144  0.04292  0.35517  1.0000
  C   C80       1.0  0.29704  0.09238  0.44107  1.0000
  H   H72       1.0  0.04456  0.14786  0.42452  1.0000
  C   C81       1.0  0.23243  0.09737  0.40805  1.0000
  C   C82       1.0  0.23774  0.01411  0.41267  1.0000
  H   H73       1.0  0.27429  0.05230  0.44053  1.0000
  C   C83       1.0  0.15622  0.02805  0.12407  1.0000
  C   C84       1.0  0.04550  0.15824  0.36234  1.0000
  C   C85       1.0  0.30173  0.12210  0.30929  1.0000
  C   C86       1.0  0.31272  0.03156  0.29672  1.0000
  C   C87       1.0  0.14084  0.22867  0.25937  1.0000
  H   H74       1.0  0.13892  0.19902  0.13890  1.0000
  H   H75       1.0  0.24239  0.03400  0.46141  1.0000
  C   C88       1.0  0.15385  0.04169  0.06462  1.0000
  H   H76       1.0  0.04704  0.02464  0.44108  1.0000
  C   C89       1.0  0.16347  0.04480  0.13007  1.0000
  C   C90       1.0  0.01693  0.20712  0.19098  1.0000
  C   C91       1.0  0.06319  0.15762  0.35234  1.0000
  H   H77       1.0  0.15901  0.20419  0.25926  1.0000
  C   C92       1.0  0.23567  0.04763  0.40850  1.0000
  S   S22       1.0  0.01662  0.07867  0.03679  1.0000
  H   H78       1.0  0.17958  0.10499  0.41931  1.0000
  H   H79       1.0  0.30597  0.06371  0.43844  1.0000
  H   H80       1.0  0.24703  0.09494  0.40399  1.0000
  H   H81       1.0  0.04487  0.00931  0.04051  1.0000
  C   C93       1.0  0.13587  0.06688  0.18820  1.0000
  C   C94       1.0  0.12061  0.07473  0.19965  1.0000
  C   C95       1.0  0.11916  0.07236  0.22229  1.0000
  C   C96       1.0  0.13301  0.06227  0.23356  1.0000
  C   C97       1.0  0.14834  0.05424  0.22215  1.0000
  C   C98       1.0  0.14966  0.05663  0.19938  1.0000
  P   P3        1.0  0.16718  0.04245  0.23641  1.0000
  C   C99       1.0  0.01371  0.16095  0.19031  1.0000
  C   C100      1.0  0.18596  0.05800  0.23816  1.0000
  C   C101      1.0  0.18585  0.07505  0.22636  1.0000
  C   C102      1.0  0.19989  0.08742  0.22896  1.0000
  C   C103      1.0  0.21420  0.08282  0.24315  1.0000
  C   C104      1.0  0.21445  0.06590  0.25482  1.0000
  C   C105      1.0  0.20028  0.05365  0.25259  1.0000
  C   C106      1.0  0.04607  0.15059  0.19338  1.0000
  H   H82       1.0  0.16471  0.05203  0.03372  1.0000
  C   C107      1.0  0.03671  0.02014  0.45304  1.0000
  H   H83       1.0  0.08975  0.19585  0.02279  1.0000
  H   H84       1.0  0.05126  0.12505  0.21162  1.0000
  C   C108      1.0  0.15981  0.03608  0.26392  1.0000
  C   C109      1.0  0.15922  0.04938  0.28018  1.0000
  C   C110      1.0  0.15391  0.04447  0.30162  1.0000
  C   C111      1.0  0.14921  0.02629  0.30701  1.0000
  C   C112      1.0  0.01851  0.13565  0.41817  1.0000
  C   C113      1.0  0.15492  0.01786  0.26946  1.0000
  H   H85       1.0  0.13717  0.06897  0.17070  1.0000
  H   H86       1.0  0.11003  0.08289  0.19102  1.0000
  H   H87       1.0  0.10751  0.07874  0.23116  1.0000
  H   H88       1.0  0.13177  0.06097  0.25113  1.0000
  H   H89       1.0  0.16157  0.05085  0.19035  1.0000
  H   H90       1.0  0.17480  0.07918  0.21561  1.0000
  H   H91       1.0  0.19941  0.10086  0.22057  1.0000
  H   H92       1.0  0.22472  0.09268  0.24573  1.0000
  H   H93       1.0  0.22540  0.06245  0.26606  1.0000
  H   H94       1.0  0.20037  0.04096  0.26249  1.0000
  C   C114      1.0  0.11807  0.04669  0.02005  1.0000
  C   C115      1.0  0.00510  0.17802  0.40928  1.0000
  C   C116      1.0  0.14577  0.20835  0.14918  1.0000
  C   C117      1.0  0.22203  0.10973  0.39483  1.0000
  H   H95       1.0  0.20280  0.02045  0.23304  1.0000
  H   H96       1.0  0.16318  0.06347  0.27639  1.0000
  H   H97       1.0  0.15387  0.05464  0.31420  1.0000
  H   H98       1.0  0.02396  0.03733  0.03504  1.0000
  C   C118      1.0  0.01108  0.11504  0.36368  1.0000
  C   C119      1.0  0.29151  0.10763  0.30221  1.0000
  C   C120      1.0  0.07318  0.06994  0.26942  1.0000
  C   C121      1.0  0.07329  0.05948  0.28897  1.0000
  C   C122      1.0  0.08194  0.06604  0.30700  1.0000
  C   C123      1.0  0.09068  0.08294  0.30544  1.0000
  C   C124      1.0  0.09123  0.09322  0.28560  1.0000
  C   C125      1.0  0.08197  0.08682  0.26778  1.0000
  P   P4        1.0  0.10221  0.11525  0.28351  1.0000
  C   C126      1.0  0.11938  0.11587  0.30426  1.0000
  C   C127      1.0  0.11303  0.11743  0.25656  1.0000
  C   C128      1.0  0.10264  0.12449  0.23893  1.0000
  C   C129      1.0  0.11082  0.12605  0.21804  1.0000
  C   C130      1.0  0.12936  0.12035  0.21448  1.0000
  C   C131      1.0  0.13970  0.11296  0.23178  1.0000
  C   C132      1.0  0.13167  0.11167  0.25276  1.0000
  C   C133      1.0  0.12037  0.13153  0.31707  1.0000
  C   C134      1.0  0.13291  0.13149  0.33395  1.0000
  C   C135      1.0  0.14465  0.11591  0.33805  1.0000
  C   C136      1.0  0.14397  0.10040  0.32519  1.0000
  C   C137      1.0  0.13142  0.10034  0.30835  1.0000
  C   C138      1.0  0.08453  0.13356  0.28725  1.0000
  C   C139      1.0  0.06791  0.13009  0.29888  1.0000
  C   C140      1.0  0.05394  0.14410  0.30076  1.0000
  C   C141      1.0  0.05651  0.16168  0.29121  1.0000
  C   C142      1.0  0.07316  0.16535  0.28006  1.0000
  C   C143      1.0  0.08716  0.15141  0.27820  1.0000
  H   H99       1.0  0.06614  0.06503  0.25557  1.0000
  C   C144      1.0  0.29417  0.07340  0.44046  1.0000
  H   H100      1.0  0.08178  0.05807  0.32227  1.0000
  H   H101      1.0  0.09687  0.08796  0.31979  1.0000
  H   H102      1.0  0.08138  0.09491  0.25267  1.0000
  H   H103      1.0  0.08827  0.12913  0.24131  1.0000
  H   H104      1.0  0.10292  0.13213  0.20468  1.0000
  H   H105      1.0  0.13579  0.12198  0.19839  1.0000
  H   H106      1.0  0.15416  0.10877  0.22913  1.0000
  H   H107      1.0  0.14028  0.10658  0.26591  1.0000
  H   H108      1.0  0.11172  0.14391  0.31387  1.0000
  H   H109      1.0  0.13382  0.14370  0.34358  1.0000
  H   H110      1.0  0.15452  0.11588  0.35099  1.0000
  H   H111      1.0  0.15328  0.08847  0.32837  1.0000
  H   H112      1.0  0.13106  0.08814  0.29862  1.0000
  H   H113      1.0  0.06559  0.11656  0.30632  1.0000
  H   H114      1.0  0.04101  0.14135  0.30945  1.0000
  H   H115      1.0  0.04556  0.17245  0.29226  1.0000
  H   H116      1.0  0.07508  0.17896  0.27250  1.0000
  H   H117      1.0  0.09992  0.15449  0.26937  1.0000
  C   C145      1.0  0.16150  0.01212  0.21070  1.0000
  C   C146      1.0  0.24048  0.03310  0.44408  1.0000
  C   C147      1.0  0.20480  0.09094  0.42993  1.0000
  C   C148      1.0  0.28764  0.05134  0.34150  1.0000
  C   C149      1.0  0.14474  0.23605  0.17042  1.0000
  Fe  Fe13      1.0  0.15089  0.03581  0.49635  1.0000
  H   H118      1.0  0.01791  0.11996  0.21937  1.0000
  P   P5        1.0  0.13850  0.02786  0.10402  1.0000
  H   H119      1.0  0.12520  0.05166  0.13973  1.0000
  P   P6        1.0  0.01746  0.14463  0.39039  1.0000
  C   C150      1.0  0.13630  0.22444  0.15633  1.0000
  C   C151      1.0  0.20303  0.11263  0.39903  1.0000
  C   C152      1.0  0.01031  0.18532  0.25831  1.0000
  C   C153      1.0  0.17822  0.01112  0.14732  1.0000
  C   C154      1.0  0.23549  0.03012  0.39944  1.0000
  C   C155      1.0  0.02201  0.13210  0.20993  1.0000
  C   C156      1.0  0.17444  0.02157  0.22228  1.0000
  C   C157      1.0  0.02599  0.22363  0.18694  1.0000
  C   C158      1.0  0.31972  0.04938  0.29699  1.0000
  C   C159      1.0  0.16917  0.02237  0.03733  1.0000
  C   C160      1.0  0.19758  0.24239  0.19824  1.0000
  C   C161      1.0  0.01799  0.21357  0.28600  1.0000
  H   H120      1.0  0.27541  0.02376  0.38513  1.0000
  H   H121      1.0  0.27849  0.11069  0.29428  1.0000
  H   H122      1.0  0.18307  0.05765  0.14985  1.0000
  H   H123      1.0  0.12800  0.01803  0.01708  1.0000
  H   H124      1.0  0.00728  0.17431  0.24763  1.0000
  H   H125      1.0  0.23175  0.23705  0.23521  1.0000
  C   C162      1.0  0.04473  0.01672  0.02490  1.0000
  C   C163      1.0  0.16675  0.00670  0.05092  1.0000
  C   C164      1.0  0.31482  0.03846  0.35953  1.0000
  C   C165      1.0  0.16118  0.24027  0.22207  1.0000
  C   C166      1.0  0.16372  0.20389  0.15607  1.0000
  C   C167      1.0  0.14963  0.01303  0.29092  1.0000
  C   C168      1.0  0.23331  0.08110  0.48676  1.0000
  C   C169      1.0  0.00851  0.14505  0.20235  1.0000
  C   C170      1.0  0.22297  0.01435  0.28640  1.0000
  C   C171      1.0  0.20866  0.24167  0.17907  1.0000
  C   C172      1.0  0.16561  0.22313  0.23257  1.0000
  H   H126      1.0  0.15840  0.05791  0.12288  1.0000
  H   H127      1.0  0.04867  0.05271  0.49281  1.0000
  H   H128      1.0  0.24190  0.00319  0.44527  1.0000
  H   H129      1.0  0.29663  0.13635  0.30687  1.0000
  C   C173      1.0  0.01416  0.22565  0.15055  1.0000
  P   P7        1.0  0.17282  0.24632  0.19660  1.0000
  C   C174      1.0  0.19264  0.01399  0.22367  1.0000
  H   H130      1.0  0.01113  0.12147  0.07682  1.0000
  C   C175      1.0  0.29769  0.08920  0.30601  1.0000
  C   C176      1.0  0.00136  0.15842  0.14104  1.0000
  H   H131      1.0  0.02106  0.22455  0.29671  1.0000
  H   H132      1.0  0.11455  0.21845  0.01773  1.0000
  C   C177      1.0  0.00548  0.11749  0.44846  1.0000
  C   C178      1.0  0.23621  0.23709  0.20037  1.0000
  H   H133      1.0  0.17646  0.21388  0.22600  1.0000
  C   C179      1.0  0.16416  0.01123  0.13226  1.0000
  C   C180      1.0  0.31398  0.08502  0.31741  1.0000
  H   H134      1.0  0.17078  0.19110  0.15101  1.0000
  C   C181      1.0  0.00085  0.20511  0.28842  1.0000
  C   C182      1.0  0.02544  0.03335  0.46393  1.0000
  H   H135      1.0  0.32966  0.03636  0.36070  1.0000
  C   C183      1.0  0.01064  0.00872  0.48460  1.0000
  H   H136      1.0  0.25112  0.23495  0.20121  1.0000
  C   C184      1.0  0.22790  0.23891  0.18015  1.0000
  H   H137      1.0  0.18583  0.21147  0.17589  1.0000
  C   C185      1.0  0.32509  0.05826  0.27725  1.0000
  C   C186      1.0  0.32424  0.09971  0.32435  1.0000
  C   C187      1.0  0.31623  0.03180  0.25737  1.0000
  H   H138      1.0  0.14723  0.01726  0.20995  1.0000
  H   H139      1.0  0.30523  0.00922  0.27683  1.0000
  H   H140      1.0  0.08406  0.24714  0.02245  1.0000
  H   H141      1.0  0.13038  0.05232  0.01244  1.0000
  C   C188      1.0  0.05698  0.01106  0.00813  1.0000
  S   S23       1.0  0.12002  0.03251  0.50190  1.0000
  C   C189      1.0  0.32337  0.04947  0.25752  1.0000
  C   C190      1.0  0.15761  0.00844  0.07121  1.0000
  C   C191      1.0  0.03481  0.00117  0.45774  1.0000
  H   H142      1.0  0.15563  0.00719  0.25744  1.0000
  C   C192      1.0  0.22530  0.23825  0.21953  1.0000
  H   H143      1.0  0.00132  0.16833  0.35567  1.0000
  C   C193      1.0  0.23287  0.00311  0.27126  1.0000
  C   C194      1.0  0.20485  0.00994  0.29253  1.0000
  C   C195      1.0  0.20607  0.24106  0.21850  1.0000
  S   S24       1.0  0.05808  0.10270  0.00529  1.0000
  H   H144      1.0  0.00073  0.00460  0.49710  1.0000
  C   C196      1.0  0.00320  0.13016  0.37509  1.0000
  C   C197      1.0  0.20367  0.05805  0.49522  1.0000
  H   H145      1.0  0.03190  0.24556  0.16352  1.0000
  H   H146      1.0  0.00381  0.03794  0.48830  1.0000
  H   H147      1.0  0.01327  0.23276  0.13479  1.0000
  C   C198      1.0  0.00645  0.19965  0.17488  1.0000
  H   H148      1.0  0.20240  0.24328  0.16331  1.0000
  H   H149      1.0  0.12564  0.00837  0.14418  1.0000
  H   H150      1.0  0.32590  0.12935  0.32609  1.0000
  H   H151      1.0  0.33055  0.07200  0.27714  1.0000
  C   C199      1.0  0.05306  0.06437  0.50154  1.0000
  C   C200      1.0  0.99985  0.10384  0.35206  1.0000
  H   H152      1.0  0.00595  0.09220  0.34328  1.0000
  S   S25       1.0  0.01657  0.07623  0.50093  1.0000
  C   C201      1.0  0.10541  0.21625  0.00453  1.0000
  C   C202      1.0  0.12028  0.00164  0.13039  1.0000
  H   H153      1.0  0.13688  0.20244  0.61935  1.0000
  S   S26       1.0  0.05196  0.15616  0.98409  1.0000
  C   C203      1.0  0.01821  0.13469  0.92281  1.0000
  Fe  Fe14      1.0  0.10616  0.21599  0.83981  1.0000
  S   S27       1.0  0.07987  0.20844  0.85808  1.0000
  C   C204      1.0  0.02743  0.15143  0.81434  1.0000
  Fe  Fe15      1.0  0.10830  0.17832  0.81500  1.0000
  S   S28       1.0  0.08196  0.16925  0.83207  1.0000
  S   S29       1.0  0.11918  0.15735  0.78927  1.0000
  Fe  Fe16      1.0  0.07060  0.19831  0.82571  1.0000
  S   S30       1.0  0.04068  0.20549  0.81577  1.0000
  Fe  Fe17      1.0  0.09343  0.17990  0.86260  1.0000
  S   S31       1.0  0.09593  0.16029  0.89245  1.0000
  S   S32       1.0  0.09620  0.20731  0.80706  1.0000
  S   S33       1.0  0.12040  0.18761  0.84592  1.0000
  Fe  Fe18      1.0  0.19595  0.07226  0.68940  1.0000
  S   S34       1.0  0.20717  0.09979  0.69711  1.0000
  S   S35       1.0  0.17257  0.06952  0.66601  1.0000
  Fe  Fe19      1.0  0.21915  0.05121  0.72329  1.0000
  S   S36       1.0  0.23222  0.07725  0.73359  1.0000
  S   S37       1.0  0.22903  0.02216  0.73510  1.0000
  Fe  Fe20      1.0  0.20315  0.09063  0.73232  1.0000
  S   S38       1.0  0.19314  0.11006  0.75985  1.0000
  Fe  Fe21      1.0  0.23537  0.08462  0.69775  1.0000
  S   S39       1.0  0.25936  0.09717  0.67721  1.0000
  S   S40       1.0  0.19016  0.06391  0.72458  1.0000
  S   S41       1.0  0.22398  0.05782  0.68747  1.0000
  Fe  Fe22      1.0  0.12773  0.01563  0.53212  1.0000
  S   S42       1.0  0.12716  0.04011  0.55393  1.0000
  C   C205      1.0  0.17479  0.14394  0.71619  1.0000
  H   H154      1.0  0.33160  0.22217  0.53171  1.0000
  S   S43       1.0  0.15177  0.06151  0.51590  1.0000
  Fe  Fe23      1.0  0.15723  0.04232  0.54483  1.0000
  S   S44       1.0  0.18130  0.04547  0.56732  1.0000
  Fe  Fe24      1.0  0.12145  0.05709  0.52337  1.0000
  H   H155      1.0  0.16179  0.04248  0.70067  1.0000
  S   S45       1.0  0.15831  0.01670  0.52499  1.0000
  C   C206      1.0  0.28398  0.09854  0.67916  1.0000
  C   C207      1.0  0.29370  0.10895  0.66309  1.0000
  C   C208      1.0  0.24123  0.02043  0.65295  1.0000
  C   C209      1.0  0.32330  0.10129  0.68003  1.0000
  C   C210      1.0  0.31356  0.09104  0.69627  1.0000
  C   C211      1.0  0.29409  0.08955  0.69579  1.0000
  H   H156      1.0  0.28601  0.11628  0.65047  1.0000
  P   P8        1.0  0.16717  0.12867  0.61113  1.0000
  H   H157      1.0  0.32114  0.08420  0.70936  1.0000
  H   H158      1.0  0.28694  0.08155  0.70837  1.0000
  C   C212      1.0  0.17523  0.06157  0.63908  1.0000
  C   C213      1.0  0.19257  0.05620  0.62998  1.0000
  C   C214      1.0  0.19416  0.05104  0.60805  1.0000
  C   C215      1.0  0.17848  0.05110  0.59510  1.0000
  C   C216      1.0  0.16111  0.05612  0.60436  1.0000
  C   C217      1.0  0.15952  0.06134  0.62623  1.0000
  H   H159      1.0  0.20476  0.05627  0.63971  1.0000
  H   H160      1.0  0.20762  0.04710  0.60102  1.0000
  H   H161      1.0  0.14896  0.05635  0.59453  1.0000
  H   H162      1.0  0.14608  0.06550  0.63313  1.0000
  C   C218      1.0  0.13977  0.14374  0.78208  1.0000
  C   C219      1.0  0.13934  0.13146  0.76472  1.0000
  C   C220      1.0  0.15536  0.12093  0.75783  1.0000
  C   C221      1.0  0.17218  0.12257  0.76812  1.0000
  C   C222      1.0  0.17256  0.13470  0.78560  1.0000
  C   C223      1.0  0.15653  0.14519  0.79255  1.0000
  H   H163      1.0  0.12651  0.13008  0.75651  1.0000
  H   H164      1.0  0.15472  0.11166  0.74444  1.0000
  H   H165      1.0  0.18543  0.13609  0.79378  1.0000
  H   H166      1.0  0.15720  0.15449  0.80591  1.0000
  C   C224      1.0  0.06451  0.15741  0.95883  1.0000
  C   C225      1.0  0.05972  0.17152  0.94339  1.0000
  C   C226      1.0  0.06926  0.17282  0.92303  1.0000
  C   C227      1.0  0.08368  0.15992  0.91795  1.0000
  C   C228      1.0  0.08847  0.14586  0.93341  1.0000
  C   C229      1.0  0.07898  0.14461  0.95375  1.0000
  H   H167      1.0  0.04854  0.18148  0.94722  1.0000
  H   H168      1.0  0.06541  0.18369  0.91127  1.0000
  H   H169      1.0  0.09966  0.13589  0.92964  1.0000
  H   H170      1.0  0.08287  0.13378  0.96555  1.0000
  C   C230      1.0  0.23342  0.04556  0.88752  1.0000
  P   P9        1.0  0.01436  0.02906  0.56894  1.0000
  H   H171      1.0  0.07973  0.01976  0.89557  1.0000
  C   C231      1.0  0.07757  0.08033  0.51822  1.0000
  C   C232      1.0  0.01029  0.20724  0.78963  1.0000
  H   H172      1.0  0.07356  0.10723  0.84215  1.0000
  H   H173      1.0  0.23770  0.06439  0.60380  1.0000
  H   H174      1.0  0.05377  0.02067  0.50237  1.0000
  C   C233      1.0  0.02804  0.19894  0.79298  1.0000
  C   C234      1.0  0.03483  0.18534  0.77870  1.0000
  H   H175      1.0  0.00409  0.02984  0.97968  1.0000
  H   H176      1.0  0.04844  0.17887  0.78100  1.0000
  P   P10       1.0  0.31479  0.07829  0.60199  1.0000
  C   C235      1.0  0.01940  0.12314  0.96685  1.0000
  H   H177      1.0  0.14091  0.02110  0.60606  1.0000
  H   H178      1.0  0.19176  0.02207  0.75575  1.0000
  C   C236      1.0  0.06261  0.24573  0.94136  1.0000
  C   C237      1.0  0.07170  0.06508  0.50728  1.0000
  H   H179      1.0  0.32036  0.11838  0.65102  1.0000
  H   H180      1.0  0.03609  0.10520  0.52174  1.0000
  C   C238      1.0  0.00876  0.04948  0.94019  1.0000
  H   H181      1.0  0.13612  0.24855  0.77879  1.0000
  C   C239      1.0  0.06381  0.03223  0.92199  1.0000
  H   H182      1.0  0.04153  0.09607  0.84388  1.0000
  H   H183      1.0  0.02493  0.08086  0.97442  1.0000
  C   C240      1.0  0.00273  0.13004  0.95822  1.0000
  C   C241      1.0  0.29040  0.07363  0.60211  1.0000
  C   C242      1.0  0.28180  0.06846  0.58323  1.0000
  C   C243      1.0  0.26284  0.06511  0.58387  1.0000
  C   C244      1.0  0.25241  0.06681  0.60334  1.0000
  C   C245      1.0  0.26096  0.07165  0.62227  1.0000
  C   C246      1.0  0.27988  0.07492  0.62170  1.0000
  H   H184      1.0  0.17204  0.24262  0.68809  1.0000
  C   C247      1.0  0.07991  0.20104  0.73094  1.0000
  H   H185      1.0  0.07120  0.04494  0.92053  1.0000
  C   C248      1.0  0.02058  0.19765  0.91377  1.0000
  C   C249      1.0  0.03134  0.11652  0.86672  1.0000
  H   H186      1.0  0.28963  0.06689  0.56806  1.0000
  H   H187      1.0  0.25621  0.06119  0.56926  1.0000
  C   C250      1.0  0.14283  0.18848  0.61767  1.0000
  H   H188      1.0  0.28628  0.07863  0.63656  1.0000
  C   C251      1.0  0.23401  0.01379  0.67293  1.0000
  H   H189      1.0  0.13217  0.23420  0.74334  1.0000
  H   H190      1.0  0.25396  0.02784  0.65237  1.0000
  C   C252      1.0  0.13394  0.11062  0.61516  1.0000
  C   C253      1.0  0.17191  0.01969  0.68123  1.0000
  P   P11       1.0  0.04424  0.04749  0.95783  1.0000
  H   H191      1.0  0.04846  0.11730  0.96053  1.0000
  C   C254      1.0  0.21743  0.00595  0.75242  1.0000
  C   C255      1.0  0.13708  0.22565  0.75695  1.0000
  C   C256      1.0  0.10769  0.22596  0.98459  1.0000
  C   C257      1.0  0.09601  0.22297  0.96735  1.0000
  C   C258      1.0  0.08212  0.21004  0.97038  1.0000
  C   C259      1.0  0.00604  0.18809  0.75837  1.0000
  H   H192      1.0  0.16511  0.22233  0.72022  1.0000
  H   H193      1.0  0.06355  0.24613  0.95888  1.0000
  C   C260      1.0  0.02236  0.16826  0.89539  1.0000
  H   H194      1.0  0.24109  0.01611  0.68785  1.0000
  H   H195      1.0  0.00127  0.11181  0.83367  1.0000
  P   P12       1.0  0.01783  0.14384  0.89508  1.0000
  C   C261      1.0  0.00482  0.13300  0.79753  1.0000
  H   H196      1.0  0.02962  0.02028  0.64653  1.0000
  H   H197      1.0  0.17904  0.02868  0.66956  1.0000
  C   C262      1.0  0.16029  0.23382  0.68808  1.0000
  H   H198      1.0  0.20362  0.06754  0.52803  1.0000
  C   C263      1.0  0.33223  0.14284  0.54473  1.0000
  C   C264      1.0  0.11393  0.21827  0.92394  1.0000
  C   C265      1.0  0.11512  0.19910  0.92888  1.0000
  C   C266      1.0  0.12638  0.18727  0.91603  1.0000
  C   C267      1.0  0.13632  0.19438  0.89802  1.0000
  C   C268      1.0  0.13506  0.21339  0.89284  1.0000
  H   H199      1.0  0.05898  0.24594  0.87851  1.0000
  H   H200      1.0  0.11886  0.20154  0.68737  1.0000
  C   C269      1.0  0.15334  0.01623  0.71452  1.0000
  H   H201      1.0  0.19550  0.01501  0.88603  1.0000
  H   H202      1.0  0.15236  0.24269  0.65575  1.0000
  H   H203      1.0  0.11864  0.23562  0.98275  1.0000
  C   C270      1.0  0.07980  0.20048  0.99037  1.0000
  H   H204      1.0  0.32282  0.02186  0.64896  1.0000
  H   H205      1.0  0.12577  0.22208  0.65555  1.0000
  C   C271      1.0  0.23179  0.01790  0.63388  1.0000
  H   H206      1.0  0.03060  0.16265  0.82470  1.0000
  C   C272      1.0  0.20579  0.05686  0.85849  1.0000
  C   C273      1.0  0.06904  0.01619  0.55404  1.0000
  H   H207      1.0  0.02007  0.11920  0.98400  1.0000
  H   H208      1.0  0.10728  0.19308  0.94241  1.0000
  H   H209      1.0  0.12692  0.17244  0.91963  1.0000
  H   H210      1.0  0.14463  0.18508  0.88777  1.0000
  H   H211      1.0  0.14240  0.21887  0.87854  1.0000
  C   C274      1.0  0.03313  0.04217  0.00175  1.0000
  H   H212      1.0  0.17913  0.14789  0.57049  1.0000
  H   H213      1.0  0.01734  0.20548  0.92824  1.0000
  H   H214      1.0  0.23917  0.11773  0.64546  1.0000
  C   C275      1.0  0.00905  0.14681  0.81192  1.0000
  H   H215      1.0  0.13094  0.18486  0.58647  1.0000
  H   H216      1.0  0.09813  0.10264  0.94952  1.0000
  C   C276      1.0  0.04988  0.02980  0.93818  1.0000
  C   C277      1.0  0.06096  0.06534  0.95580  1.0000
  C   C278      1.0  0.32326  0.08193  0.55758  1.0000
  H   H217      1.0  0.03690  0.20353  0.86163  1.0000
  C   C279      1.0  0.12395  0.22531  0.90574  1.0000
  C   C280      1.0  0.03561  0.13183  0.87882  1.0000
  H   H218      1.0  0.14629  0.22922  0.81059  1.0000
  C   C281      1.0  0.08779  0.09222  0.95117  1.0000
  C   C282      1.0  0.05992  0.07895  0.93894  1.0000
  C   C283      1.0  0.07339  0.09227  0.93656  1.0000
  C   C284      1.0  0.99965  0.06052  0.58960  1.0000
  C   C285      1.0  0.01553  0.07407  0.96419  1.0000
  C   C286      1.0  0.15167  0.01028  0.60819  1.0000
  H   H219      1.0  0.16899  0.15575  0.64523  1.0000
  C   C287      1.0  0.17039  0.09693  0.55711  1.0000
  H   H220      1.0  0.15581  0.18771  0.64880  1.0000
  H   H221      1.0  0.02433  0.02815  0.52245  1.0000
  C   C288      1.0  0.19923  0.00926  0.76030  1.0000
  H   H222      1.0  0.21809  0.09158  0.64548  1.0000
  H   H223      1.0  0.02901  0.22141  0.89445  1.0000
  C   C289      1.0  0.17586  0.10944  0.54057  1.0000
  C   C290      1.0  0.14488  0.22294  0.79500  1.0000
  C   C291      1.0  0.18966  0.12552  0.62291  1.0000
  C   C292      1.0  0.19581  0.10791  0.63076  1.0000
  H   H224      1.0  0.10797  0.09713  0.61822  1.0000
  S   S46       1.0  0.10090  0.08182  0.52568  1.0000
  H   H225      1.0  0.18685  0.09635  0.63055  1.0000
  C   C293      1.0  0.17899  0.12780  0.54547  1.0000
  H   H226      1.0  0.04882  0.07916  0.92752  1.0000
  H   H227      1.0  0.07269  0.10271  0.92349  1.0000
  H   H228      1.0  0.17772  0.10482  0.52399  1.0000
  C   C294      1.0  0.17638  0.13372  0.56687  1.0000
  H   H229      1.0  0.18357  0.13157  0.71365  1.0000
  H   H230      1.0  0.25297  0.07298  0.63746  1.0000
  C   C295      1.0  0.05331  0.02028  0.52001  1.0000
  C   C296      1.0  0.20190  0.14011  0.62228  1.0000
  C   C297      1.0  0.02377  0.17976  0.76176  1.0000
  H   H231      1.0  0.03265  0.16991  0.86186  1.0000
  H   H232      1.0  0.07335  0.20698  0.95713  1.0000
  C   C298      1.0  0.21729  0.00478  0.67391  1.0000
  C   C299      1.0  0.04494  0.10770  0.85345  1.0000
  C   C300      1.0  0.01929  0.12384  0.78572  1.0000
  H   H233      1.0  0.05593  0.14612  0.80422  1.0000
  C   C301      1.0  0.02133  0.05788  0.95336  1.0000
  C   C302      1.0  0.13924  0.23383  0.77699  1.0000
  C   C303      1.0  0.06956  0.01638  0.53131  1.0000
  H   H234      1.0  0.06919  0.19036  0.99250  1.0000
  H   H235      1.0  0.20802  0.00720  0.61974  1.0000
  C   C304      1.0  0.02519  0.06582  0.56391  1.0000
  H   H236      1.0  0.02943  0.03719  0.61103  1.0000
  C   C305      1.0  0.05382  0.13780  0.87797  1.0000
  C   C306      1.0  0.12175  0.09684  0.64881  1.0000
  C   C307      1.0  0.02440  0.08459  0.56904  1.0000
  C   C308      1.0  0.07553  0.06536  0.97037  1.0000
  C   C309      1.0  0.12003  0.10117  0.62662  1.0000
  C   C310      1.0  0.00211  0.13582  0.93630  1.0000
  C   C311      1.0  0.19425  0.03510  0.81722  1.0000
  H   H237      1.0  0.04772  0.12778  0.92208  1.0000
  H   H238      1.0  0.15607  0.01678  0.64129  1.0000
  C   C312      1.0  0.03168  0.19651  0.87628  1.0000
  C   C313      1.0  0.05993  0.24580  0.89610  1.0000
  H   H239      1.0  0.21937  0.03803  0.79723  1.0000
  H   H240      1.0  0.05754  0.14944  0.88732  1.0000
  H   H241      1.0  0.02894  0.16884  0.75124  1.0000
  C   C314      1.0  0.31764  0.10292  0.60416  1.0000
  H   H242      1.0  0.29339  0.14377  0.61333  1.0000
  C   C315      1.0  0.32441  0.06508  0.62478  1.0000
  C   C316      1.0  0.03542  0.12193  0.95355  1.0000
  C   C317      1.0  0.14710  0.16053  0.59691  1.0000
  C   C318      1.0  0.03588  0.02356  0.55428  1.0000
  H   H243      1.0  0.22981  0.08824  0.52053  1.0000
  C   C319      1.0  0.07633  0.23928  0.90575  1.0000
  C   C320      1.0  0.22545  0.11986  0.63897  1.0000
  H   H244      1.0  0.22899  0.14864  0.63041  1.0000
  C   C321      1.0  0.01454  0.01646  0.59490  1.0000
  C   C322      1.0  0.21357  0.10513  0.63897  1.0000
  C   C323      1.0  0.14095  0.21112  0.70653  1.0000
  C   C324      1.0  0.30244  0.11533  0.60817  1.0000
  C   C325      1.0  0.21519  0.00863  0.63473  1.0000
  C   C326      1.0  0.04595  0.09402  0.51768  1.0000
  H   H245      1.0  0.11111  0.08929  0.65762  1.0000
  H   H246      1.0  0.03390  0.09399  0.56105  1.0000
  H   H247      1.0  0.00491  0.21786  0.80045  1.0000
  H   H248      1.0  0.06914  0.10683  0.53141  1.0000
  C   C327      1.0  0.16780  0.10279  0.57848  1.0000
  C   C328      1.0  0.06298  0.11393  0.85247  1.0000
  C   C329      1.0  0.18761  0.00628  0.87622  1.0000
  H   H249      1.0  0.13226  0.11404  0.59802  1.0000
  C   C330      1.0  0.05228  0.01965  0.56551  1.0000
  H   H250      1.0  0.24285  0.03207  0.82538  1.0000
  H   H251      1.0  0.16815  0.08264  0.55342  1.0000
  H   H252      1.0  0.20505  0.05951  0.77039  1.0000
  C   C331      1.0  0.02925  0.17742  0.87650  1.0000
  C   C332      1.0  0.01803  0.17855  0.91404  1.0000
  C   C333      1.0  0.25732  0.00692  0.81560  1.0000
  H   H253      1.0  0.07669  0.05514  0.98365  1.0000
  P   P13       1.0  0.13656  0.19560  0.72950  1.0000
  C   C334      1.0  0.11235  0.19050  0.73161  1.0000
  C   C335      1.0  0.15141  0.17519  0.72474  1.0000
  C   C336      1.0  0.14603  0.16175  0.71049  1.0000
  C   C337      1.0  0.15764  0.14611  0.70636  1.0000
  C   C338      1.0  0.17030  0.12134  0.58342  1.0000
  C   C339      1.0  0.18046  0.15749  0.72989  1.0000
  C   C340      1.0  0.16895  0.17319  0.73394  1.0000
  C   C341      1.0  0.10693  0.17273  0.73829  1.0000
  C   C342      1.0  0.08815  0.16909  0.74102  1.0000
  C   C343      1.0  0.07464  0.18320  0.73719  1.0000
  H   H254      1.0  0.26995  0.01378  0.81100  1.0000
  C   C344      1.0  0.09870  0.20473  0.72831  1.0000
  C   C345      1.0  0.14075  0.20649  0.75479  1.0000
  C   C346      1.0  0.03491  0.12785  0.93168  1.0000
  H   H255      1.0  0.04877  0.12163  0.77885  1.0000
  C   C347      1.0  0.02729  0.20662  0.89484  1.0000
  C   C348      1.0  0.14816  0.20383  0.79308  1.0000
  C   C349      1.0  0.14597  0.19563  0.77311  1.0000
  C   C350      1.0  0.20480  0.04184  0.79930  1.0000
  H   H256      1.0  0.14392  0.15288  0.58273  1.0000
  H   H257      1.0  0.23065  0.07348  0.89908  1.0000
  C   C351      1.0  0.22530  0.00856  0.82920  1.0000
  C   C352      1.0  0.15625  0.22241  0.70632  1.0000
  H   H258      1.0  0.13278  0.16323  0.70275  1.0000
  C   C353      1.0  0.02295  0.02395  0.61272  1.0000
  H   H259      1.0  0.19366  0.15553  0.73777  1.0000
  H   H260      1.0  0.17377  0.18361  0.74440  1.0000
  H   H261      1.0  0.11717  0.16181  0.74210  1.0000
  H   H262      1.0  0.08413  0.15544  0.74671  1.0000
  H   H263      1.0  0.16694  0.03568  0.83291  1.0000
  C   C354      1.0  0.22583  0.06374  0.88771  1.0000
  H   H264      1.0  0.06939  0.21205  0.72860  1.0000
  H   H265      1.0  0.03538  0.06104  0.55179  1.0000
  H   H266      1.0  0.12297  0.23998  0.90123  1.0000
  C   C355      1.0  0.01119  0.09136  0.58422  1.0000
  H   H267      1.0  0.15195  0.19525  0.80720  1.0000
  H   H268      1.0  0.14799  0.18076  0.77211  1.0000
  P   P14       1.0  0.09987  0.23384  0.94073  1.0000
  C   C356      1.0  0.06466  0.09489  0.52316  1.0000
  C   C357      1.0  0.15830  0.15234  0.61315  1.0000
  C   C358      1.0  0.13954  0.17860  0.59910  1.0000
  H   H269      1.0  0.28861  0.11043  0.61072  1.0000
  C   C359      1.0  0.03767  0.12848  0.78825  1.0000
  C   C360      1.0  0.15129  0.11146  0.64815  1.0000
  C   C361      1.0  0.18916  0.00722  0.85334  1.0000
  H   H270      1.0  0.16389  0.09280  0.59111  1.0000
  H   H271      1.0  0.09999  0.07882  0.97941  1.0000
  C   C362      1.0  0.22491  0.08006  0.50763  1.0000
  C   C363      1.0  0.06876  0.01793  0.90780  1.0000
  H   H272      1.0  0.20618  0.08349  0.87329  1.0000
  H   H273      1.0  0.31193  0.09228  0.55712  1.0000
  H   H274      1.0  0.19781  0.15361  0.61535  1.0000
  H   H275      1.0  0.03052  0.01050  0.95258  1.0000
  C   C364      1.0  0.17794  0.05947  0.78597  1.0000
  C   C365      1.0  0.16720  0.05249  0.80344  1.0000
  C   C366      1.0  0.21014  0.06847  0.51188  1.0000
  C   C367      1.0  0.21338  0.03857  0.85814  1.0000
  C   C368      1.0  0.16111  0.16215  0.63205  1.0000
  C   C369      1.0  0.24189  0.01725  0.82368  1.0000
  C   C370      1.0  0.32275  0.14118  0.60622  1.0000
  C   C371      1.0  0.04475  0.03599  0.98444  1.0000
  S   S47       1.0  0.12247  0.24255  0.84508  1.0000
  C   C372      1.0  0.22724  0.03301  0.87279  1.0000
  C   C373      1.0  0.13428  0.22220  0.66972  1.0000
  C   C374      1.0  0.21966  0.13732  0.63054  1.0000
  C   C375      1.0  0.03659  0.02419  0.53143  1.0000
  H   H276      1.0  0.14615  0.02239  0.72844  1.0000
  C   C376      1.0  0.06743  0.12887  0.86486  1.0000
  H   H277      1.0  0.17185  0.06929  0.77419  1.0000
  H   H278      1.0  0.15269  0.05684  0.80513  1.0000
  H   H279      1.0  0.06702  0.01617  0.97549  1.0000
  C   C377      1.0  0.08886  0.07878  0.96801  1.0000
  C   C378      1.0  0.15352  0.18021  0.63420  1.0000
  C   C379      1.0  0.21204  0.06937  0.87320  1.0000
  C   C380      1.0  0.04174  0.14223  0.80260  1.0000
  C   C381      1.0  0.13733  0.10205  0.65957  1.0000
  H   H280      1.0  0.08261  0.01368  0.52249  1.0000
  P   P15       1.0  0.20537  0.02222  0.83930  1.0000
  C   C382      1.0  0.31318  0.11018  0.66337  1.0000
  C   C383      1.0  0.17531  0.04039  0.81906  1.0000
  H   H281      1.0  0.18343  0.13743  0.53266  1.0000
  C   C384      1.0  0.30505  0.13436  0.60946  1.0000
  H   H282      1.0  0.13890  0.09833  0.67667  1.0000
  H   H283      1.0  0.16330  0.11524  0.65681  1.0000
  C   C385      1.0  0.13027  0.21072  0.68790  1.0000
  H   H284      1.0  0.15326  0.13548  0.69587  1.0000
  H   H285      1.0  0.24411  0.04120  0.89879  1.0000
  H   H286      1.0  0.08788  0.23461  0.89537  1.0000
  H   H287      1.0  0.01644  0.11320  0.77446  1.0000
  C   C386      1.0  0.16222  0.02756  0.69895  1.0000
  C   C387      1.0  0.14984  0.11554  0.62577  1.0000
  C   C388      1.0  0.02315  0.01436  0.63288  1.0000
  H   H288      1.0  0.08145  0.13366  0.86420  1.0000
  H   H289      1.0  0.06010  0.18044  0.73947  1.0000
  H   H290      1.0  0.05233  0.01959  0.58308  1.0000
  H   H291      1.0  0.19511  0.06160  0.84742  1.0000
  H   H292      1.0  0.01276  0.03718  0.93135  1.0000
  H   H293      1.0  0.10256  0.21875  0.72408  1.0000
  C   C389      1.0  0.19668  0.05405  0.78387  1.0000
  C   C390      1.0  0.05714  0.02069  0.98806  1.0000
  H   H294      1.0  0.08172  0.01349  0.56275  1.0000
  H   H295      1.0  0.01754  0.11143  0.86747  1.0000
  C   C391      1.0  0.32737  0.07220  0.57714  1.0000
  H   H296      1.0  0.23721  0.02334  0.61843  1.0000
  C   C392      1.0  0.01293  0.05358  0.57436  1.0000
  C   C393      1.0  0.07787  0.23939  0.92844  1.0000
  C   C394      1.0  0.20786  0.00183  0.65477  1.0000
  H   H297      1.0  0.31649  0.12360  0.52775  1.0000
  H   H298      1.0  0.23320  0.01895  0.87289  1.0000
  H   H299      1.0  0.02395  0.05430  0.99996  1.0000
  H   H300      1.0  0.01040  0.10599  0.58781  1.0000
  H   H301      1.0  0.33130  0.08673  0.52380  1.0000
  C   C395      1.0  0.04106  0.01282  0.93995  1.0000
  H   H302      1.0  0.13830  0.24120  0.94965  1.0000
  H   H303      1.0  0.30923  0.04069  0.61871  1.0000
  C   C396      1.0  0.31925  0.04670  0.62877  1.0000
  C   C397      1.0  0.00242  0.00247  0.99442  1.0000
  H   H304      1.0  0.01279  0.17195  0.92891  1.0000
  C   C398      1.0  0.14924  0.23379  0.66984  1.0000
  C   C399      1.0  0.32818  0.13247  0.52686  1.0000
  C   C400      1.0  0.32699  0.03594  0.64581  1.0000
  C   C401      1.0  0.04004  0.07858  0.50713  1.0000
  H   H305      1.0  0.32360  0.14204  0.55942  1.0000
  C   C402      1.0  0.16033  0.00774  0.62818  1.0000
  H   H306      1.0  0.32486  0.15587  0.60751  1.0000
  C   C403      1.0  0.05989  0.00112  0.90967  1.0000
  H   H307      1.0  0.15067  0.00154  0.57509  1.0000
  H   H308      1.0  0.08152  0.05392  0.50309  1.0000
  Fe  Fe25      1.0  0.30674  0.43931  0.22013  1.0000
  S   S48       1.0  0.29530  0.41406  0.23753  1.0000
  S   S49       1.0  0.30060  0.47002  0.22789  1.0000
  H   H309      1.0  0.33123  0.31903  0.25341  1.0000
  S   S50       1.0  0.31706  0.38910  0.20035  1.0000
  H   H310      1.0  0.21765  0.41719  0.02350  1.0000
  Fe  Fe26      1.0  0.28901  0.40442  0.20393  1.0000
  S   S51       1.0  0.26371  0.38844  0.19382  1.0000
  H   H311      1.0  0.31245  0.34869  0.25201  1.0000
  S   S52       1.0  0.29893  0.43036  0.18668  1.0000
  H   H312      1.0  0.32369  0.48996  0.04552  1.0000
  Fe  Fe27      1.0  0.12853  0.35810  0.14414  1.0000
  S   S53       1.0  0.10957  0.37646  0.12325  1.0000
  S   S54       1.0  0.12415  0.32653  0.14500  1.0000
  Fe  Fe28      1.0  0.15418  0.39043  0.15175  1.0000
  S   S55       1.0  0.13642  0.41033  0.13112  1.0000
  S   S56       1.0  0.17856  0.40420  0.16754  1.0000
  Fe  Fe29      1.0  0.11181  0.39818  0.14905  1.0000
  S   S57       1.0  0.08505  0.41483  0.16092  1.0000
  Fe  Fe30      1.0  0.13552  0.38734  0.10691  1.0000
  S   S58       1.0  0.14514  0.39069  0.07044  1.0000
  S   S59       1.0  0.12949  0.37899  0.17061  1.0000
  S   S60       1.0  0.15448  0.36820  0.12682  1.0000
  Fe  Fe31      1.0  0.02630  0.48814  0.24809  1.0000
  S   S61       1.0  0.05244  0.47404  0.23112  1.0000
  S   S62       1.0  0.02604  0.48682  0.28488  1.0000
  C   C404      1.0  0.07626  0.43110  0.18091  1.0000
  C   C405      1.0  0.08786  0.44092  0.19379  1.0000
  C   C406      1.0  0.08030  0.45394  0.20882  1.0000
  C   C407      1.0  0.06099  0.45744  0.21147  1.0000
  C   C408      1.0  0.04937  0.44761  0.19865  1.0000
  C   C409      1.0  0.05694  0.43467  0.18349  1.0000
  H   H313      1.0  0.10271  0.43868  0.19197  1.0000
  H   H314      1.0  0.08952  0.46138  0.21853  1.0000
  H   H315      1.0  0.03452  0.44998  0.20041  1.0000
  H   H316      1.0  0.04773  0.42734  0.17367  1.0000
  H   H317      1.0  0.10988  0.45452  0.43380  1.0000
  C   C410      1.0  0.15102  0.38795  0.02563  1.0000
  C   C411      1.0  0.13789  0.38699  0.04314  1.0000
  C   C412      1.0  0.11963  0.38330  0.03832  1.0000
  C   C413      1.0  0.14605  0.38531  0.00382  1.0000
  H   H318      1.0  0.16519  0.39079  0.02895  1.0000
  H   H319      1.0  0.10928  0.38250  0.05140  1.0000
  H   H320      1.0  0.16205  0.32332  0.17448  1.0000
  C   C414      1.0  0.30330  0.48205  0.25249  1.0000
  C   C415      1.0  0.31040  0.47327  0.27129  1.0000
  C   C416      1.0  0.20624  0.42731  0.12378  1.0000
  H   H321      1.0  0.09284  0.31888  0.04787  1.0000
  C   C417      1.0  0.32666  0.41242  0.06390  1.0000
  C   C418      1.0  0.23995  0.39325  0.18702  1.0000
  C   C419      1.0  0.23157  0.41116  0.18697  1.0000
  C   C420      1.0  0.21289  0.41418  0.18093  1.0000
  C   C421      1.0  0.20225  0.39943  0.17470  1.0000
  C   C422      1.0  0.21063  0.38155  0.17477  1.0000
  C   C423      1.0  0.22929  0.37852  0.18084  1.0000
  H   H322      1.0  0.23945  0.42269  0.19165  1.0000
  H   H323      1.0  0.20660  0.42807  0.18114  1.0000
  H   H324      1.0  0.20265  0.37001  0.17048  1.0000
  H   H325      1.0  0.23551  0.36459  0.18081  1.0000
  C   C424      1.0  0.27708  0.43946  0.00684  1.0000
  C   C425      1.0  0.16931  0.30297  0.19969  1.0000
  C   C426      1.0  0.10815  0.27777  0.19241  1.0000
  C   C427      1.0  0.11099  0.29547  0.20048  1.0000
  C   C428      1.0  0.11560  0.31061  0.18636  1.0000
  C   C429      1.0  0.11751  0.30829  0.16384  1.0000
  C   C430      1.0  0.11462  0.29061  0.15579  1.0000
  C   C431      1.0  0.10987  0.27553  0.16988  1.0000
  H   H326      1.0  0.10971  0.29747  0.21783  1.0000
  H   H327      1.0  0.11796  0.32397  0.19295  1.0000
  H   H328      1.0  0.11604  0.28856  0.13846  1.0000
  H   H329      1.0  0.06377  0.47910  0.31472  1.0000
  C   C432      1.0  0.06844  0.48091  0.15252  1.0000
  H   H330      1.0  0.08379  0.44659  0.11882  1.0000
  C   C433      1.0  0.16503  0.27659  0.16814  1.0000
  C   C434      1.0  0.26820  0.41676  0.13853  1.0000
  C   C435      1.0  0.28303  0.47513  0.13170  1.0000
  C   C436      1.0  0.07872  0.32212  0.25263  1.0000
  C   C437      1.0  0.07861  0.32352  0.27525  1.0000
  C   C438      1.0  0.07908  0.34094  0.28445  1.0000
  C   C439      1.0  0.07974  0.35697  0.27103  1.0000
  C   C440      1.0  0.07988  0.35570  0.24827  1.0000
  C   C441      1.0  0.07931  0.33811  0.23917  1.0000
  P   P16       1.0  0.08142  0.37666  0.23140  1.0000
  C   C442      1.0  0.06512  0.39384  0.24271  1.0000
  C   C443      1.0  0.10479  0.38463  0.23063  1.0000
  C   C444      1.0  0.11830  0.37680  0.24453  1.0000
  C   C445      1.0  0.13641  0.38295  0.24316  1.0000
  C   C446      1.0  0.14114  0.39696  0.22800  1.0000
  C   C447      1.0  0.12775  0.40487  0.21424  1.0000
  C   C448      1.0  0.10972  0.39858  0.21538  1.0000
  C   C449      1.0  0.04720  0.38870  0.24920  1.0000
  C   C450      1.0  0.03432  0.40182  0.25777  1.0000
  C   C451      1.0  0.03926  0.42014  0.26001  1.0000
  C   C452      1.0  0.05708  0.42532  0.25374  1.0000
  C   C453      1.0  0.06995  0.41229  0.24499  1.0000
  C   C454      1.0  0.07572  0.37257  0.20361  1.0000
  C   C455      1.0  0.05996  0.38123  0.19421  1.0000
  C   C456      1.0  0.05594  0.37800  0.17258  1.0000
  C   C457      1.0  0.06758  0.36614  0.16021  1.0000
  C   C458      1.0  0.08333  0.35760  0.16940  1.0000
  C   C459      1.0  0.08757  0.36104  0.19086  1.0000
  H   H331      1.0  0.07836  0.30859  0.24547  1.0000
  H   H332      1.0  0.07814  0.31109  0.28562  1.0000
  H   H333      1.0  0.07898  0.34203  0.30199  1.0000
  H   H334      1.0  0.08022  0.37037  0.27840  1.0000
  H   H335      1.0  0.07922  0.33651  0.22177  1.0000
  H   H336      1.0  0.11507  0.36580  0.25619  1.0000
  H   H337      1.0  0.14687  0.37672  0.25368  1.0000
  H   H338      1.0  0.15525  0.40149  0.22659  1.0000
  H   H339      1.0  0.13150  0.41543  0.20213  1.0000
  H   H340      1.0  0.09967  0.40432  0.20408  1.0000
  H   H341      1.0  0.04313  0.37458  0.24742  1.0000
  C   C460      1.0  0.25845  0.42083  0.09490  1.0000
  C   C461      1.0  0.20691  0.37048  0.11902  1.0000
  H   H342      1.0  0.06084  0.43956  0.25540  1.0000
  H   H343      1.0  0.08352  0.41683  0.23997  1.0000
  H   H344      1.0  0.05100  0.39088  0.20318  1.0000
  H   H345      1.0  0.04411  0.38514  0.16521  1.0000
  H   H346      1.0  0.06465  0.36389  0.14337  1.0000
  H   H347      1.0  0.09244  0.34854  0.15974  1.0000
  H   H348      1.0  0.10011  0.35468  0.19751  1.0000
  C   C462      1.0  0.22096  0.34294  0.13648  1.0000
  H   H349      1.0  0.31503  0.35224  0.32126  1.0000
  C   C463      1.0  0.24920  0.45912  0.01249  1.0000
  C   C464      1.0  0.29225  0.41101  0.04463  1.0000
  H   H350      1.0  0.10747  0.26219  0.16326  1.0000
  C   C465      1.0  0.12447  0.34080  0.07617  1.0000
  C   C466      1.0  0.11971  0.49765  0.44972  1.0000
  C   C467      1.0  0.16255  0.29551  0.16281  1.0000
  C   C468      1.0  0.31307  0.48361  0.28999  1.0000
  H   H351      1.0  0.16203  0.42301  0.09050  1.0000
  H   H352      1.0  0.14410  0.28577  0.00415  1.0000
  C   C469      1.0  0.23108  0.39004  0.02723  1.0000
  C   C470      1.0  0.32007  0.32496  0.37449  1.0000
  C   C471      1.0  0.10702  0.29453  0.01228  1.0000
  H   H353      1.0  0.14168  0.26404  0.22159  1.0000
  C   C472      1.0  0.13826  0.50055  0.23679  1.0000
  C   C473      1.0  0.19036  0.43847  0.12843  1.0000
  C   C474      1.0  0.07532  0.45828  0.12479  1.0000
  H   H354      1.0  0.31551  0.39426  0.08902  1.0000
  C   C475      1.0  0.13572  0.33604  0.03910  1.0000
  H   H355      1.0  0.24206  0.36875  0.07550  1.0000
  H   H356      1.0  0.31239  0.46774  0.43641  1.0000
  H   H357      1.0  0.15068  0.34976  0.06322  1.0000
  H   H358      1.0  0.17087  0.31323  0.21189  1.0000
  C   C476      1.0  0.28559  0.47421  0.17084  1.0000
  C   C477      1.0  0.30482  0.32616  0.38908  1.0000
  C   C478      1.0  0.31862  0.34477  0.30662  1.0000
  H   H359      1.0  0.12643  0.34612  0.09219  1.0000
  H   H360      1.0  0.21664  0.42322  0.06270  1.0000
  H   H361      1.0  0.27195  0.41498  0.15544  1.0000
  C   C479      1.0  0.32612  0.47121  0.43048  1.0000
  C   C480      1.0  0.29932  0.48488  0.12947  1.0000
  C   C481      1.0  0.24718  0.41084  0.10974  1.0000
  H   H362      1.0  0.30464  0.36526  0.28585  1.0000
  C   C482      1.0  0.23800  0.37648  0.04196  1.0000
  C   C483      1.0  0.23693  0.37956  0.06434  1.0000
  H   H363      1.0  0.18962  0.40297  0.08251  1.0000
  C   C484      1.0  0.31683  0.34270  0.26752  1.0000
  C   C485      1.0  0.30600  0.42193  0.03475  1.0000
  C   C486      1.0  0.22337  0.40681  0.03484  1.0000
  C   C487      1.0  0.11952  0.32704  0.03462  1.0000
  H   H364      1.0  0.07177  0.48642  0.16800  1.0000
  H   H365      1.0  0.31613  0.48702  0.40248  1.0000
  C   C488      1.0  0.27613  0.46985  0.15238  1.0000
  C   C489      1.0  0.27956  0.42632  0.12363  1.0000
  H   H366      1.0  0.29774  0.31305  0.32931  1.0000
  C   C490      1.0  0.30888  0.48940  0.14800  1.0000
  H   H367      1.0  0.23150  0.38746  0.00994  1.0000
  C   C491      1.0  0.26820  0.45557  0.01516  1.0000
  H   H368      1.0  0.19010  0.44764  0.14204  1.0000
  C   C492      1.0  0.00019  0.46830  0.17624  1.0000
  H   H369      1.0  0.32469  0.45893  0.10128  1.0000
  C   C493      1.0  0.10940  0.46954  0.43437  1.0000
  H   H370      1.0  0.24388  0.36342  0.03609  1.0000
  C   C494      1.0  0.19025  0.41315  0.09502  1.0000
  H   H371      1.0  0.24249  0.47172  0.01865  1.0000
  C   C495      1.0  0.29986  0.31678  0.34595  1.0000
  C   C496      1.0  0.16935  0.27069  0.18947  1.0000
  H   H372      1.0  0.12923  0.47002  0.45973  1.0000
  Fe  Fe32      1.0  0.32706  0.41579  0.18509  1.0000
  C   C497      1.0  0.31244  0.35206  0.28665  1.0000
  H   H373      1.0  0.02359  0.46771  0.15407  1.0000
  C   C498      1.0  0.22899  0.39630  0.07211  1.0000
  C   C499      1.0  0.16452  0.30869  0.17860  1.0000
  C   C500      1.0  0.07469  0.48947  0.28389  1.0000
  C   C501      1.0  0.12026  0.47827  0.44902  1.0000
  H   H374      1.0  0.25493  0.42257  0.07797  1.0000
  H   H375      1.0  0.19447  0.37823  0.11417  1.0000
  H   H376      1.0  0.02927  0.43040  0.26651  1.0000
  H   H377      1.0  0.09742  0.33101  0.08441  1.0000
  C   C502      1.0  0.01501  0.47630  0.16479  1.0000
  H   H378      1.0  0.28509  0.39263  0.07172  1.0000
  C   C503      1.0  0.24026  0.36722  0.12182  1.0000
  H   H379      1.0  0.30941  0.48637  0.18322  1.0000
  C   C504      1.0  0.32747  0.32605  0.26833  1.0000
  H   H380      1.0  0.28350  0.43592  0.09035  1.0000
  C   C505      1.0  0.07170  0.48976  0.30645  1.0000
  P   P17       1.0  0.30172  0.43505  0.00971  1.0000
  H   H381      1.0  0.06912  0.47857  0.27468  1.0000
  C   C506      1.0  0.31401  0.46619  0.02982  1.0000
  C   C507      1.0  0.20521  0.35311  0.12953  1.0000
  H   H382      1.0  0.30445  0.48865  0.11328  1.0000
  C   C508      1.0  0.28712  0.32272  0.38213  1.0000
  H   H383      1.0  0.08671  0.34514  0.01866  1.0000
  C   C509      1.0  0.32818  0.49205  0.01071  1.0000
  C   C510      1.0  0.07973  0.46640  0.14413  1.0000
  H   H384      1.0  0.00079  0.25868  0.40116  1.0000
  C   C511      1.0  0.23848  0.35000  0.13262  1.0000
  C   C512      1.0  0.17185  0.28404  0.20510  1.0000
  C   C513      1.0  0.13823  0.34269  0.05987  1.0000
  H   H385      1.0  0.27531  0.32372  0.39345  1.0000
  H   H386      1.0  0.09163  0.46100  0.15298  1.0000
  H   H387      1.0  0.14645  0.33809  0.02669  1.0000
  C   C514      1.0  0.11060  0.28376  0.03128  1.0000
  H   H388      1.0  0.04527  0.50063  0.19857  1.0000
  C   C515      1.0  0.17453  0.43713  0.11625  1.0000
  H   H389      1.0  0.17555  0.27980  0.22151  1.0000
  H   H390      1.0  0.16208  0.44544  0.12023  1.0000
  C   C516      1.0  0.31287  0.40181  0.07379  1.0000
  H   H391      1.0  0.08989  0.47344  0.40866  1.0000
  C   C517      1.0  0.20642  0.41475  0.10680  1.0000
  H   H392      1.0  0.15856  0.30001  0.14655  1.0000
  H   H393      1.0  0.28036  0.46999  0.18692  1.0000
  C   C518      1.0  0.32821  0.48205  0.41135  1.0000
  C   C519      1.0  0.10810  0.33230  0.07172  1.0000
  C   C520      1.0  0.29573  0.40097  0.06406  1.0000
  H   H394      1.0  0.32301  0.28300  0.35043  1.0000
  C   C521      1.0  0.11462  0.38092  0.01650  1.0000
  H   H395      1.0  0.25069  0.34224  0.13827  1.0000
  C   C522      1.0  0.17449  0.42447  0.09955  1.0000
  C   C523      1.0  0.05976  0.46490  0.11351  1.0000
  P   P18       1.0  0.22675  0.39995  0.10103  1.0000
  H   H396      1.0  0.19160  0.34773  0.13272  1.0000
  C   C524      1.0  0.10559  0.32548  0.05102  1.0000
  H   H397      1.0  0.05626  0.45842  0.09863  1.0000
  C   C525      1.0  0.22445  0.37773  0.11516  1.0000
  C   C526      1.0  0.22260  0.41008  0.05714  1.0000
  H   H398      1.0  0.29220  0.43197  0.12900  1.0000
  H   H399      1.0  0.25399  0.37236  0.11891  1.0000
  H   H400      1.0  0.21810  0.42824  0.13388  1.0000
  C   C527      1.0  0.32190  0.48350  0.03011  1.0000
  H   H401      1.0  0.24345  0.40171  0.14337  1.0000
  C   C528      1.0  0.25206  0.40915  0.13163  1.0000
  H   H402      1.0  0.21955  0.32971  0.14508  1.0000
  H   H403      1.0  0.30942  0.45977  0.04510  1.0000
  C   C529      1.0  0.27461  0.42851  0.10186  1.0000
  H   H404      1.0  0.10036  0.37857  0.01315  1.0000
  C   C530      1.0  0.30203  0.48365  0.16867  1.0000
  H   H405      1.0  0.32989  0.40427  0.00509  1.0000
  H   H406      1.0  0.14555  0.48732  0.24003  1.0000
  H   H407      1.0  0.26358  0.46220  0.15416  1.0000
  H   H408      1.0  0.31403  0.45855  0.27136  1.0000
  C   C531      1.0  0.31248  0.45718  0.01007  1.0000
  H   H409      1.0  0.12412  0.25387  0.25440  1.0000
  H   H410      1.0  0.02048  0.39785  0.26263  1.0000
  H   H411      1.0  0.16342  0.26668  0.15560  1.0000
  H   H412      1.0  0.27592  0.46555  0.02345  1.0000
  C   C532      1.0  0.09811  0.48019  0.42025  1.0000
  C   C533      1.0  0.28465  0.31800  0.36058  1.0000
  H   H413      1.0  0.32288  0.44157  0.13694  1.0000
  H   H414      1.0  0.27888  0.41021  0.03741  1.0000
  C   C534      1.0  0.10236  0.26672  0.03490  1.0000
  H   H415      1.0  0.27093  0.31533  0.35519  1.0000
  H   H416      1.0  0.27578  0.47157  0.11739  1.0000
  H   H417      1.0  0.10483  0.25868  0.04983  1.0000
  H   H418      1.0  0.11957  0.28861  0.04347  1.0000
  C   C535      1.0  0.31766  0.32037  0.35277  1.0000
  C   C536      1.0  0.32330  0.42239  0.04443  1.0000
  Fe  Fe33      1.0  0.32415  0.40069  0.23238  1.0000
  C   C537      1.0  0.14617  0.25133  0.23011  1.0000
  H   H419      1.0  0.30674  0.32979  0.40580  1.0000
  H   H420      1.0  0.31870  0.47666  0.30434  1.0000
  H   H421      1.0  0.03628  0.48422  0.11302  1.0000
  C   C538      1.0  0.32960  0.32817  0.30757  1.0000
  C   C539      1.0  0.04854  0.47956  0.12168  1.0000
  S   S63       1.0  0.10245  0.25914  0.21122  1.0000
  P   P19       1.0  0.11664  0.31715  0.00831  1.0000
  C   C540      1.0  0.05281  0.48771  0.14125  1.0000
  C   C541      1.0  0.01872  0.49503  0.16758  1.0000
  C   C542      1.0  0.09072  0.26018  0.01945  1.0000
  C   C543      1.0  0.09754  0.49956  0.42091  1.0000
  H   H422      1.0  0.32029  0.43955  0.75422  1.0000
  S   S64       1.0  0.30866  0.38759  0.83814  1.0000
  C   C544      1.0  0.03943  0.43450  0.74737  1.0000
  Fe  Fe34      1.0  0.31970  0.43477  0.80931  1.0000
  S   S65       1.0  0.30213  0.41365  0.79477  1.0000
  H   H423      1.0  0.23445  0.44557  0.68423  1.0000
  Fe  Fe35      1.0  0.28837  0.41086  0.82838  1.0000
  S   S66       1.0  0.25622  0.41061  0.82882  1.0000
  C   C545      1.0  0.20793  0.31250  0.81345  1.0000
  S   S67       1.0  0.30506  0.43329  0.84238  1.0000
  Fe  Fe36      1.0  0.12679  0.35133  0.89539  1.0000
  S   S68       1.0  0.10651  0.37207  0.91125  1.0000
  S   S69       1.0  0.11416  0.32278  0.88978  1.0000
  Fe  Fe37      1.0  0.15823  0.37906  0.89656  1.0000
  S   S70       1.0  0.13945  0.40084  0.91271  1.0000
  S   S71       1.0  0.18993  0.38281  0.89312  1.0000
  Fe  Fe38      1.0  0.12900  0.37765  0.93471  1.0000
  S   S72       1.0  0.12036  0.37865  0.97161  1.0000
  Fe  Fe39      1.0  0.11816  0.39388  0.88818  1.0000
  S   S73       1.0  0.10034  0.41839  0.87247  1.0000
  S   S74       1.0  0.14864  0.35598  0.91985  1.0000
  S   S75       1.0  0.13757  0.37300  0.87103  1.0000
  Fe  Fe40      1.0  0.02745  0.48059  0.78275  1.0000
  S   S76       1.0  0.03044  0.48357  0.74598  1.0000
  S   S77       1.0  0.04579  0.45781  0.80107  1.0000
  C   C546      1.0  0.06089  0.44703  0.82116  1.0000
  C   C547      1.0  0.06709  0.45667  0.83879  1.0000
  C   C548      1.0  0.07900  0.44772  0.85419  1.0000
  C   C549      1.0  0.08498  0.42890  0.85248  1.0000
  C   C550      1.0  0.07868  0.41922  0.83494  1.0000
  C   C551      1.0  0.06695  0.42823  0.81938  1.0000
  H   H424      1.0  0.06287  0.47114  0.84045  1.0000
  H   H425      1.0  0.08367  0.45548  0.86757  1.0000
  H   H426      1.0  0.08282  0.40474  0.83336  1.0000
  H   H427      1.0  0.06236  0.42046  0.80598  1.0000
  C   C552      1.0  0.24927  0.44707  0.68234  1.0000
  H   H428      1.0  0.28048  0.37580  0.80630  1.0000
  C   C553      1.0  0.03391  0.49419  0.87051  1.0000
  C   C554      1.0  0.13101  0.25442  0.94639  1.0000
  H   H429      1.0  0.28010  0.48944  0.71559  1.0000
  C   C555      1.0  0.11981  0.26473  0.85786  1.0000
  C   C556      1.0  0.30466  0.48947  0.79293  1.0000
  H   H430      1.0  0.29230  0.35229  0.78020  1.0000
  H   H431      1.0  0.29768  0.48124  0.80543  1.0000
  C   C557      1.0  0.23799  0.40372  0.84755  1.0000
  C   C558      1.0  0.24135  0.39618  0.86841  1.0000
  C   C559      1.0  0.22647  0.39043  0.88223  1.0000
  C   C560      1.0  0.20801  0.39158  0.87533  1.0000
  C   C561      1.0  0.20466  0.39928  0.85455  1.0000
  C   C562      1.0  0.21948  0.40549  0.84093  1.0000
  H   H432      1.0  0.25542  0.39478  0.87393  1.0000
  H   H433      1.0  0.22935  0.38486  0.89835  1.0000
  H   H434      1.0  0.19069  0.40019  0.84887  1.0000
  H   H435      1.0  0.21659  0.41142  0.82495  1.0000
  H   H436      1.0  0.11292  0.32161  0.96117  1.0000
  P   P20       1.0  0.22706  0.34011  0.83261  1.0000
  C   C563      1.0  0.17352  0.31108  0.97226  1.0000
  C   C564      1.0  0.32087  0.48224  0.78272  1.0000
  C   C565      1.0  0.10349  0.27074  0.86897  1.0000
  C   C566      1.0  0.10214  0.28834  0.87870  1.0000
  C   C567      1.0  0.11696  0.30045  0.87736  1.0000
  C   C568      1.0  0.13332  0.29443  0.86630  1.0000
  C   C569      1.0  0.13471  0.27675  0.85674  1.0000
  C   C570      1.0  0.01666  0.42647  0.72175  1.0000
  H   H437      1.0  0.08938  0.29271  0.88710  1.0000
  H   H438      1.0  0.14490  0.30340  0.86508  1.0000
  H   H439      1.0  0.10636  0.30169  0.93095  1.0000
  S   S78       1.0  0.33053  0.45963  0.78921  1.0000
  C   C571      1.0  0.20790  0.35578  0.82474  1.0000
  C   C572      1.0  0.17481  0.36394  0.82570  1.0000
  C   C573      1.0  0.17776  0.37907  0.81145  1.0000
  C   C574      1.0  0.19568  0.38249  0.80363  1.0000
  C   C575      1.0  0.21069  0.37092  0.81019  1.0000
  C   C576      1.0  0.21976  0.31667  0.83011  1.0000
  H   H440      1.0  0.01131  0.42744  0.70547  1.0000
  H   H441      1.0  0.06598  0.36455  0.99545  1.0000
  C   C577      1.0  0.13195  0.28774  0.94043  1.0000
  C   C578      1.0  0.21939  0.28453  0.84329  1.0000
  C   C579      1.0  0.22564  0.30249  0.84487  1.0000
  H   H442      1.0  0.16618  0.38819  0.80660  1.0000
  H   H443      1.0  0.19806  0.39432  0.79279  1.0000
  C   C580      1.0  0.03455  0.39765  0.84276  1.0000
  H   H444      1.0  0.22439  0.37409  0.80404  1.0000
  H   H445      1.0  0.21230  0.34800  0.91106  1.0000
  H   H446      1.0  0.23493  0.30525  0.85771  1.0000
  C   C581      1.0  0.14620  0.32983  0.98259  1.0000
  H   H447      1.0  0.03495  0.32001  0.63735  1.0000
  H   H448      1.0  0.22382  0.27368  0.85485  1.0000
  C   C582      1.0  0.25748  0.44886  0.66151  1.0000
  H   H449      1.0  0.03733  0.36896  0.83417  1.0000
  C   C583      1.0  0.26011  0.44746  0.70076  1.0000
  H   H450      1.0  0.20692  0.45388  0.80641  1.0000
  H   H451      1.0  0.09179  0.26195  0.86979  1.0000
  C   C584      1.0  0.18976  0.35231  0.83225  1.0000
  H   H452      1.0  0.03453  0.25721  0.94169  1.0000
  C   C585      1.0  0.01291  0.41713  0.75996  1.0000
  H   H453      1.0  0.30132  0.41790  0.69474  1.0000
  H   H454      1.0  0.19231  0.29147  0.79929  1.0000
  Fe  Fe41      1.0  0.32367  0.39198  0.80562  1.0000
  C   C586      1.0  0.09769  0.47719  0.79653  1.0000
  C   C587      1.0  0.31011  0.41697  0.70865  1.0000
  C   C588      1.0  0.02365  0.31860  0.62646  1.0000
  H   H455      1.0  0.20439  0.34590  0.87289  1.0000
  H   H456      1.0  0.16091  0.36122  0.83174  1.0000
  C   C589      1.0  0.02950  0.42551  0.76417  1.0000
  C   C590      1.0  0.11201  0.25515  0.94210  1.0000
  H   H457      1.0  0.18707  0.34052  0.84307  1.0000
  H   H458      1.0  0.02670  0.47036  0.85276  1.0000
  C   C591      1.0  0.25944  0.44880  0.78662  1.0000
  C   C592      1.0  0.25145  0.34142  0.86697  1.0000
  C   C593      1.0  0.26729  0.46537  0.77955  1.0000
  C   C594      1.0  0.02739  0.31566  0.60435  1.0000
  C   C595      1.0  0.30959  0.43109  0.72390  1.0000
  C   C596      1.0  0.02690  0.41525  0.83725  1.0000
  C   C597      1.0  0.10129  0.33168  0.99170  1.0000
  H   H459      1.0  0.04321  0.39579  0.85682  1.0000
  H   H460      1.0  0.20236  0.26670  0.82585  1.0000
  P   P21       1.0  0.29354  0.45100  0.72180  1.0000
  C   C598      1.0  0.27754  0.46628  0.75985  1.0000
  H   H461      1.0  0.09166  0.34061  0.93829  1.0000
  H   H462      1.0  0.17447  0.28283  0.98482  1.0000
  C   C599      1.0  0.24740  0.34394  0.81535  1.0000
  C   C600      1.0  0.30402  0.42629  0.96572  1.0000
  C   C601      1.0  0.25391  0.33081  0.80019  1.0000
  H   H463      1.0  0.27025  0.34213  0.89336  1.0000
  H   H464      1.0  0.04301  0.48617  0.88129  1.0000
  H   H465      1.0  0.15637  0.38615  0.99073  1.0000
  H   H466      1.0  0.26592  0.47740  0.78966  1.0000
  H   H467      1.0  0.21245  0.43605  0.77289  1.0000
  C   C602      1.0  0.03296  0.43510  0.72618  1.0000
  H   H468      1.0  0.06839  0.36247  0.95525  1.0000
  C   C603      1.0  0.27003  0.33384  0.78753  1.0000
  C   C604      1.0  0.21882  0.34474  0.87696  1.0000
  C   C605      1.0  0.23285  0.34272  0.86077  1.0000
  C   C606      1.0  0.28740  0.45155  0.67742  1.0000
  C   C607      1.0  0.11312  0.28857  0.93597  1.0000
  C   C608      1.0  0.14088  0.27067  0.94573  1.0000
  C   C609      1.0  0.27310  0.36322  0.80459  1.0000
  C   C610      1.0  0.03133  0.38259  0.82989  1.0000
  C   C611      1.0  0.27654  0.45111  0.65905  1.0000
  H   H469      1.0  0.24905  0.44868  0.64727  1.0000
  C   C612      1.0  0.20734  0.28058  0.82692  1.0000
  H   H470      1.0  0.27519  0.32359  0.77606  1.0000
  C   C613      1.0  0.12772  0.38188  0.99898  1.0000
  H   H471      1.0  0.16877  0.33988  0.96251  1.0000
  C   C614      1.0  0.32179  0.40111  0.71158  1.0000
  C   C615      1.0  0.27966  0.35000  0.78978  1.0000
  H   H472      1.0  0.24676  0.31816  0.79827  1.0000
  H   H473      1.0  0.01826  0.37326  0.80174  1.0000
  C   C616      1.0  0.02468  0.48524  0.85452  1.0000
  C   C617      1.0  0.19557  0.44711  0.79933  1.0000
  C   C618      1.0  0.19869  0.43704  0.78044  1.0000
  C   C619      1.0  0.18403  0.42836  0.77129  1.0000
  C   C620      1.0  0.16633  0.42947  0.78123  1.0000
  C   C621      1.0  0.16315  0.43930  0.80044  1.0000
  C   C622      1.0  0.17784  0.44846  0.80914  1.0000
  P   P22       1.0  0.14033  0.44081  0.81350  1.0000
  C   C623      1.0  0.12794  0.42043  0.80762  1.0000
  C   C624      1.0  0.14299  0.44181  0.84256  1.0000
  C   C625      1.0  0.15727  0.43117  0.85261  1.0000
  C   C626      1.0  0.15967  0.43200  0.87501  1.0000
  C   C627      1.0  0.14764  0.44331  0.88762  1.0000
  C   C628      1.0  0.13321  0.45371  0.87782  1.0000
  C   C629      1.0  0.13088  0.45302  0.85537  1.0000
  C   C630      1.0  0.12734  0.40525  0.82251  1.0000
  C   C631      1.0  0.11772  0.38958  0.81771  1.0000
  C   C632      1.0  0.10849  0.38900  0.79816  1.0000
  C   C633      1.0  0.10891  0.40407  0.78331  1.0000
  C   C634      1.0  0.11864  0.41969  0.78796  1.0000
  C   C635      1.0  0.12737  0.46116  0.80343  1.0000
  C   C636      1.0  0.13645  0.47636  0.79392  1.0000
  C   C637      1.0  0.09044  0.34138  0.95586  1.0000
  C   C638      1.0  0.10314  0.27242  0.93690  1.0000
  C   C639      1.0  0.10793  0.46179  0.80483  1.0000
  C   C640      1.0  0.07726  0.35360  0.96543  1.0000
  C   C641      1.0  0.24179  0.34490  0.90477  1.0000
  H   H474      1.0  0.18641  0.42073  0.75650  1.0000
  H   H475      1.0  0.15521  0.42263  0.77388  1.0000
  H   H476      1.0  0.17567  0.45654  0.82363  1.0000
  H   H477      1.0  0.16647  0.42209  0.84315  1.0000
  H   H478      1.0  0.17062  0.42357  0.88267  1.0000
  H   H479      1.0  0.14921  0.44360  0.90507  1.0000
  H   H480      1.0  0.12349  0.46192  0.88774  1.0000
  H   H481      1.0  0.11938  0.46088  0.84823  1.0000
  H   H482      1.0  0.13384  0.40560  0.83807  1.0000
  H   H483      1.0  0.11693  0.37812  0.82950  1.0000
  H   H484      1.0  0.10072  0.37700  0.79473  1.0000
  H   H485      1.0  0.10147  0.40377  0.76832  1.0000
  H   H486      1.0  0.11873  0.43129  0.77631  1.0000
  H   H487      1.0  0.15141  0.47632  0.79274  1.0000
  H   H488      1.0  0.10067  0.45029  0.81225  1.0000
  C   C642      1.0  0.27976  0.45062  0.74689  1.0000
  H   H489      1.0  0.25340  0.44639  0.71671  1.0000
  C   C643      1.0  0.25587  0.34271  0.88883  1.0000
  C   C644      1.0  0.25712  0.36017  0.81739  1.0000
  H   H490      1.0  0.03233  0.25768  0.90145  1.0000
  H   H491      1.0  0.02976  0.42703  0.84693  1.0000
  H   H492      1.0  0.25243  0.37040  0.82908  1.0000
  H   H493      1.0  0.25597  0.42018  0.77971  1.0000
  H   H494      1.0  0.27370  0.42164  0.74464  1.0000
  H   H495      1.0  0.09300  0.29538  0.98157  1.0000
  H   H496      1.0  0.08265  0.47745  0.79744  1.0000
  H   H497      1.0  0.30510  0.41905  0.93190  1.0000
  C   C645      1.0  0.09575  0.28758  0.99654  1.0000
  C   C646      1.0  0.32668  0.48322  0.99101  1.0000
  C   C647      1.0  0.14926  0.29765  0.99505  1.0000
  H   H498      1.0  0.29415  0.43783  0.96302  1.0000
  H   H499      1.0  0.28289  0.45269  0.64291  1.0000
  H   H500      1.0  0.32207  0.39014  0.69994  1.0000
  H   H501      1.0  0.04158  0.31488  0.59807  1.0000
  C   C648      1.0  0.27929  0.44956  0.69840  1.0000
  C   C649      1.0  0.27172  0.43404  0.75407  1.0000
  H   H502      1.0  0.04029  0.44266  0.71332  1.0000
  H   H503      1.0  0.20339  0.32316  0.80172  1.0000
  H   H504      1.0  0.14745  0.27241  0.84827  1.0000
  C   C650      1.0  0.16337  0.32803  0.97155  1.0000
  C   C651      1.0  0.31006  0.41562  0.94807  1.0000
  C   C652      1.0  0.26157  0.43317  0.77382  1.0000
  H   H505      1.0  0.01571  0.31101  0.57330  1.0000
  H   H506      1.0  0.23961  0.42064  0.98521  1.0000
  C   C653      1.0  0.20167  0.29454  0.81196  1.0000
  H   H507      1.0  0.13861  0.34315  0.98205  1.0000
  C   C654      1.0  0.08781  0.34376  0.00121  1.0000
  H   H508      1.0  0.24520  0.34619  0.92165  1.0000
  C   C655      1.0  0.02055  0.38512  0.81143  1.0000
  H   H509      1.0  0.15559  0.26998  0.94865  1.0000
  H   H510      1.0  0.26264  0.33937  0.85505  1.0000
  C   C656      1.0  0.22328  0.34578  0.89884  1.0000
  H   H511      1.0  0.05183  0.44157  0.75100  1.0000
  H   H512      1.0  0.08872  0.27355  0.93272  1.0000
  H   H513      1.0  0.01795  0.37686  0.75729  1.0000
  C   C657      1.0  0.01625  0.41787  0.81874  1.0000
  H   H514      1.0  0.13967  0.30029  0.93921  1.0000
  C   C658      1.0  0.12616  0.49180  0.78566  1.0000
  C   C659      1.0  0.26650  0.42660  0.99663  1.0000
  C   C660      1.0  0.01299  0.40283  0.80566  1.0000
  C   C661      1.0  0.30548  0.47234  0.71739  1.0000
  C   C662      1.0  0.00374  0.37314  0.76047  1.0000
  H   H515      1.0  0.33217  0.48947  0.97600  1.0000
  H   H516      1.0  0.31821  0.45927  0.97520  1.0000
  C   C663      1.0  0.13892  0.31461  0.99425  1.0000
  H   H517      1.0  0.25214  0.44788  0.80230  1.0000
  C   C664      1.0  0.29508  0.48909  0.71411  1.0000
  H   H518      1.0  0.30214  0.45354  0.67530  1.0000
  C   C665      1.0  0.31883  0.46589  0.99065  1.0000
  Fe  Fe42      1.0  0.32618  0.41005  0.85016  1.0000
  C   C666      1.0  0.32080  0.42900  0.74208  1.0000
  C   C667      1.0  0.10679  0.49218  0.78688  1.0000
  H   H519      1.0  0.03469  0.42553  0.78042  1.0000
  C   C668      1.0  0.32405  0.40749  0.98937  1.0000
  H   H520      1.0  0.07877  0.26530  0.98808  1.0000
  H   H521      1.0  0.01094  0.43176  0.81433  1.0000
  C   C669      1.0  0.07592  0.35476  0.98809  1.0000
  H   H522      1.0  0.27292  0.41383  0.99058  1.0000
  H   H523      1.0  0.00580  0.48862  0.82815  1.0000
  C   C670      1.0  0.32489  0.47232  0.71519  1.0000
  H   H524      1.0  0.18685  0.30975  0.96372  1.0000
  H   H525      1.0  0.28411  0.47906  0.75526  1.0000
  C   C671      1.0  0.33003  0.39683  0.97165  1.0000
  C   C672      1.0  0.16651  0.29592  0.98410  1.0000
  C   C673      1.0  0.10250  0.33060  0.96891  1.0000
  H   H526      1.0  0.22428  0.44955  0.99917  1.0000
  H   H527      1.0  0.32754  0.39258  0.93730  1.0000
  C   C674      1.0  0.01299  0.49551  0.84055  1.0000
  H   H528      1.0  0.00262  0.32157  0.65182  1.0000
  C   C675      1.0  0.24757  0.43033  0.99371  1.0000
  C   C676      1.0  0.00668  0.41747  0.73853  1.0000
  H   H529      1.0  0.00744  0.34737  0.74376  1.0000
  C   C677      1.0  0.00533  0.31958  0.63459  1.0000
  C   C678      1.0  0.31073  0.42213  0.98662  1.0000
  C   C679      1.0  0.04493  0.25241  0.90902  1.0000
  C   C680      1.0  0.01281  0.31352  0.59039  1.0000
  C   C681      1.0  0.32283  0.40073  0.95109  1.0000
  H   H530      1.0  0.33141  0.44076  0.89066  1.0000
  C   C682      1.0  0.04619  0.25215  0.93167  1.0000
  C   C683      1.0  0.33003  0.49336  0.76690  1.0000
  C   C684      1.0  0.33240  0.41313  0.74502  1.0000
  C   C685      1.0  0.23893  0.44661  0.00157  1.0000
  C   C686      1.0  0.08764  0.27047  0.00015  1.0000
  S   S79       1.0  0.11253  0.74280  0.32032  1.0000
  Fe  Fe43      1.0  0.28230  0.58052  0.33013  1.0000
  S   S80       1.0  0.29019  0.55562  0.35147  1.0000
  S   S81       1.0  0.25343  0.59520  0.32661  1.0000
  C   C687      1.0  0.08784  0.71513  0.49465  1.0000
  C   C688      1.0  0.10785  0.53319  0.48151  1.0000
  Fe  Fe44      1.0  0.30833  0.54601  0.32274  1.0000
  S   S82       1.0  0.31269  0.51521  0.31424  1.0000
  Fe  Fe45      1.0  0.31461  0.57183  0.36049  1.0000
  C   C689      1.0  0.03995  0.52484  0.11227  1.0000
  S   S83       1.0  0.29890  0.56990  0.30077  1.0000
  S   S84       1.0  0.30581  0.59743  0.34045  1.0000
  Fe  Fe46      1.0  0.12202  0.61298  0.42822  1.0000
  S   S85       1.0  0.14363  0.63017  0.41127  1.0000
  S   S86       1.0  0.11568  0.61022  0.46574  1.0000
  Fe  Fe47      1.0  0.10803  0.59991  0.38276  1.0000
  S   S87       1.0  0.12880  0.61711  0.36364  1.0000
  S   S88       1.0  0.08860  0.57837  0.36923  1.0000
  Fe  Fe48      1.0  0.14954  0.60643  0.38848  1.0000
  S   S89       1.0  0.17735  0.58988  0.38346  1.0000
  Fe  Fe49      1.0  0.12137  0.63975  0.38781  1.0000
  S   S90       1.0  0.11411  0.67127  0.38582  1.0000
  S   S91       1.0  0.12901  0.58868  0.40686  1.0000
  S   S92       1.0  0.09945  0.62301  0.40542  1.0000
  Fe  Fe50      1.0  0.02058  0.51795  0.28396  1.0000
  S   S93       1.0  0.02220  0.51946  0.24713  1.0000
  S   S94       1.0  0.03698  0.54078  0.30013  1.0000
  C   C690      1.0  0.07367  0.56849  0.35013  1.0000
  C   C691      1.0  0.06864  0.57771  0.33059  1.0000
  C   C692      1.0  0.05736  0.56915  0.31570  1.0000
  C   C693      1.0  0.05069  0.55128  0.32003  1.0000
  C   C694      1.0  0.05536  0.54227  0.33982  1.0000
  C   C695      1.0  0.06678  0.55074  0.35462  1.0000
  H   H531      1.0  0.07364  0.59137  0.32679  1.0000
  H   H532      1.0  0.05392  0.57638  0.30055  1.0000
  H   H533      1.0  0.05014  0.52871  0.34370  1.0000
  H   H534      1.0  0.07021  0.54348  0.36975  1.0000
  C   C696      1.0  0.23256  0.59373  0.34305  1.0000
  C   C697      1.0  0.23049  0.58038  0.35992  1.0000
  C   C698      1.0  0.21359  0.57956  0.37212  1.0000
  C   C699      1.0  0.19854  0.59214  0.36787  1.0000
  C   C700      1.0  0.20071  0.60572  0.35129  1.0000
  C   C701      1.0  0.21755  0.60642  0.33893  1.0000
  H   H535      1.0  0.24186  0.57056  0.36341  1.0000
  H   H536      1.0  0.21216  0.56900  0.38489  1.0000
  H   H537      1.0  0.18933  0.61549  0.34773  1.0000
  H   H538      1.0  0.21893  0.61683  0.32598  1.0000
  C   C702      1.0  0.31877  0.54506  0.23473  1.0000
  C   C703      1.0  0.21120  0.63463  0.47366  1.0000
  H   H539      1.0  0.16520  0.56841  0.44670  1.0000
  H   H540      1.0  0.06741  0.74170  0.34663  1.0000
  C   C704      1.0  0.23627  0.61730  0.41553  1.0000
  C   C705      1.0  0.30090  0.57345  0.24257  1.0000
  C   C706      1.0  0.30117  0.51152  0.27164  1.0000
  H   H541      1.0  0.09581  0.64634  0.47781  1.0000
  H   H542      1.0  0.29739  0.52618  0.27179  1.0000
  C   C707      1.0  0.11270  0.72306  0.33881  1.0000
  C   C708      1.0  0.11870  0.70550  0.33115  1.0000
  C   C709      1.0  0.11934  0.68954  0.34518  1.0000
  C   C710      1.0  0.11402  0.69090  0.36721  1.0000
  C   C711      1.0  0.10799  0.70845  0.37487  1.0000
  C   C712      1.0  0.10741  0.72440  0.36084  1.0000
  H   H543      1.0  0.12292  0.70426  0.31420  1.0000
  H   H544      1.0  0.12393  0.67621  0.33894  1.0000
  H   H545      1.0  0.10381  0.70975  0.39182  1.0000
  H   H546      1.0  0.10312  0.73779  0.36711  1.0000
  H   H547      1.0  0.20073  0.69067  0.40248  1.0000
  C   C713      1.0  0.14693  0.55277  0.30546  1.0000
  C   C714      1.0  0.07912  0.58392  0.24379  1.0000
  C   C715      1.0  0.26629  0.60062  0.41699  1.0000
  C   C716      1.0  0.11970  0.57121  0.31671  1.0000
  C   C717      1.0  0.22210  0.63626  0.45438  1.0000
  C   C718      1.0  0.04516  0.70929  0.37781  1.0000
  C   C719      1.0  0.10918  0.56208  0.30206  1.0000
  C   C720      1.0  0.14818  0.54930  0.37973  1.0000
  C   C721      1.0  0.07894  0.64504  0.44999  1.0000
  P   P23       1.0  0.21539  0.62619  0.42941  1.0000
  C   C722      1.0  0.13981  0.50923  0.21620  1.0000
  C   C723      1.0  0.10650  0.72117  0.46192  1.0000
  C   C724      1.0  0.19297  0.57493  0.43629  1.0000
  C   C725      1.0  0.11939  0.53466  0.22843  1.0000
  C   C726      1.0  0.30225  0.65220  0.25968  1.0000
  H   H548      1.0  0.28185  0.59869  0.38657  1.0000
  C   C727      1.0  0.06185  0.52305  0.20692  1.0000
  C   C728      1.0  0.08655  0.55305  0.25916  1.0000
  C   C729      1.0  0.13860  0.56662  0.31835  1.0000
  H   H549      1.0  0.08900  0.50765  0.40957  1.0000
  H   H550      1.0  0.14311  0.53281  0.28113  1.0000
  H   H551      1.0  0.14802  0.53743  0.43369  1.0000
  H   H552      1.0  0.21737  0.66706  0.42535  1.0000
  H   H553      1.0  0.00159  0.52653  0.14620  1.0000
  P   P24       1.0  0.03749  0.50575  0.15245  1.0000
  C   C730      1.0  0.09206  0.57077  0.25221  1.0000
  H   H554      1.0  0.13659  0.57710  0.48374  1.0000
  H   H555      1.0  0.02841  0.70930  0.29110  1.0000
  H   H556      1.0  0.03781  0.69663  0.37664  1.0000
  C   C731      1.0  0.06879  0.54534  0.17785  1.0000
  H   H557      1.0  0.28894  0.54724  0.23735  1.0000
  H   H558      1.0  0.06303  0.53542  0.26324  1.0000
  H   H559      1.0  0.01295  0.72010  0.35814  1.0000
  C   C732      1.0  0.29659  0.69896  0.23498  1.0000
  H   H560      1.0  0.18371  0.68081  0.44731  1.0000
  C   C733      1.0  0.32604  0.52052  0.10524  1.0000
  C   C734      1.0  0.01811  0.71293  0.30365  1.0000
  P   P25       1.0  0.10765  0.53341  0.43615  1.0000
  C   C735      1.0  0.27100  0.64465  0.27169  1.0000
  C   C736      1.0  0.23846  0.64605  0.45458  1.0000
  C   C737      1.0  0.18179  0.65209  0.38427  1.0000
  H   H561      1.0  0.05396  0.51887  0.11087  1.0000
  C   C738      1.0  0.06443  0.56883  0.41868  1.0000
  H   H562      1.0  0.06393  0.64714  0.42025  1.0000
  C   C739      1.0  0.23920  0.62042  0.39303  1.0000
  H   H563      1.0  0.09926  0.52130  0.48118  1.0000
  C   C740      1.0  0.12427  0.55793  0.46298  1.0000
  C   C741      1.0  0.05498  0.56199  0.24943  1.0000
  C   C742      1.0  0.07032  0.53920  0.19956  1.0000
  H   H564      1.0  0.12824  0.56563  0.44830  1.0000
  C   C743      1.0  0.30860  0.50282  0.29028  1.0000
  C   C744      1.0  0.02862  0.52083  0.13070  1.0000
  H   H565      1.0  0.14674  0.57375  0.32972  1.0000
  C   C745      1.0  0.29706  0.62465  0.28254  1.0000
  H   H566      1.0  0.09275  0.52946  0.31686  1.0000
  C   C746      1.0  0.04836  0.71606  0.39837  1.0000
  C   C747      1.0  0.20386  0.64379  0.41239  1.0000
  H   H567      1.0  0.26872  0.61985  0.29210  1.0000
  H   H568      1.0  0.14039  0.70595  0.48729  1.0000
  C   C748      1.0  0.20742  0.66266  0.41408  1.0000
  C   C749      1.0  0.19115  0.63864  0.39719  1.0000
  C   C750      1.0  0.12267  0.61357  0.49334  1.0000
  H   H569      1.0  0.28765  0.58067  0.24580  1.0000
  C   C751      1.0  0.13638  0.54351  0.29087  1.0000
  C   C752      1.0  0.24993  0.60729  0.42743  1.0000
  H   H570      1.0  0.03113  0.67677  0.31459  1.0000
  H   H571      1.0  0.29316  0.68818  0.17387  1.0000
  C   C753      1.0  0.30570  0.68291  0.22681  1.0000
  C   C754      1.0  0.01065  0.52910  0.13220  1.0000
  C   C755      1.0  0.33044  0.63552  0.22230  1.0000
  H   H572      1.0  0.07526  0.55793  0.17218  1.0000
  C   C756      1.0  0.08221  0.56124  0.42250  1.0000
  C   C757      1.0  0.32332  0.56005  0.17524  1.0000
  H   H573      1.0  0.04212  0.53978  0.08138  1.0000
  C   C758      1.0  0.25570  0.61393  0.38274  1.0000
  H   H574      1.0  0.16159  0.54919  0.30682  1.0000
  C   C759      1.0  0.11739  0.54815  0.28904  1.0000
  C   C760      1.0  0.06030  0.72203  0.31120  1.0000
  C   C761      1.0  0.07631  0.71372  0.30148  1.0000
  P   P26       1.0  0.04717  0.71002  0.33238  1.0000
  C   C762      1.0  0.02311  0.71378  0.32550  1.0000
  C   C763      1.0  0.05387  0.68557  0.33334  1.0000
  C   C764      1.0  0.06975  0.67946  0.34455  1.0000
  C   C765      1.0  0.07506  0.66060  0.34591  1.0000
  C   C766      1.0  0.06457  0.64764  0.33604  1.0000
  C   C767      1.0  0.04878  0.65359  0.32473  1.0000
  C   C768      1.0  0.04342  0.67250  0.32336  1.0000
  C   C769      1.0  0.03334  0.53675  0.09556  1.0000
  C   C770      1.0  0.16337  0.69472  0.46816  1.0000
  C   C771      1.0  0.18512  0.67084  0.38632  1.0000
  H   H575      1.0  0.12411  0.55074  0.35980  1.0000
  C   C772      1.0  0.06440  0.74173  0.38139  1.0000
  C   C773      1.0  0.05146  0.71880  0.35887  1.0000
  P   P27       1.0  0.10332  0.53635  0.27053  1.0000
  C   C774      1.0  0.28304  0.65632  0.26009  1.0000
  H   H576      1.0  0.31895  0.53040  0.23161  1.0000
  C   C775      1.0  0.24378  0.65408  0.47366  1.0000
  C   C776      1.0  0.11715  0.54273  0.39295  1.0000
  C   C777      1.0  0.26919  0.60397  0.39466  1.0000
  H   H577      1.0  0.04050  0.55868  0.24897  1.0000
  H   H578      1.0  0.17772  0.68124  0.37637  1.0000
  H   H579      1.0  0.05044  0.58978  0.23630  1.0000
  Fe  Fe51      1.0  0.32309  0.58503  0.31298  1.0000
  H   H580      1.0  0.07807  0.68932  0.35225  1.0000
  H   H581      1.0  0.08736  0.65607  0.35465  1.0000
  H   H582      1.0  0.06869  0.63300  0.33717  1.0000
  C   C778      1.0  0.27801  0.62883  0.28294  1.0000
  H   H583      1.0  0.14889  0.62535  0.48510  1.0000
  H   H584      1.0  0.25620  0.64787  0.27213  1.0000
  C   C779      1.0  0.11431  0.54174  0.46202  1.0000
  C   C780      1.0  0.12938  0.54768  0.37588  1.0000
  C   C781      1.0  0.06895  0.53351  0.43842  1.0000
  C   C782      1.0  0.14487  0.69564  0.47559  1.0000
  H   H585      1.0  0.19862  0.62709  0.47424  1.0000
  C   C783      1.0  0.05434  0.74002  0.30424  1.0000
  C   C784      1.0  0.12357  0.53962  0.41413  1.0000
  C   C785      1.0  0.05019  0.51909  0.17080  1.0000
  H   H586      1.0  0.30255  0.61248  0.29139  1.0000
  C   C786      1.0  0.16941  0.68149  0.45311  1.0000
  C   C787      1.0  0.15481  0.54553  0.40059  1.0000
  H   H587      1.0  0.24789  0.60455  0.44475  1.0000
  C   C788      1.0  0.19803  0.67612  0.40111  1.0000
  H   H588      1.0  0.11226  0.54783  0.22481  1.0000
  C   C789      1.0  0.18136  0.61193  0.44233  1.0000
  H   H589      1.0  0.30286  0.51874  0.17764  1.0000
  H   H590      1.0  0.24713  0.64750  0.43993  1.0000
  C   C790      1.0  0.20535  0.58904  0.43197  1.0000
  C   C791      1.0  0.13845  0.66991  0.45302  1.0000
  H   H591      1.0  0.22880  0.62767  0.38327  1.0000
  H   H592      1.0  0.32325  0.53553  0.07450  1.0000
  C   C792      1.0  0.17485  0.57930  0.44370  1.0000
  H   H593      1.0  0.19733  0.56065  0.43336  1.0000
  C   C793      1.0  0.28527  0.70724  0.19914  1.0000
  P   P28       1.0  0.31822  0.66705  0.24495  1.0000
  H   H594      1.0  0.04348  0.70867  0.41293  1.0000
  H   H595      1.0  0.17188  0.64792  0.37270  1.0000
  H   H596      1.0  0.09457  0.56575  0.30097  1.0000
  H   H597      1.0  0.11313  0.58175  0.32695  1.0000
  H   H598      1.0  0.32171  0.57371  0.18206  1.0000
  C   C794      1.0  0.14261  0.54044  0.41769  1.0000
  C   C795      1.0  0.19966  0.60768  0.43503  1.0000
  H   H599      1.0  0.11609  0.71652  0.44908  1.0000
  H   H600      1.0  0.27681  0.59279  0.42609  1.0000
  H   H601      1.0  0.21913  0.58530  0.42571  1.0000
  H   H602      1.0  0.18843  0.62420  0.39535  1.0000
  H   H603      1.0  0.27727  0.66849  0.25159  1.0000
  H   H604      1.0  0.31680  0.59712  0.24879  1.0000
  H   H605      1.0  0.09405  0.56929  0.41780  1.0000
  C   C796      1.0  0.16907  0.59778  0.44678  1.0000
  H   H606      1.0  0.17653  0.62620  0.44443  1.0000
  C   C797      1.0  0.33095  0.52473  0.08349  1.0000
  C   C798      1.0  0.30164  0.55462  0.23787  1.0000
  C   C799      1.0  0.05881  0.53530  0.16347  1.0000
  H   H607      1.0  0.29940  0.54969  0.19259  1.0000
  H   H608      1.0  0.07796  0.54702  0.21070  1.0000
  C   C800      1.0  0.07681  0.67264  0.42661  1.0000
  C   C801      1.0  0.07214  0.65436  0.43141  1.0000
  H   H609      1.0  0.06277  0.58244  0.41076  1.0000
  C   C802      1.0  0.09011  0.65410  0.46400  1.0000
  C   C803      1.0  0.09411  0.67278  0.45988  1.0000
  C   C804      1.0  0.08776  0.68183  0.44075  1.0000
  H   H610      1.0  0.07042  0.51996  0.44642  1.0000
  H   H611      1.0  0.15494  0.60117  0.45227  1.0000
  C   C805      1.0  0.00951  0.71894  0.34129  1.0000
  C   C806      1.0  0.30910  0.63626  0.27096  1.0000
  H   H612      1.0  0.06294  0.51819  0.22373  1.0000
  C   C807      1.0  0.13042  0.52628  0.21203  1.0000
  C   C808      1.0  0.00744  0.50551  0.18211  1.0000
  C   C809      1.0  0.06790  0.54877  0.25765  1.0000
  H   H613      1.0  0.09874  0.71702  0.27790  1.0000
  H   H614      1.0  0.10633  0.57447  0.25349  1.0000
  H   H615      1.0  0.07615  0.63054  0.45320  1.0000
  H   H616      1.0  0.16938  0.54702  0.40349  1.0000
  C   C810      1.0  0.30423  0.67899  0.20472  1.0000
  H   H617      1.0  0.07250  0.67949  0.41153  1.0000
  C   C811      1.0  0.08122  0.73367  0.49420  1.0000
  H   H618      1.0  0.15759  0.55378  0.36670  1.0000
  P   P29       1.0  0.10847  0.68453  0.47806  1.0000
  H   H619      1.0  0.09152  0.69581  0.43636  1.0000
  H   H620      1.0  0.08155  0.70011  0.30687  1.0000
  H   H621      1.0  0.31450  0.52820  0.11294  1.0000
  H   H622      1.0  0.05781  0.54027  0.14675  1.0000
  H   H623      1.0  0.25795  0.61636  0.36538  1.0000
  H   H624      1.0  0.12903  0.66016  0.44695  1.0000
  H   H625      1.0  0.08340  0.59761  0.23863  1.0000
  C   C812      1.0  0.28647  0.71110  0.22116  1.0000
  C   C813      1.0  0.08001  0.74109  0.27803  1.0000
  H   H626      1.0  0.16162  0.65912  0.43356  1.0000
  C   C814      1.0  0.06057  0.57953  0.24244  1.0000
  C   C815      1.0  0.15695  0.66917  0.44548  1.0000
  C   C816      1.0  0.09984  0.73969  0.46151  1.0000
  C   C817      1.0  0.32747  0.52451  0.15770  1.0000
  C   C818      1.0  0.12882  0.56465  0.48310  1.0000
  H   H627      1.0  0.01010  0.51991  0.18483  1.0000
  C   C819      1.0  0.08462  0.54332  0.43181  1.0000
  H   H628      1.0  0.29729  0.70206  0.25207  1.0000
  H   H629      1.0  0.17303  0.70431  0.47403  1.0000
  C   C820      1.0  0.29412  0.69118  0.19094  1.0000
  H   H630      1.0  0.04067  0.64351  0.31706  1.0000
  C   C821      1.0  0.08605  0.72320  0.28486  1.0000
  C   C822      1.0  0.05179  0.51308  0.19262  1.0000
  H   H631      1.0  0.27954  0.72351  0.22755  1.0000
  H   H632      1.0  0.10262  0.54173  0.38959  1.0000
  C   C823      1.0  0.13228  0.68321  0.46812  1.0000
  H   H633      1.0  0.31720  0.62988  0.22686  1.0000
  C   C824      1.0  0.10051  0.70869  0.47846  1.0000
  C   C825      1.0  0.99987  0.71727  0.29770  1.0000
  C   C826      1.0  0.11759  0.52592  0.24911  1.0000
  C   C827      1.0  0.08718  0.74594  0.47762  1.0000
  C   C828      1.0  0.05787  0.73235  0.40014  1.0000
  H   H634      1.0  0.06033  0.73768  0.41602  1.0000
  S   S95       1.0  0.32155  0.57776  0.39563  1.0000
  H   H635      1.0  0.03515  0.56463  0.42140  1.0000
  C   C829      1.0  0.31083  0.54647  0.18129  1.0000
  C   C830      1.0  0.06146  0.73480  0.36086  1.0000
  H   H636      1.0  0.03909  0.53347  0.43947  1.0000
  C   C831      1.0  0.08812  0.51824  0.30746  1.0000
  C   C832      1.0  0.31289  0.52877  0.17268  1.0000
  C   C833      1.0  0.11218  0.54014  0.50162  1.0000
  C   C834      1.0  0.04890  0.55877  0.42461  1.0000
  C   C835      1.0  0.12724  0.50887  0.25321  1.0000
  H   H637      1.0  0.08608  0.50330  0.25551  1.0000
  H   H638      1.0  0.31092  0.66659  0.19808  1.0000
  C   C836      1.0  0.09119  0.51804  0.28479  1.0000
  H   H639      1.0  0.27745  0.71668  0.18844  1.0000
  C   C837      1.0  0.31729  0.58274  0.24413  1.0000
  H   H640      1.0  0.13166  0.53300  0.19606  1.0000
  C   C838      1.0  0.05115  0.54118  0.43467  1.0000
  C   C839      1.0  0.01542  0.54486  0.09718  1.0000
  H   H641      1.0  0.04220  0.74681  0.31176  1.0000
  C   C840      1.0  0.10802  0.50841  0.43599  1.0000
  H   H642      1.0  0.25646  0.66154  0.47368  1.0000
  H   H643      1.0  0.32383  0.63291  0.27092  1.0000
  C   C841      1.0  0.00411  0.54106  0.11550  1.0000
  H   H644      1.0  0.12855  0.50419  0.46080  1.0000
  H   H645      1.0  0.29282  0.50811  0.23860  1.0000
  C   C842      1.0  0.33135  0.67550  0.28573  1.0000
  C   C843      1.0  0.29856  0.50121  0.25290  1.0000
  C   C844      1.0  0.21654  0.64270  0.49272  1.0000
  C   C845      1.0  0.23282  0.65242  0.49273  1.0000
  C   C846      1.0  0.07847  0.50408  0.31822  1.0000
  P   P30       1.0  0.33000  0.50199  0.14537  1.0000
  C   C847      1.0  0.13959  0.62102  0.49824  1.0000
  H   H646      1.0  0.07581  0.50451  0.33564  1.0000
  H   H647      1.0  0.14831  0.50272  0.20347  1.0000
  H   H648      1.0  0.32498  0.66316  0.29225  1.0000
  C   C848      1.0  0.33043  0.68069  0.26354  1.0000
  C   C849      1.0  0.08433  0.50356  0.27307  1.0000
  H   H649      1.0  0.12617  0.50195  0.26910  1.0000
  H   H650      1.0  0.01030  0.55417  0.08429  1.0000
  H   H651      1.0  0.10435  0.74917  0.44853  1.0000
  H   H652      1.0  0.33277  0.58536  0.43860  1.0000
  C   C850      1.0  0.06414  0.74948  0.28768  1.0000
  H   H653      1.0  0.08792  0.74863  0.26565  1.0000
  C   C851      1.0  0.02006  0.55893  0.83262  1.0000
  Fe  Fe52      1.0  0.30732  0.56147  0.73753  1.0000
  S   S96       1.0  0.29992  0.59233  0.73952  1.0000
  S   S97       1.0  0.29687  0.54096  0.76395  1.0000
  C   C852      1.0  0.03127  0.55745  0.89961  1.0000
  S   S98       1.0  0.32142  0.59711  0.69260  1.0000
  C   C853      1.0  0.21896  0.60257  0.60443  1.0000
  H   H654      1.0  0.11242  0.74522  0.55878  1.0000
  Fe  Fe53      1.0  0.29222  0.59086  0.70424  1.0000
  S   S99       1.0  0.26873  0.60784  0.68670  1.0000
  C   C854      1.0  0.30921  0.57317  0.80148  1.0000
  S   S100      1.0  0.29778  0.55992  0.70309  1.0000
  Fe  Fe54      1.0  0.12559  0.64376  0.64291  1.0000
  S   S101      1.0  0.15184  0.63701  0.62319  1.0000
  S   S102      1.0  0.11226  0.67286  0.65021  1.0000
  Fe  Fe55      1.0  0.11475  0.60230  0.64658  1.0000
  S   S103      1.0  0.14040  0.59338  0.62640  1.0000
  S   S104      1.0  0.09199  0.58180  0.65888  1.0000
  Fe  Fe56      1.0  0.15617  0.61255  0.64685  1.0000
  S   S105      1.0  0.18259  0.60099  0.66430  1.0000
  Fe  Fe57      1.0  0.13458  0.61830  0.60361  1.0000
  S   S106      1.0  0.13991  0.62036  0.56561  1.0000
  S   S107      1.0  0.13071  0.62038  0.66776  1.0000
  S   S108      1.0  0.10813  0.62616  0.62249  1.0000
  C   C855      1.0  0.03253  0.55037  0.81761  1.0000
  S   S109      1.0  0.04811  0.53702  0.73737  1.0000
  H   H655      1.0  0.09268  0.73109  0.73883  1.0000
  C   C856      1.0  0.08023  0.56933  0.68110  1.0000
  C   C857      1.0  0.08383  0.57165  0.70316  1.0000
  C   C858      1.0  0.07391  0.56181  0.71992  1.0000
  C   C859      1.0  0.06026  0.54921  0.71520  1.0000
  C   C860      1.0  0.05674  0.54685  0.69316  1.0000
  C   C861      1.0  0.06652  0.55681  0.67641  1.0000
  H   H656      1.0  0.09423  0.58112  0.70732  1.0000
  H   H657      1.0  0.07693  0.56392  0.73674  1.0000
  H   H658      1.0  0.04638  0.53735  0.68896  1.0000
  H   H659      1.0  0.06344  0.55475  0.65958  1.0000
  C   C862      1.0  0.13284  0.61735  0.53793  1.0000
  C   C863      1.0  0.11587  0.61004  0.53299  1.0000
  H   H660      1.0  0.29093  0.52537  0.63149  1.0000
  H   H661      1.0  0.00182  0.52258  0.83117  1.0000
  H   H662      1.0  0.10711  0.53357  0.51663  1.0000
  C   C864      1.0  0.14459  0.62283  0.52023  1.0000
  H   H663      1.0  0.10652  0.60580  0.54614  1.0000
  H   H664      1.0  0.00430  0.59504  0.79994  1.0000
  C   C865      1.0  0.06128  0.57023  0.90392  1.0000
  H   H665      1.0  0.15769  0.62859  0.52360  1.0000
  C   C866      1.0  0.24479  0.60547  0.68065  1.0000
  C   C867      1.0  0.23422  0.59117  0.68968  1.0000
  C   C868      1.0  0.21538  0.59001  0.68437  1.0000
  C   C869      1.0  0.20665  0.60312  0.67005  1.0000
  C   C870      1.0  0.21726  0.61738  0.66097  1.0000
  C   C871      1.0  0.23613  0.61850  0.66620  1.0000
  H   H666      1.0  0.24050  0.58107  0.70090  1.0000
  H   H667      1.0  0.20743  0.57891  0.69158  1.0000
  H   H668      1.0  0.21092  0.62758  0.64991  1.0000
  H   H669      1.0  0.24407  0.62959  0.65897  1.0000
  C   C872      1.0  0.06457  0.56997  0.88139  1.0000
  P   P31       1.0  0.01701  0.54884  0.85980  1.0000
  C   C873      1.0  0.30653  0.51844  0.77093  1.0000
  C   C874      1.0  0.29749  0.50743  0.78698  1.0000
  C   C875      1.0  0.25354  0.66537  0.82005  1.0000
  C   C876      1.0  0.12665  0.72938  0.67824  1.0000
  C   C877      1.0  0.10853  0.72581  0.67274  1.0000
  C   C878      1.0  0.10451  0.70849  0.66426  1.0000
  C   C879      1.0  0.11840  0.69438  0.66119  1.0000
  C   C880      1.0  0.13654  0.69800  0.66648  1.0000
  C   C881      1.0  0.14060  0.71534  0.67490  1.0000
  H   H670      1.0  0.09759  0.73638  0.67502  1.0000
  H   H671      1.0  0.09047  0.70592  0.66016  1.0000
  H   H672      1.0  0.14745  0.68744  0.66399  1.0000
  H   H673      1.0  0.15470  0.71789  0.67889  1.0000
  H   H674      1.0  0.30826  0.62150  0.65585  1.0000
  H   H675      1.0  0.14832  0.70394  0.62051  1.0000
  H   H676      1.0  0.10275  0.64952  0.56254  1.0000
  H   H677      1.0  0.33005  0.51822  0.70255  1.0000
  H   H678      1.0  0.23459  0.64583  0.59446  1.0000
  H   H679      1.0  0.27651  0.60669  0.81428  1.0000
  C   C882      1.0  0.08931  0.66871  0.51382  1.0000
  C   C883      1.0  0.01017  0.57531  0.82620  1.0000
  C   C884      1.0  0.26248  0.57148  0.64049  1.0000
  H   H680      1.0  0.27166  0.52941  0.66534  1.0000
  H   H681      1.0  0.04063  0.74787  0.66795  1.0000
  Fe  Fe58      1.0  0.32719  0.56630  0.69361  1.0000
  C   C885      1.0  0.28101  0.57987  0.57478  1.0000
  S   S110      1.0  0.02529  0.51162  0.78697  1.0000
  C   C886      1.0  0.15204  0.64103  0.70927  1.0000
  C   C887      1.0  0.16258  0.65661  0.70554  1.0000
  C   C888      1.0  0.15460  0.67432  0.70903  1.0000
  C   C889      1.0  0.13600  0.67650  0.71592  1.0000
  C   C890      1.0  0.12523  0.66091  0.71953  1.0000
  C   C891      1.0  0.13348  0.64314  0.71632  1.0000
  P   P32       1.0  0.10136  0.66331  0.72940  1.0000
  C   C892      1.0  0.09147  0.68626  0.72276  1.0000
  C   C893      1.0  0.08838  0.64577  0.71713  1.0000
  C   C894      1.0  0.07570  0.63526  0.72957  1.0000
  C   C895      1.0  0.06633  0.62125  0.71993  1.0000
  C   C896      1.0  0.06945  0.61772  0.69787  1.0000
  C   C897      1.0  0.08191  0.62819  0.68540  1.0000
  C   C898      1.0  0.09132  0.64215  0.69497  1.0000
  C   C899      1.0  0.09655  0.70157  0.73444  1.0000
  H   H682      1.0  0.29587  0.51848  0.70695  1.0000
  P   P33       1.0  0.27461  0.58847  0.60145  1.0000
  C   C900      1.0  0.06986  0.70663  0.70269  1.0000
  C   C901      1.0  0.07812  0.68897  0.70673  1.0000
  C   C902      1.0  0.10034  0.65981  0.75865  1.0000
  C   C903      1.0  0.11364  0.64823  0.76919  1.0000
  C   C904      1.0  0.11242  0.64517  0.79177  1.0000
  C   C905      1.0  0.09790  0.65358  0.80399  1.0000
  C   C906      1.0  0.08453  0.66502  0.79362  1.0000
  C   C907      1.0  0.08568  0.66807  0.77103  1.0000
  H   H683      1.0  0.15818  0.62730  0.70622  1.0000
  H   H684      1.0  0.17685  0.65493  0.69967  1.0000
  H   H685      1.0  0.16269  0.68645  0.70586  1.0000
  H   H686      1.0  0.13010  0.69040  0.71787  1.0000
  H   H687      1.0  0.12552  0.63086  0.71895  1.0000
  H   H688      1.0  0.07315  0.63765  0.74669  1.0000
  H   H689      1.0  0.05682  0.61290  0.72957  1.0000
  H   H690      1.0  0.06245  0.60667  0.69043  1.0000
  H   H691      1.0  0.08451  0.62521  0.66836  1.0000
  H   H692      1.0  0.10109  0.64999  0.68515  1.0000
  H   H693      1.0  0.10681  0.69985  0.74687  1.0000
  C   C908      1.0  0.31904  0.64895  0.80199  1.0000
  H   H694      1.0  0.06888  0.73553  0.71095  1.0000
  H   H695      1.0  0.05962  0.70864  0.69029  1.0000
  H   H696      1.0  0.07407  0.67756  0.69723  1.0000
  H   H697      1.0  0.12490  0.64144  0.76004  1.0000
  H   H698      1.0  0.12271  0.63617  0.79977  1.0000
  H   H699      1.0  0.09694  0.65117  0.82148  1.0000
  H   H700      1.0  0.07320  0.67146  0.80305  1.0000
  H   H701      1.0  0.07503  0.67673  0.76322  1.0000
  C   C909      1.0  0.31840  0.62800  0.62323  1.0000
  C   C910      1.0  0.02453  0.57387  0.79004  1.0000
  C   C911      1.0  0.03470  0.55780  0.79641  1.0000
  C   C912      1.0  0.11100  0.72938  0.60136  1.0000
  C   C913      1.0  0.11090  0.60816  0.51101  1.0000
  C   C914      1.0  0.10329  0.71557  0.58933  1.0000
  H   H702      1.0  0.32133  0.64749  0.75597  1.0000
  C   C915      1.0  0.13596  0.70734  0.61142  1.0000
  H   H703      1.0  0.13354  0.73520  0.62226  1.0000
  H   H704      1.0  0.31125  0.67384  0.78319  1.0000
  C   C916      1.0  0.07507  0.72178  0.71430  1.0000
  C   C917      1.0  0.28282  0.53817  0.63389  1.0000
  P   P34       1.0  0.29910  0.63657  0.79484  1.0000
  C   C918      1.0  0.03438  0.55733  0.87693  1.0000
  H   H705      1.0  0.07464  0.65541  0.54077  1.0000
  H   H706      1.0  0.26713  0.66295  0.78865  1.0000
  C   C919      1.0  0.21848  0.62180  0.60089  1.0000
  C   C920      1.0  0.29273  0.58139  0.80992  1.0000
  H   H707      1.0  0.05405  0.56339  0.85053  1.0000
  H   H708      1.0  0.23597  0.57750  0.60696  1.0000
  H   H709      1.0  0.12590  0.56144  0.51796  1.0000
  C   C921      1.0  0.01073  0.51475  0.84231  1.0000
  C   C922      1.0  0.27200  0.54044  0.65296  1.0000
  C   C923      1.0  0.23499  0.63090  0.59705  1.0000
  C   C924      1.0  0.08849  0.71926  0.73008  1.0000
  H   H710      1.0  0.26294  0.57321  0.52517  1.0000
  C   C925      1.0  0.32322  0.50540  0.70656  1.0000
  C   C926      1.0  0.28349  0.55255  0.61807  1.0000
  H   H711      1.0  0.31462  0.64912  0.71705  1.0000
  H   H712      1.0  0.28540  0.60012  0.64438  1.0000
  H   H713      1.0  0.04042  0.53778  0.82212  1.0000
  C   C927      1.0  0.29944  0.57390  0.56993  1.0000
  H   H714      1.0  0.10547  0.68699  0.57991  1.0000
  C   C928      1.0  0.12744  0.72511  0.61240  1.0000
  C   C929      1.0  0.26182  0.55708  0.65623  1.0000
  C   C930      1.0  0.28964  0.60068  0.80839  1.0000
  C   C931      1.0  0.29401  0.60686  0.63207  1.0000
  H   H715      1.0  0.25363  0.55899  0.67113  1.0000
  H   H716      1.0  0.02594  0.57928  0.77342  1.0000
  H   H717      1.0  0.28489  0.51284  0.79491  1.0000
  H   H718      1.0  0.07164  0.57526  0.91433  1.0000
  H   H719      1.0  0.24297  0.67528  0.81421  1.0000
  C   C932      1.0  0.30309  0.61323  0.59439  1.0000
  Fe  Fe59      1.0  0.02705  0.51477  0.74995  1.0000
  C   C933      1.0  0.28084  0.64527  0.81297  1.0000
  C   C934      1.0  0.12236  0.67084  0.51785  1.0000
  C   C935      1.0  0.31637  0.62516  0.60107  1.0000
  C   C936      1.0  0.29211  0.60360  0.60990  1.0000
  C   C937      1.0  0.25200  0.62081  0.59699  1.0000
  H   H720      1.0  0.30986  0.57399  0.58216  1.0000
  C   C938      1.0  0.32295  0.51135  0.76107  1.0000
  C   C939      1.0  0.28111  0.64018  0.83521  1.0000
  C   C940      1.0  0.26749  0.64738  0.84968  1.0000
  C   C941      1.0  0.25366  0.65992  0.84209  1.0000
  H   H721      1.0  0.03884  0.52007  0.88491  1.0000
  C   C942      1.0  0.11177  0.69777  0.58858  1.0000
  C   C943      1.0  0.29371  0.63979  0.76649  1.0000
  C   C944      1.0  0.30747  0.64489  0.75106  1.0000
  C   C945      1.0  0.30374  0.64573  0.72887  1.0000
  C   C946      1.0  0.28633  0.64131  0.72189  1.0000
  C   C947      1.0  0.27267  0.63589  0.73710  1.0000
  C   C948      1.0  0.27637  0.63499  0.75932  1.0000
  H   H722      1.0  0.20613  0.59560  0.60781  1.0000
  C   C949      1.0  0.01237  0.58270  0.80497  1.0000
  H   H723      1.0  0.29218  0.55048  0.60365  1.0000
  C   C950      1.0  0.25261  0.60148  0.60077  1.0000
  H   H724      1.0  0.07841  0.72059  0.62293  1.0000
  H   H725      1.0  0.25355  0.58395  0.56175  1.0000
  C   C951      1.0  0.23592  0.59240  0.60414  1.0000
  C   C952      1.0  0.29152  0.56765  0.53301  1.0000
  C   C953      1.0  0.26785  0.57950  0.55851  1.0000
  H   H726      1.0  0.25477  0.58441  0.64359  1.0000
  H   H727      1.0  0.29194  0.63072  0.84137  1.0000
  H   H728      1.0  0.26775  0.64334  0.86681  1.0000
  H   H729      1.0  0.24313  0.66553  0.85332  1.0000
  H   H730      1.0  0.07750  0.57476  0.87433  1.0000
  C   C954      1.0  0.30465  0.56787  0.54915  1.0000
  H   H731      1.0  0.26463  0.62814  0.59424  1.0000
  C   C955      1.0  0.32252  0.58419  0.79128  1.0000
  H   H732      1.0  0.28359  0.64146  0.70465  1.0000
  H   H733      1.0  0.25946  0.63171  0.73147  1.0000
  H   H734      1.0  0.26592  0.62998  0.77080  1.0000
  H   H735      1.0  0.31137  0.55818  0.80217  1.0000
  H   H736      1.0  0.13426  0.67964  0.59982  1.0000
  H   H737      1.0  0.32509  0.63218  0.58906  1.0000
  H   H738      1.0  0.28216  0.57269  0.81706  1.0000
  H   H739      1.0  0.31897  0.56345  0.54558  1.0000
  C   C956      1.0  0.26717  0.65820  0.80554  1.0000
  H   H740      1.0  0.20530  0.62962  0.60139  1.0000
  C   C957      1.0  0.27328  0.56936  0.62122  1.0000
  C   C958      1.0  0.27312  0.57342  0.53770  1.0000
  H   H741      1.0  0.30153  0.61151  0.57714  1.0000
  Fe  Fe60      1.0  0.32958  0.59655  0.72790  1.0000
  C   C959      1.0  0.30706  0.61903  0.63868  1.0000
  H   H742      1.0  0.09040  0.71841  0.58109  1.0000
  H   H743      1.0  0.13309  0.65942  0.54804  1.0000
  C   C960      1.0  0.30323  0.61187  0.79873  1.0000
  H   H744      1.0  0.04397  0.55086  0.78468  1.0000
  C   C961      1.0  0.12806  0.69363  0.59970  1.0000
  C   C962      1.0  0.32114  0.66728  0.79420  1.0000
  C   C963      1.0  0.12083  0.66238  0.53859  1.0000
  C   C964      1.0  0.08789  0.66002  0.53447  1.0000
  C   C965      1.0  0.05119  0.56352  0.86791  1.0000
  C   C966      1.0  0.03154  0.51345  0.87245  1.0000
  H   H745      1.0  0.13595  0.67437  0.51169  1.0000
  C   C967      1.0  0.10366  0.65678  0.54681  1.0000
  C   C968      1.0  0.04465  0.56395  0.91302  1.0000
  C   C969      1.0  0.31946  0.60345  0.78975  1.0000
  H   H746      1.0  0.05329  0.71912  0.65063  1.0000
  C   C970      1.0  0.02002  0.52390  0.85818  1.0000
  C   C971      1.0  0.07291  0.73337  0.62980  1.0000
  H   H747      1.0  0.29564  0.56303  0.51688  1.0000
  H   H748      1.0  0.04210  0.56411  0.93049  1.0000
  H   H749      1.0  0.01850  0.55250  0.90695  1.0000
  H   H750      1.0  0.32945  0.61180  0.78099  1.0000
  H   H751      1.0  0.32995  0.57952  0.64107  1.0000
  C   C972      1.0  0.05864  0.73244  0.64569  1.0000
  H   H752      1.0  0.07696  0.67090  0.50438  1.0000
  H   H753      1.0  0.00773  0.73818  0.81915  1.0000
  H   H754      1.0  0.03921  0.74301  0.83234  1.0000
  C   C973      1.0  0.05151  0.74860  0.65541  1.0000
  H   H755      1.0  0.33029  0.62703  0.82341  1.0000
  H   H756      1.0  0.09879  0.50405  0.78029  1.0000
  C   C974      1.0  0.30394  0.50555  0.70894  1.0000
  H   H757      1.0  0.09779  0.60235  0.50769  1.0000
  H   H758      1.0  0.20807  0.64132  0.50753  1.0000
  H   H759      1.0  0.13318  0.50345  0.77816  1.0000
  C   C975      1.0  0.10660  0.67408  0.50524  1.0000
  C   C976      1.0  0.08014  0.75054  0.62343  1.0000
  H   H760      1.0  0.32866  0.63725  0.62844  1.0000
  H   H761      1.0  0.00035  0.58218  0.83723  1.0000
  H   H762      1.0  0.33021  0.51973  0.74897  1.0000
  H   H763      1.0  0.23697  0.65860  0.50753  1.0000
  H   H764      1.0  0.07132  0.73850  0.50663  1.0000
  H   H765      1.0  0.08289  0.70590  0.50755  1.0000
  C   C977      1.0  0.33173  0.64100  0.81681  1.0000
  H   H766      1.0  0.00145  0.58354  0.87761  1.0000
  C   C978      1.0  0.12275  0.55582  0.50241  1.0000
  C   C979      1.0  0.32375  0.86146  0.07097  1.0000
  S   S111      1.0  0.04415  0.86507  0.45216  1.0000
  Fe  Fe61      1.0  0.20293  0.94208  0.23264  1.0000
  S   S112      1.0  0.21301  0.91228  0.23860  1.0000
  S   S113      1.0  0.19616  0.96312  0.25943  1.0000
  Fe  Fe62      1.0  0.19504  0.93487  0.18467  1.0000
  S   S114      1.0  0.20498  0.90479  0.18750  1.0000
  S   S115      1.0  0.18093  0.95154  0.15691  1.0000
  Fe  Fe63      1.0  0.18868  0.90390  0.21979  1.0000
  S   S116      1.0  0.16797  0.88055  0.22620  1.0000
  Fe  Fe64      1.0  0.22878  0.91533  0.20609  1.0000
  S   S117      1.0  0.25971  0.90483  0.20587  1.0000
  S   S118      1.0  0.17774  0.93342  0.21565  1.0000
  S   S119      1.0  0.21968  0.94562  0.20136  1.0000
  Fe  Fe65      1.0  0.06896  0.79968  0.30577  1.0000
  S   S120      1.0  0.09804  0.79236  0.29315  1.0000
  S   S121      1.0  0.04567  0.80758  0.28213  1.0000
  Fe  Fe66      1.0  0.08161  0.80122  0.35316  1.0000
  S   S122      1.0  0.11137  0.79441  0.34320  1.0000
  S   S123      1.0  0.07480  0.80059  0.38987  1.0000
  Fe  Fe67      1.0  0.10726  0.81477  0.31463  1.0000
  S   S124      1.0  0.12800  0.83820  0.30803  1.0000
  Fe  Fe68      1.0  0.09989  0.77265  0.32277  1.0000
  S   S125      1.0  0.07807  0.82285  0.32619  1.0000
  S   S126      1.0  0.07025  0.77867  0.33363  1.0000
  Fe  Fe69      1.0  0.14185  0.93882  0.03817  1.0000
  S   S127      1.0  0.14788  0.96681  0.02304  1.0000
  S   S128      1.0  0.15985  0.92360  0.06362  1.0000
  C   C980      1.0  0.01475  0.80789  0.25710  1.0000
  H   H767      1.0  0.24072  0.87473  0.22712  1.0000
  C   C981      1.0  0.12881  0.85848  0.36471  1.0000
  C   C982      1.0  0.05204  0.96324  0.03505  1.0000
  C   C983      1.0  0.30905  0.86877  0.25272  1.0000
  H   H768      1.0  0.21174  0.99137  0.21507  1.0000
  S   S129      1.0  0.11109  0.94485  0.04173  1.0000
  H   H769      1.0  0.15580  0.99609  0.08145  1.0000
  C   C984      1.0  0.25884  0.83733  0.29745  1.0000
  H   H770      1.0  0.13749  0.81244  0.16066  1.0000
  H   H771      1.0  0.06727  0.92604  0.42630  1.0000
  C   C985      1.0  0.03100  0.90080  0.02686  1.0000
  C   C986      1.0  0.04387  0.90995  0.03887  1.0000
  C   C987      1.0  0.06090  0.91519  0.02921  1.0000
  H   H772      1.0  0.04074  0.91280  0.05578  1.0000
  H   H773      1.0  0.07078  0.92200  0.03867  1.0000
  C   C988      1.0  0.02482  0.79817  0.27341  1.0000
  C   C989      1.0  0.02437  0.96510  0.01352  1.0000
  H   H774      1.0  0.29442  0.84336  0.21153  1.0000
  C   C990      1.0  0.01777  0.78179  0.28251  1.0000
  H   H775      1.0  0.23422  0.94591  0.28073  1.0000
  H   H776      1.0  0.06331  0.90211  0.38841  1.0000
  H   H777      1.0  0.02515  0.77426  0.29525  1.0000
  C   C991      1.0  0.20685  0.98299  0.26896  1.0000
  C   C992      1.0  0.19698  0.99425  0.28405  1.0000
  C   C993      1.0  0.24884  0.89358  0.27522  1.0000
  C   C994      1.0  0.22484  0.98762  0.26245  1.0000
  H   H778      1.0  0.18321  0.99063  0.28946  1.0000
  H   H779      1.0  0.23268  0.97907  0.25096  1.0000
  C   C995      1.0  0.28083  0.90197  0.18969  1.0000
  C   C996      1.0  0.28174  0.90494  0.16702  1.0000
  C   C997      1.0  0.29876  0.90202  0.15516  1.0000
  H   H780      1.0  0.15152  0.83958  0.35573  1.0000
  C   C998      1.0  0.31427  0.89323  0.18832  1.0000
  C   C999      1.0  0.29729  0.89623  0.20016  1.0000
  H   H781      1.0  0.26933  0.90940  0.15861  1.0000
  H   H782      1.0  0.29916  0.90435  0.13768  1.0000
  H   H783      1.0  0.02010  0.82045  0.24982  1.0000
  H   H784      1.0  0.29687  0.89414  0.21764  1.0000
  C   C1000     1.0  0.17467  0.94307  0.13142  1.0000
  C   C1001     1.0  0.16298  0.95426  0.11804  1.0000
  C   C1002     1.0  0.15815  0.94848  0.09737  1.0000
  C   C1003     1.0  0.16504  0.93137  0.08979  1.0000
  C   C1004     1.0  0.17643  0.91998  0.10333  1.0000
  C   C1005     1.0  0.18121  0.92576  0.12405  1.0000
  H   H785      1.0  0.15744  0.96738  0.12379  1.0000
  H   H786      1.0  0.14916  0.95727  0.08728  1.0000
  H   H787      1.0  0.18171  0.90665  0.09769  1.0000
  H   H788      1.0  0.19015  0.91698  0.13417  1.0000
  C   C1006     1.0  0.15702  0.86910  0.24933  1.0000
  C   C1007     1.0  0.14481  0.85487  0.24581  1.0000
  C   C1008     1.0  0.13584  0.84530  0.26340  1.0000
  C   C1009     1.0  0.13892  0.84977  0.28495  1.0000
  C   C1010     1.0  0.15114  0.86401  0.28848  1.0000
  C   C1011     1.0  0.16013  0.87357  0.27089  1.0000
  H   H789      1.0  0.14225  0.85118  0.22930  1.0000
  H   H790      1.0  0.12656  0.83443  0.26027  1.0000
  H   H791      1.0  0.15370  0.86768  0.30500  1.0000
  H   H792      1.0  0.16948  0.88439  0.27402  1.0000
  C   C1012     1.0  0.06307  0.96174  0.01607  1.0000
  C   C1013     1.0  0.05339  0.84717  0.43521  1.0000
  C   C1014     1.0  0.06464  0.83230  0.44311  1.0000
  C   C1015     1.0  0.07116  0.81819  0.42902  1.0000
  C   C1016     1.0  0.06686  0.81899  0.40682  1.0000
  C   C1017     1.0  0.05582  0.83396  0.39892  1.0000
  C   C1018     1.0  0.04903  0.84787  0.41305  1.0000
  H   H793      1.0  0.06807  0.83154  0.46012  1.0000
  H   H794      1.0  0.07961  0.80661  0.43535  1.0000
  H   H795      1.0  0.05220  0.83453  0.38203  1.0000
  H   H796      1.0  0.04020  0.85920  0.40685  1.0000
  Fe  Fe70      1.0  0.04931  0.87062  0.48791  1.0000
  C   C1019     1.0  0.18255  0.86016  0.09949  1.0000
  C   C1020     1.0  0.19737  0.86514  0.11177  1.0000
  C   C1021     1.0  0.19397  0.87403  0.13145  1.0000
  C   C1022     1.0  0.17576  0.87811  0.13877  1.0000
  C   C1023     1.0  0.16078  0.87351  0.12631  1.0000
  C   C1024     1.0  0.16432  0.86418  0.10680  1.0000
  P   P35       1.0  0.13720  0.87849  0.13586  1.0000
  C   C1025     1.0  0.13695  0.89880  0.15233  1.0000
  C   C1026     1.0  0.12250  0.88309  0.11282  1.0000
  C   C1027     1.0  0.12924  0.89296  0.09438  1.0000
  C   C1028     1.0  0.11809  0.89653  0.07642  1.0000
  C   C1029     1.0  0.10008  0.89030  0.07670  1.0000
  C   C1030     1.0  0.09321  0.88049  0.09500  1.0000
  C   C1031     1.0  0.10435  0.87689  0.11302  1.0000
  C   C1032     1.0  0.14087  0.89692  0.17457  1.0000
  C   C1033     1.0  0.14138  0.91258  0.18724  1.0000
  C   C1034     1.0  0.13821  0.93027  0.17783  1.0000
  C   C1035     1.0  0.13427  0.93229  0.15575  1.0000
  C   C1036     1.0  0.13375  0.91665  0.14298  1.0000
  C   C1037     1.0  0.12911  0.85902  0.15220  1.0000
  C   C1038     1.0  0.11464  0.86167  0.16777  1.0000
  C   C1039     1.0  0.10864  0.84674  0.18083  1.0000
  C   C1040     1.0  0.11689  0.82901  0.17828  1.0000
  H   H797      1.0  0.29967  0.92144  0.05794  1.0000
  C   C1041     1.0  0.13722  0.84112  0.14959  1.0000
  H   H798      1.0  0.18517  0.85329  0.08421  1.0000
  H   H799      1.0  0.21149  0.86214  0.10602  1.0000
  H   H800      1.0  0.20542  0.87793  0.14101  1.0000
  H   H801      1.0  0.17351  0.88507  0.15403  1.0000
  H   H802      1.0  0.15302  0.86013  0.09712  1.0000
  H   H803      1.0  0.14315  0.89792  0.09387  1.0000
  H   H804      1.0  0.12350  0.90412  0.06224  1.0000
  C   C1042     1.0  0.02344  0.81161  0.36618  1.0000
  Fe  Fe71      1.0  0.11690  0.97211  0.02432  1.0000
  H   H805      1.0  0.09874  0.86925  0.12697  1.0000
  H   H806      1.0  0.14403  0.88339  0.18213  1.0000
  H   H807      1.0  0.14472  0.91095  0.20429  1.0000
  H   H808      1.0  0.13932  0.94242  0.18750  1.0000
  H   H809      1.0  0.13236  0.94603  0.14832  1.0000
  H   H810      1.0  0.13138  0.91866  0.12577  1.0000
  H   H811      1.0  0.10810  0.87533  0.16997  1.0000
  H   H812      1.0  0.09767  0.84891  0.19306  1.0000
  H   H813      1.0  0.18892  0.97529  0.19418  1.0000
  C   C1043     1.0  0.08855  0.88651  0.41913  1.0000
  H   H814      1.0  0.14830  0.83864  0.13765  1.0000
  H   H815      1.0  0.09148  0.89305  0.06269  1.0000
  H   H816      1.0  0.10694  0.98079  0.15050  1.0000
  C   C1044     1.0  0.27676  0.85462  0.23728  1.0000
  C   C1045     1.0  0.28714  0.88363  0.08879  1.0000
  C   C1046     1.0  0.31702  0.82879  0.07018  1.0000
  H   H817      1.0  0.03401  0.79644  0.33850  1.0000
  C   C1047     1.0  0.27565  0.92052  0.07945  1.0000
  H   H818      1.0  0.01908  0.96251  0.43482  1.0000
  H   H819      1.0  0.26536  0.86371  0.35042  1.0000
  C   C1048     1.0  0.23119  0.86604  0.23623  1.0000
  H   H820      1.0  0.19487  0.83748  0.26892  1.0000
  C   C1049     1.0  0.05076  0.94730  0.47204  1.0000
  C   C1050     1.0  0.21557  0.86017  0.22604  1.0000
  H   H821      1.0  0.09180  0.84696  0.39729  1.0000
  H   H822      1.0  0.11229  0.81747  0.18851  1.0000
  C   C1051     1.0  0.10079  0.89151  0.40188  1.0000
  C   C1052     1.0  0.11599  0.90209  0.40618  1.0000
  C   C1053     1.0  0.11834  0.90840  0.42715  1.0000
  C   C1054     1.0  0.10581  0.90379  0.44406  1.0000
  C   C1055     1.0  0.23858  0.93137  0.27958  1.0000
  H   H823      1.0  0.10312  0.92275  0.37031  1.0000
  C   C1056     1.0  0.22096  0.85080  0.26994  1.0000
  C   C1057     1.0  0.25853  0.90725  0.26341  1.0000
  C   C1058     1.0  0.05139  0.86240  0.35101  1.0000
  C   C1059     1.0  0.03726  0.87399  0.35987  1.0000
  C   C1060     1.0  0.04165  0.88830  0.37333  1.0000
  C   C1061     1.0  0.06014  0.89089  0.37810  1.0000
  C   C1062     1.0  0.29730  0.89422  0.07339  1.0000
  C   C1063     1.0  0.13111  0.82620  0.16261  1.0000
  H   H824      1.0  0.12622  0.90519  0.39346  1.0000
  H   H825      1.0  0.13004  0.91663  0.43043  1.0000
  H   H826      1.0  0.10778  0.90848  0.46035  1.0000
  C   C1064     1.0  0.13863  0.84132  0.36511  1.0000
  H   H827      1.0  0.21694  0.92199  0.30154  1.0000
  H   H828      1.0  0.13906  0.81291  0.37710  1.0000
  C   C1065     1.0  0.10695  0.91642  0.35500  1.0000
  H   H829      1.0  0.02294  0.87175  0.35648  1.0000
  H   H830      1.0  0.03071  0.89720  0.38036  1.0000
  P   P36       1.0  0.01952  0.97089  0.48072  1.0000
  C   C1066     1.0  0.02425  0.80714  0.34425  1.0000
  H   H831      1.0  0.11920  0.89479  0.29900  1.0000
  C   C1067     1.0  0.11746  0.91990  0.31725  1.0000
  H   H832      1.0  0.07728  0.87750  0.41661  1.0000
  C   C1068     1.0  0.11577  0.90090  0.31461  1.0000
  C   C1069     1.0  0.11143  0.86049  0.37557  1.0000
  C   C1070     1.0  0.10962  0.98606  0.13405  1.0000
  H   H833      1.0  0.27134  0.93489  0.07611  1.0000
  H   H834      1.0  0.15683  0.98821  0.19165  1.0000
  C   C1071     1.0  0.26030  0.86629  0.31607  1.0000
  C   C1072     1.0  0.01978  0.85272  0.29638  1.0000
  H   H835      1.0  0.26011  0.88130  0.31596  1.0000
  H   H836      1.0  0.12224  0.92857  0.30365  1.0000
  H   H837      1.0  0.08069  0.85580  0.34905  1.0000
  H   H838      1.0  0.02450  0.96555  0.04879  1.0000
  H   H839      1.0  0.04390  0.99127  0.44931  1.0000
  C   C1073     1.0  0.18494  0.98827  0.20182  1.0000
  H   H840      1.0  0.08191  0.76027  0.47714  1.0000
  H   H841      1.0  0.26277  0.81239  0.31735  1.0000
  H   H842      1.0  0.10941  0.81682  0.39822  1.0000
  H   H843      1.0  0.29165  0.86955  0.09327  1.0000
  H   H844      1.0  0.07427  0.92877  0.46521  1.0000
  H   H845      1.0  0.07796  0.96003  0.01710  1.0000
  C   C1074     1.0  0.10571  0.98416  0.09526  1.0000
  H   H846      1.0  0.02579  0.85077  0.31220  1.0000
  H   H847      1.0  0.25335  0.91589  0.10289  1.0000
  H   H848      1.0  0.99957  0.85871  0.23878  1.0000
  C   C1075     1.0  0.27572  0.86540  0.25594  1.0000
  H   H849      1.0  0.08146  0.88883  0.45330  1.0000
  H   H850      1.0  0.13477  0.86994  0.35564  1.0000
  H   H851      1.0  0.00557  0.93372  0.48061  1.0000
  C   C1076     1.0  0.02402  0.85956  0.25776  1.0000
  C   C1077     1.0  0.11481  0.82845  0.38882  1.0000
  H   H852      1.0  0.32665  0.88871  0.19678  1.0000
  C   C1078     1.0  0.06985  0.86487  0.35593  1.0000
  C   C1079     1.0  0.11289  0.92769  0.33738  1.0000
  C   C1080     1.0  0.05838  0.93479  0.43659  1.0000
  H   H853      1.0  0.22234  0.84760  0.28713  1.0000
  H   H854      1.0  0.05853  0.96277  0.05071  1.0000
  H   H855      1.0  0.30263  0.85036  0.05164  1.0000
  C   C1081     1.0  0.07433  0.87890  0.36978  1.0000
  S   S130      1.0  0.01017  0.89369  0.03997  1.0000
  H   H856      1.0  0.11646  0.94747  0.48900  1.0000
  C   C1082     1.0  0.30415  0.89267  0.02011  1.0000
  H   H857      1.0  0.19040  0.84539  0.22995  1.0000
  C   C1083     1.0  0.20274  0.84953  0.23773  1.0000
  C   C1084     1.0  0.23427  0.86100  0.25811  1.0000
  H   H858      1.0  0.07924  0.87563  0.09514  1.0000
  H   H859      1.0  0.21311  0.86432  0.20925  1.0000
  C   C1085     1.0  0.06235  0.93635  0.45851  1.0000
  H   H860      1.0  0.10836  0.87496  0.32964  1.0000
  C   C1086     1.0  0.10477  0.84548  0.38809  1.0000
  S   S131      1.0  0.04560  0.90104  0.49500  1.0000
  C   C1087     1.0  0.31519  0.89607  0.16566  1.0000
  C   C1088     1.0  0.03132  0.85724  0.27848  1.0000
  C   C1089     1.0  0.09099  0.89276  0.44008  1.0000
  H   H861      1.0  0.04806  0.85115  0.34079  1.0000
  C   C1090     1.0  0.20531  0.84504  0.25972  1.0000
  C   C1091     1.0  0.26552  0.90983  0.09456  1.0000
  H   H862      1.0  0.11396  0.94246  0.33931  1.0000
  C   C1092     1.0  0.10975  0.88965  0.33214  1.0000
  H   H863      1.0  0.25734  0.82980  0.28268  1.0000
  C   C1093     1.0  0.22882  0.91785  0.29132  1.0000
  P   P37       1.0  0.09828  0.88239  0.37518  1.0000
  C   C1094     1.0  0.02154  0.99528  0.47342  1.0000
  C   C1095     1.0  0.03511  0.95697  0.46362  1.0000
  C   C1096     1.0  0.10590  0.89721  0.35269  1.0000
  H   H864      1.0  0.23766  0.93309  0.00879  1.0000
  H   H865      1.0  0.32301  0.85590  0.22518  1.0000
  C   C1097     1.0  0.25342  0.92606  0.26563  1.0000
  H   H866      1.0  0.26458  0.84868  0.23118  1.0000
  H   H867      1.0  0.01385  0.81332  0.31250  1.0000
  C   C1098     1.0  0.13160  0.82628  0.37709  1.0000
  C   C1099     1.0  0.03121  0.95534  0.44154  1.0000
  P   P38       1.0  0.31892  0.88510  0.06153  1.0000
  C   C1100     1.0  0.00516  0.85736  0.25493  1.0000
  C   C1101     1.0  0.29205  0.87226  0.26371  1.0000
  S   S132      1.0  0.09859  0.99585  0.03754  1.0000
  H   H868      1.0  0.26664  0.82926  0.35132  1.0000
  C   C1102     1.0  0.16680  0.99559  0.20044  1.0000
  C   C1103     1.0  0.23383  0.89902  0.28905  1.0000
  C   C1104     1.0  0.25758  0.85682  0.29692  1.0000
  C   C1105     1.0  0.26199  0.82744  0.31703  1.0000
  C   C1106     1.0  0.04282  0.94430  0.42809  1.0000
  H   H869      1.0  0.03964  0.94296  0.41114  1.0000
  H   H870      1.0  0.05399  0.94779  0.48907  1.0000
  H   H871      1.0  0.22570  0.88868  0.29763  1.0000
  C   C1107     1.0  0.26344  0.85635  0.33564  1.0000
  H   H872      1.0  0.03271  0.80439  0.37752  1.0000
  P   P39       1.0  0.25418  0.86919  0.27127  1.0000
  H   H873      1.0  0.20332  0.93247  0.00928  1.0000
  H   H874      1.0  0.03309  0.86258  0.24383  1.0000
  H   H875      1.0  0.26373  0.88333  0.11146  1.0000
  C   C1108     1.0  0.01266  0.81665  0.32952  1.0000
  H   H876      1.0  0.04606  0.85833  0.28058  1.0000
  H   H877      1.0  0.10002  0.97749  0.08156  1.0000
  C   C1109     1.0  0.06518  0.91133  0.00742  1.0000
  H   H878      1.0  0.18419  0.99798  0.15353  1.0000
  H   H879      1.0  0.26055  0.93647  0.25590  1.0000
  H   H880      1.0  0.06675  0.99947  0.01087  1.0000
  C   C1110     1.0  0.26421  0.83694  0.33614  1.0000
  H   H881      1.0  0.09429  0.96511  0.11922  1.0000
  C   C1111     1.0  0.03275  0.96486  0.03383  1.0000
  H   H882      1.0  0.26954  0.90349  0.25181  1.0000
  H   H883      1.0  0.15962  0.99815  0.12686  1.0000
  C   C1112     1.0  0.30990  0.85833  0.23394  1.0000
  H   H884      1.0  0.29159  0.88036  0.27826  1.0000
  C   C1113     1.0  0.01090  0.82557  0.37342  1.0000
  H   H885      1.0  0.32156  0.87431  0.25862  1.0000
  H   H886      1.0  0.32548  0.90077  0.10347  1.0000
  H   H887      1.0  0.14636  0.99883  0.29518  1.0000
  C   C1114     1.0  0.10245  0.97724  0.11647  1.0000
  C   C1115     1.0  0.29377  0.85129  0.22622  1.0000
  H   H888      1.0  0.29227  0.89941  0.02814  1.0000
  C   C1116     1.0  0.29159  0.91281  0.06906  1.0000
  C   C1117     1.0  0.27131  0.89143  0.09928  1.0000
  C   C1118     1.0  0.31879  0.88453  0.03213  1.0000
  C   C1119     1.0  0.31345  0.84721  0.06315  1.0000
  H   H889      1.0  0.07200  0.75426  0.38270  1.0000
  C   C1120     1.0  0.00108  0.77514  0.27504  1.0000
  H   H890      1.0  0.23728  0.00055  0.40568  1.0000
  C   C1121     1.0  0.03516  0.89723  0.00498  1.0000
  Fe  Fe72      1.0  0.10913  0.93392  0.00817  1.0000
  H   H891      1.0  0.30900  0.81785  0.06414  1.0000
  H   H892      1.0  0.17178  0.99314  0.04565  1.0000
  H   H893      1.0  0.05961  0.76346  0.28256  1.0000
  S   S133      1.0  0.13951  0.92522  0.00579  1.0000
  H   H894      1.0  0.01048  0.82915  0.39044  1.0000
  C   C1122     1.0  0.00086  0.85015  0.29366  1.0000
  C   C1123     1.0  0.19783  0.99744  0.21343  1.0000
  H   H895      1.0  0.00230  0.88715  0.12308  1.0000
  C   C1124     1.0  0.33093  0.82448  0.08503  1.0000
  C   C1125     1.0  0.99996  0.83065  0.33655  1.0000
  C   C1126     1.0  0.11634  0.99971  0.09157  1.0000
  Fe  Fe73      1.0  0.03167  0.89218  0.52652  1.0000
  H   H896      1.0  0.06394  0.98995  0.89887  1.0000
  Fe  Fe74      1.0  0.06078  0.86098  0.53512  1.0000
  H   H897      1.0  0.01633  0.83288  0.76443  1.0000
  S   S134      1.0  0.07062  0.83620  0.55690  1.0000
  C   C1127     1.0  0.21138  0.92925  0.99456  1.0000
  H   H898      1.0  0.20385  0.81552  0.87893  1.0000
  S   S135      1.0  0.08673  0.91677  0.99468  1.0000
  S   S136      1.0  0.05826  0.89076  0.54500  1.0000
  C   C1128     1.0  0.21996  0.76964  0.86085  1.0000
  H   H899      1.0  0.27145  0.94295  0.94197  1.0000
  S   S137      1.0  0.16288  0.95957  0.96126  1.0000
  Fe  Fe75      1.0  0.20401  0.89424  0.80647  1.0000
  S   S138      1.0  0.18255  0.91406  0.82072  1.0000
  S   S139      1.0  0.19805  0.87285  0.78079  1.0000
  Fe  Fe76      1.0  0.23589  0.91245  0.83015  1.0000
  S   S140      1.0  0.21601  0.93392  0.84523  1.0000
  S   S141      1.0  0.26758  0.91391  0.83334  1.0000
  Fe  Fe77      1.0  0.19753  0.91015  0.85213  1.0000
  S   S142      1.0  0.18137  0.90400  0.88382  1.0000
  Fe  Fe78      1.0  0.20264  0.93641  0.81256  1.0000
  S   S143      1.0  0.18921  0.96328  0.79838  1.0000
  S   S144      1.0  0.21792  0.88841  0.83858  1.0000
  S   S145      1.0  0.22365  0.91683  0.79675  1.0000
  Fe  Fe79      1.0  0.07925  0.79239  0.71954  1.0000
  S   S146      1.0  0.10668  0.78265  0.73319  1.0000
  S   S147      1.0  0.05339  0.77952  0.73488  1.0000
  Fe  Fe80      1.0  0.09802  0.81515  0.68250  1.0000
  S   S148      1.0  0.12670  0.80670  0.69385  1.0000
  S   S149      1.0  0.09345  0.83841  0.65655  1.0000
  Fe  Fe81      1.0  0.11559  0.77768  0.69823  1.0000
  Fe  Fe82      1.0  0.11547  0.81222  0.72784  1.0000
  S   S150      1.0  0.12626  0.82963  0.75543  1.0000
  S   S151      1.0  0.08777  0.78606  0.68474  1.0000
  S   S152      1.0  0.08724  0.82207  0.71633  1.0000
  C   C1129     1.0  0.03426  0.79062  0.74893  1.0000
  C   C1130     1.0  0.02008  0.77971  0.75790  1.0000
  C   C1131     1.0  0.27987  0.89735  0.93063  1.0000
  C   C1132     1.0  0.03279  0.80985  0.75135  1.0000
  C   C1133     1.0  0.17308  0.81027  0.79113  1.0000
  H   H900      1.0  0.04021  0.96063  0.56909  1.0000
  H   H901      1.0  0.04354  0.81843  0.74451  1.0000
  C   C1134     1.0  0.20031  0.97933  0.78040  1.0000
  C   C1135     1.0  0.21835  0.97586  0.77218  1.0000
  H   H902      1.0  0.16722  0.92536  0.65750  1.0000
  H   H903      1.0  0.11826  0.95044  0.75486  1.0000
  H   H904      1.0  0.22581  0.96303  0.77664  1.0000
  C   C1136     1.0  0.11465  0.96770  0.70299  1.0000
  C   C1137     1.0  0.28550  0.90363  0.85003  1.0000
  C   C1138     1.0  0.28203  0.89065  0.86699  1.0000
  C   C1139     1.0  0.29683  0.88264  0.87921  1.0000
  C   C1140     1.0  0.31528  0.88773  0.87512  1.0000
  C   C1141     1.0  0.31865  0.90091  0.85843  1.0000
  C   C1142     1.0  0.30393  0.90871  0.84597  1.0000
  H   H905      1.0  0.26798  0.88673  0.87064  1.0000
  H   H906      1.0  0.14808  0.93345  0.69635  1.0000
  C   C1143     1.0  0.16352  0.98910  0.69441  1.0000
  H   H907      1.0  0.30687  0.91879  0.83304  1.0000
  C   C1144     1.0  0.17764  0.86158  0.77365  1.0000
  C   C1145     1.0  0.16102  0.86301  0.78597  1.0000
  C   C1146     1.0  0.14545  0.85338  0.77993  1.0000
  C   C1147     1.0  0.14614  0.84229  0.76141  1.0000
  C   C1148     1.0  0.16270  0.84105  0.74896  1.0000
  C   C1149     1.0  0.17831  0.85056  0.75510  1.0000
  H   H908      1.0  0.16023  0.87133  0.80031  1.0000
  H   H909      1.0  0.13280  0.85441  0.78980  1.0000
  H   H910      1.0  0.16360  0.83245  0.73485  1.0000
  H   H911      1.0  0.19109  0.84918  0.74552  1.0000
  C   C1150     1.0  0.16745  0.94408  0.93962  1.0000
  C   C1151     1.0  0.16063  0.92624  0.94014  1.0000
  C   C1152     1.0  0.16503  0.91418  0.92294  1.0000
  C   C1153     1.0  0.17610  0.91986  0.90490  1.0000
  C   C1154     1.0  0.18282  0.93775  0.90427  1.0000
  C   C1155     1.0  0.17862  0.94971  0.92163  1.0000
  H   H912      1.0  0.15204  0.92168  0.95387  1.0000
  H   H913      1.0  0.15976  0.90038  0.92362  1.0000
  H   H914      1.0  0.19134  0.94230  0.89049  1.0000
  H   H915      1.0  0.18414  0.96337  0.92123  1.0000
  C   C1156     1.0  0.12269  0.93516  0.59270  1.0000
  C   C1157     1.0  0.20486  0.95860  0.67357  1.0000
  C   C1158     1.0  0.07636  0.83699  0.58482  1.0000
  C   C1159     1.0  0.08349  0.82076  0.59554  1.0000
  C   C1160     1.0  0.08840  0.82083  0.61758  1.0000
  C   C1161     1.0  0.08634  0.83718  0.62918  1.0000
  C   C1162     1.0  0.07932  0.85342  0.61844  1.0000
  C   C1163     1.0  0.07430  0.85333  0.59645  1.0000
  H   H916      1.0  0.08540  0.80813  0.58664  1.0000
  H   H917      1.0  0.09413  0.80837  0.62551  1.0000
  H   H918      1.0  0.07765  0.86615  0.62722  1.0000
  H   H919      1.0  0.06884  0.86589  0.58846  1.0000
  H   H920      1.0  0.03068  0.81637  0.93420  1.0000
  C   C1164     1.0  0.09119  0.94217  0.53623  1.0000
  C   C1165     1.0  0.09555  0.95871  0.54605  1.0000
  C   C1166     1.0  0.10728  0.97130  0.53526  1.0000
  H   H921      1.0  0.13554  0.78221  0.65745  1.0000
  H   H922      1.0  0.18326  0.83372  0.90385  1.0000
  C   C1167     1.0  0.13129  0.78260  0.64071  1.0000
  S   S153      1.0  0.00747  0.90966  0.54099  1.0000
  C   C1168     1.0  0.25761  0.85600  0.83492  1.0000
  C   C1169     1.0  0.24443  0.84287  0.84024  1.0000
  C   C1170     1.0  0.23224  0.83750  0.82451  1.0000
  P   P40       1.0  0.21448  0.82152  0.83219  1.0000
  C   C1171     1.0  0.19909  0.83398  0.85088  1.0000
  C   C1172     1.0  0.20199  0.81468  0.80900  1.0000
  C   C1173     1.0  0.21174  0.80639  0.79144  1.0000
  C   C1174     1.0  0.20221  0.80039  0.77371  1.0000
  C   C1175     1.0  0.09480  0.76200  0.53788  1.0000
  H   H923      1.0  0.99984  0.99295  0.58433  1.0000
  C   C1176     1.0  0.18512  0.83831  0.88699  1.0000
  C   C1177     1.0  0.22685  0.98912  0.75831  1.0000
  H   H924      1.0  0.03269  0.78231  0.87831  1.0000
  C   C1178     1.0  0.23305  0.84595  0.80363  1.0000
  C   C1179     1.0  0.09035  0.75948  0.57727  1.0000
  C   C1180     1.0  0.11434  0.76923  0.61206  1.0000
  C   C1181     1.0  0.01498  0.99722  0.63543  1.0000
  H   H925      1.0  0.11337  0.90344  0.74200  1.0000
  H   H926      1.0  0.26708  0.86000  0.84702  1.0000
  H   H927      1.0  0.24364  0.83701  0.85668  1.0000
  H   H928      1.0  0.22670  0.80465  0.79145  1.0000
  H   H929      1.0  0.20979  0.79423  0.76005  1.0000
  H   H930      1.0  0.00196  0.95180  0.51918  1.0000
  H   H931      1.0  0.17546  0.79791  0.75974  1.0000
  H   H932      1.0  0.17205  0.87399  0.85246  1.0000
  H   H933      1.0  0.24607  0.86629  0.78257  1.0000
  H   H934      1.0  0.02757  0.84204  0.87047  1.0000
  C   C1182     1.0  0.24596  0.85940  0.79851  1.0000
  C   C1183     1.0  0.29919  0.89663  0.93161  1.0000
  H   H935      1.0  0.15922  0.97381  0.84251  1.0000
  H   H936      1.0  0.20099  0.96308  0.72966  1.0000
  H   H937      1.0  0.29395  0.87238  0.89195  1.0000
  C   C1184     1.0  0.16687  0.98310  0.85195  1.0000
  C   C1185     1.0  0.23200  0.92129  0.95617  1.0000
  C   C1186     1.0  0.17625  0.85488  0.87966  1.0000
  H   H938      1.0  0.04791  0.77435  0.84209  1.0000
  C   C1187     1.0  0.27904  0.92983  0.93952  1.0000
  C   C1188     1.0  0.02914  0.82952  0.88059  1.0000
  P   P41       1.0  0.02763  0.81036  0.84214  1.0000
  H   H939      1.0  0.27324  0.88508  0.92582  1.0000
  C   C1189     1.0  0.03032  0.81197  0.87120  1.0000
  H   H940      1.0  0.17937  0.99630  0.82368  1.0000
  C   C1190     1.0  0.21258  0.92066  0.95678  1.0000
  H   H941      1.0  0.24336  0.88003  0.95394  1.0000
  H   H942      1.0  0.03931  0.98545  0.92735  1.0000
  C   C1191     1.0  0.17451  0.99394  0.63083  1.0000
  C   C1192     1.0  0.01198  0.84077  0.81847  1.0000
  H   H943      1.0  0.11301  0.84799  0.52702  1.0000
  C   C1193     1.0  0.02553  0.96798  0.50897  1.0000
  C   C1194     1.0  0.19005  0.85058  0.84365  1.0000
  C   C1195     1.0  0.18004  0.98296  0.61308  1.0000
  C   C1196     1.0  0.04864  0.81508  0.82661  1.0000
  C   C1197     1.0  0.05093  0.80884  0.80523  1.0000
  C   C1198     1.0  0.06712  0.81228  0.79295  1.0000
  C   C1199     1.0  0.08113  0.82205  0.80186  1.0000
  C   C1200     1.0  0.07894  0.82838  0.82310  1.0000
  C   C1201     1.0  0.06275  0.82493  0.83548  1.0000
  H   H944      1.0  0.05851  0.79022  0.55482  1.0000
  H   H945      1.0  0.02105  0.76483  0.75608  1.0000
  C   C1202     1.0  0.03595  0.96294  0.55246  1.0000
  C   C1203     1.0  0.17868  0.86096  0.85800  1.0000
  C   C1204     1.0  0.13735  0.79647  0.62615  1.0000
  H   H946      1.0  0.00649  0.91358  0.96239  1.0000
  C   C1205     1.0  0.13788  0.94244  0.70458  1.0000
  H   H947      1.0  0.02784  0.84460  0.91037  1.0000
  C   C1206     1.0  0.11968  0.76917  0.63380  1.0000
  H   H948      1.0  0.24090  0.98640  0.75225  1.0000
  H   H949      1.0  0.02541  0.89016  0.99560  1.0000
  C   C1207     1.0  0.00665  0.98962  0.61779  1.0000
  H   H950      1.0  0.07579  0.78105  0.52113  1.0000
  H   H951      1.0  0.10265  0.75832  0.52320  1.0000
  C   C1208     1.0  0.19668  0.82796  0.87273  1.0000
  H   H952      1.0  0.04017  0.80134  0.79796  1.0000
  H   H953      1.0  0.17599  0.97743  0.57932  1.0000
  H   H954      1.0  0.09366  0.82470  0.79223  1.0000
  H   H955      1.0  0.07823  0.78011  0.62883  1.0000
  C   C1209     1.0  0.12788  0.95606  0.69254  1.0000
  C   C1210     1.0  0.11904  0.87822  0.72498  1.0000
  C   C1211     1.0  0.13232  0.86719  0.71383  1.0000
  C   C1212     1.0  0.15038  0.87313  0.71075  1.0000
  C   C1213     1.0  0.15525  0.88998  0.71909  1.0000
  C   C1214     1.0  0.14212  0.90087  0.73098  1.0000
  C   C1215     1.0  0.12384  0.89509  0.73331  1.0000
  P   P42       1.0  0.14788  0.92270  0.74219  1.0000
  C   C1216     1.0  0.14279  0.92329  0.77115  1.0000
  C   C1217     1.0  0.17220  0.92732  0.73955  1.0000
  C   C1218     1.0  0.18547  0.91367  0.74608  1.0000
  C   C1219     1.0  0.20425  0.91749  0.74562  1.0000
  C   C1220     1.0  0.20987  0.93524  0.73950  1.0000
  C   C1221     1.0  0.19670  0.94911  0.73353  1.0000
  C   C1222     1.0  0.17793  0.94519  0.73354  1.0000
  C   C1223     1.0  0.14665  0.93920  0.78246  1.0000
  C   C1224     1.0  0.14324  0.93985  0.80494  1.0000
  C   C1225     1.0  0.13615  0.92456  0.81639  1.0000
  C   C1226     1.0  0.13269  0.90850  0.80537  1.0000
  C   C1227     1.0  0.13612  0.90779  0.78287  1.0000
  C   C1228     1.0  0.17145  0.98566  0.59309  1.0000
  C   C1229     1.0  0.15722  0.99928  0.59066  1.0000
  C   C1230     1.0  0.07506  0.77216  0.57587  1.0000
  H   H956      1.0  0.01661  0.93314  0.99125  1.0000
  C   C1231     1.0  0.15761  0.86673  0.64907  1.0000
  H   H957      1.0  0.08229  0.93247  0.54472  1.0000
  C   C1232     1.0  0.13475  0.94041  0.72718  1.0000
  H   H958      1.0  0.12866  0.85385  0.70798  1.0000
  H   H959      1.0  0.16071  0.86436  0.70246  1.0000
  H   H960      1.0  0.16929  0.89423  0.71638  1.0000
  H   H961      1.0  0.03356  0.78529  0.91800  1.0000
  H   H962      1.0  0.18125  0.90016  0.75204  1.0000
  H   H963      1.0  0.21434  0.90680  0.75087  1.0000
  H   H964      1.0  0.01125  0.94744  0.55700  1.0000
  H   H965      1.0  0.17454  0.82245  0.82217  1.0000
  H   H966      1.0  0.15275  0.95098  0.77403  1.0000
  H   H967      1.0  0.14679  0.95198  0.81357  1.0000
  H   H968      1.0  0.13399  0.92490  0.83392  1.0000
  H   H969      1.0  0.12780  0.89642  0.81436  1.0000
  H   H970      1.0  0.13399  0.89494  0.77495  1.0000
  C   C1233     1.0  0.05491  0.96240  0.99578  1.0000
  S   S154      1.0  0.11326  0.99133  0.54873  1.0000
  H   H971      1.0  0.19434  0.91308  0.67815  1.0000
  H   H972      1.0  0.21835  0.93431  0.68840  1.0000
  C   C1234     1.0  0.03564  0.96439  0.99445  1.0000
  C   C1235     1.0  0.19300  0.92771  0.67354  1.0000
  C   C1236     1.0  0.12125  0.95197  0.73754  1.0000
  C   C1237     1.0  0.07708  0.90794  0.63923  1.0000
  C   C1238     1.0  0.06203  0.90895  0.62546  1.0000
  C   C1239     1.0  0.06496  0.90671  0.60310  1.0000
  C   C1240     1.0  0.08288  0.90309  0.59455  1.0000
  C   C1241     1.0  0.09798  0.90139  0.60835  1.0000
  C   C1242     1.0  0.09503  0.90441  0.63069  1.0000
  P   P43       1.0  0.12103  0.89651  0.59713  1.0000
  C   C1243     1.0  0.13541  0.88514  0.61765  1.0000
  C   C1244     1.0  0.11912  0.88101  0.57483  1.0000
  C   C1245     1.0  0.11914  0.86169  0.57863  1.0000
  C   C1246     1.0  0.11715  0.84986  0.56139  1.0000
  C   C1247     1.0  0.11510  0.85716  0.54025  1.0000
  C   C1248     1.0  0.11500  0.87633  0.53631  1.0000
  C   C1249     1.0  0.11675  0.88824  0.55351  1.0000
  C   C1250     1.0  0.17774  0.93464  0.66196  1.0000
  C   C1251     1.0  0.12799  0.87169  0.63209  1.0000
  C   C1252     1.0  0.13070  0.91787  0.58676  1.0000
  C   C1253     1.0  0.04180  0.97548  0.51598  1.0000
  C   C1254     1.0  0.14561  0.91730  0.57150  1.0000
  H   H973      1.0  0.07480  0.90960  0.65658  1.0000
  H   H974      1.0  0.04809  0.91135  0.63212  1.0000
  H   H975      1.0  0.05332  0.90746  0.59236  1.0000
  H   H976      1.0  0.08487  0.90134  0.57721  1.0000
  H   H977      1.0  0.10649  0.90374  0.64161  1.0000
  H   H978      1.0  0.12008  0.85561  0.59487  1.0000
  H   H979      1.0  0.11644  0.83504  0.56452  1.0000
  H   H980      1.0  0.18733  0.92453  0.97612  1.0000
  S   S155      1.0  0.11316  0.96147  0.99093  1.0000
  H   H981      1.0  0.11585  0.90308  0.55005  1.0000
  C   C1255     1.0  0.01732  0.81800  0.76264  1.0000
  H   H982      1.0  0.11366  0.86807  0.63119  1.0000
  H   H983      1.0  0.15185  0.90412  0.56648  1.0000
  H   H984      1.0  0.33264  0.90504  0.85520  1.0000
  H   H985      1.0  0.21197  0.98213  0.83039  1.0000
  C   C1256     1.0  0.01444  0.95804  0.52403  1.0000
  H   H986      1.0  0.24487  0.75309  0.86743  1.0000
  C   C1257     1.0  0.02115  0.78747  0.83507  1.0000
  C   C1258     1.0  0.25638  0.98780  0.81315  1.0000
  C   C1259     1.0  0.02919  0.75460  0.83115  1.0000
  C   C1260     1.0  0.02931  0.83105  0.90320  1.0000
  H   H987      1.0  0.26583  0.77663  0.85165  1.0000
  H   H988      1.0  0.11309  0.88204  0.51995  1.0000
  C   C1261     1.0  0.23753  0.87867  0.93809  1.0000
  C   C1262     1.0  0.13210  0.79669  0.60447  1.0000
  H   H989      1.0  0.30710  0.88392  0.92786  1.0000
  H   H990      1.0  0.06131  0.82993  0.85187  1.0000
  C   C1263     1.0  0.31985  0.88323  0.98647  1.0000
  S   S156      1.0  0.03318  0.86188  0.51850  1.0000
  H   H991      1.0  0.10692  0.97828  0.69366  1.0000
  C   C1264     1.0  0.23914  0.76616  0.86082  1.0000
  H   H992      1.0  0.20528  0.91722  0.94241  1.0000
  H   H993      1.0  0.16774  0.86324  0.89082  1.0000
  H   H994      1.0  0.16403  0.97419  0.69315  1.0000
  P   P44       1.0  0.18605  0.99042  0.65643  1.0000
  H   H995      1.0  0.16795  0.95635  0.72979  1.0000
  H   H996      1.0  0.23210  0.84979  0.94387  1.0000
  C   C1265     1.0  0.03405  0.77235  0.83671  1.0000
  C   C1266     1.0  0.18254  0.81642  0.80880  1.0000
  C   C1267     1.0  0.23647  0.89395  0.92334  1.0000
  C   C1268     1.0  0.18289  0.80236  0.77354  1.0000
  C   C1269     1.0  0.11046  0.95064  0.50487  1.0000
  C   C1270     1.0  0.04701  0.97290  0.53761  1.0000
  P   P45       1.0  0.24481  0.91584  0.93127  1.0000
  H   H997      1.0  0.10511  0.87342  0.72753  1.0000
  C   C1271     1.0  0.22435  0.80011  0.84383  1.0000
  H   H998      1.0  0.26808  0.87508  0.81031  1.0000
  H   H999      1.0  0.12259  0.96488  0.58705  1.0000
  C   C1272     1.0  0.12077  0.78305  0.59737  1.0000
  H   H1000     1.0  0.13664  0.80754  0.59322  1.0000
  H   H1001     1.0  0.06754  0.77675  0.59035  1.0000
  H   H1002     1.0  0.99959  0.86400  0.80044  1.0000
  C   C1273     1.0  0.22335  0.85964  0.91223  1.0000
  C   C1274     1.0  0.03087  0.81512  0.91665  1.0000
  C   C1275     1.0  0.21257  0.78649  0.85224  1.0000
  C   C1276     1.0  0.00457  0.78788  0.76909  1.0000
  C   C1277     1.0  0.17594  0.95358  0.65630  1.0000
  C   C1278     1.0  0.18958  0.96571  0.66189  1.0000
  H   H1003     1.0  0.05541  0.89934  0.97851  1.0000
  H   H1004     1.0  0.15686  0.97203  0.88298  1.0000
  H   H1005     1.0  0.17960  0.88326  0.63581  1.0000
  H   H1006     1.0  0.15809  0.81188  0.79087  1.0000
  H   H1007     1.0  0.19766  0.78890  0.85205  1.0000
  C   C1279     1.0  0.11130  0.96562  0.72545  1.0000
  H   H1008     1.0  0.06877  0.80734  0.77646  1.0000
  C   C1280     1.0  0.20234  0.92472  0.97587  1.0000
  C   C1281     1.0  0.06985  0.77983  0.55567  1.0000
  H   H1009     1.0  0.23670  0.97381  0.86674  1.0000
  C   C1282     1.0  0.24102  0.92562  0.97513  1.0000
  C   C1283     1.0  0.24361  0.79629  0.84335  1.0000
  H   H1010     1.0  0.05310  0.77827  0.65676  1.0000
  C   C1284     1.0  0.07969  0.77475  0.53668  1.0000
  C   C1285     1.0  0.05218  0.90245  0.99535  1.0000
  C   C1286     1.0  0.29839  0.92905  0.94044  1.0000
  H   H1011     1.0  0.16381  0.95879  0.64774  1.0000
  H   H1012     1.0  0.21543  0.96756  0.67849  1.0000
  H   H1013     1.0  0.16300  0.93319  0.54942  1.0000
  H   H1014     1.0  0.23919  0.96422  0.81661  1.0000
  H   H1015     1.0  0.25970  0.94762  0.86107  1.0000
  C   C1287     1.0  0.23071  0.92964  0.99422  1.0000
  H   H1016     1.0  0.25594  0.92585  0.97533  1.0000
  H   H1017     1.0  0.19196  0.85563  0.82693  1.0000
  C   C1288     1.0  0.05853  0.76573  0.64910  1.0000
  H   H1018     1.0  0.01656  0.99849  0.98978  1.0000
  C   C1289     1.0  0.03202  0.79601  0.88487  1.0000
  H   H1019     1.0  0.19123  0.97253  0.61457  1.0000
  C   C1290     1.0  0.07282  0.76672  0.63325  1.0000
  H   H1020     1.0  0.06360  0.96095  0.98116  1.0000
  H   H1021     1.0  0.22436  0.93842  0.74007  1.0000
  C   C1291     1.0  0.20656  0.93967  0.67929  1.0000
  Fe  Fe83      1.0  0.14364  0.95354  0.99076  1.0000
  C   C1292     1.0  0.15410  0.88934  0.61921  1.0000
  H   H1022     1.0  0.11102  0.93607  0.60417  1.0000
  H   H1023     1.0  0.21933  0.94920  0.92795  1.0000
  H   H1024     1.0  0.14603  0.80708  0.63174  1.0000
  C   C1293     1.0  0.23115  0.86154  0.93246  1.0000
  H   H1025     1.0  0.14727  0.98823  0.72447  1.0000
  H   H1026     1.0  0.32350  0.91192  0.93637  1.0000
  C   C1294     1.0  0.09884  0.93800  0.51568  1.0000
  H   H1027     1.0  0.08995  0.96167  0.56216  1.0000
  C   C1295     1.0  0.15200  0.93373  0.56183  1.0000
  H   H1028     1.0  0.02954  0.96479  0.97859  1.0000
  C   C1296     1.0  0.25828  0.86440  0.81412  1.0000
  H   H1029     1.0  0.13038  0.95760  0.67511  1.0000
  C   C1297     1.0  0.22834  0.89203  0.90316  1.0000
  C   C1298     1.0  0.22176  0.87490  0.89772  1.0000
  H   H1030     1.0  0.10092  0.97454  0.73353  1.0000
  C   C1299     1.0  0.30473  0.89203  0.99732  1.0000
  C   C1300     1.0  0.12923  0.95156  0.58313  1.0000
  C   C1301     1.0  0.24125  0.93376  0.91042  1.0000
  C   C1302     1.0  0.25256  0.93355  0.89140  1.0000
  C   C1303     1.0  0.25100  0.94802  0.87579  1.0000
  C   C1304     1.0  0.23802  0.96272  0.87894  1.0000
  C   C1305     1.0  0.22654  0.96293  0.89768  1.0000
  C   C1306     1.0  0.22822  0.94858  0.91347  1.0000
  H   H1031     1.0  0.08982  0.83597  0.82996  1.0000
  H   H1032     1.0  0.21624  0.97415  0.89996  1.0000
  H   H1033     1.0  0.22337  0.84266  0.79143  1.0000
  H   H1034     1.0  0.26270  0.92225  0.88864  1.0000
  C   C1307     1.0  0.03240  0.79762  0.90749  1.0000
  C   C1308     1.0  0.14368  0.95084  0.56748  1.0000
  H   H1035     1.0  0.14803  0.96355  0.55930  1.0000
  H   H1036     1.0  0.30564  0.94142  0.94372  1.0000
  C   C1309     1.0  0.15398  0.99700  0.71224  1.0000
  H   H1037     1.0  0.22668  0.90372  0.89177  1.0000
  H   H1038     1.0  0.21503  0.87355  0.88242  1.0000
  C   C1310     1.0  0.00952  0.82754  0.83546  1.0000
  C   C1311     1.0  0.01964  0.95559  0.54569  1.0000
  H   H1039     1.0  0.21079  0.75923  0.86741  1.0000
  C   C1312     1.0  0.26960  0.91395  0.93475  1.0000
  C   C1313     1.0  0.22447  0.98934  0.82655  1.0000
  H   H1040     1.0  0.16025  0.89953  0.60827  1.0000
  C   C1314     1.0  0.24000  0.97903  0.81873  1.0000
  C   C1315     1.0  0.13902  0.86255  0.64771  1.0000
  H   H1041     1.0  0.13308  0.85208  0.65859  1.0000
  C   C1316     1.0  0.16513  0.88015  0.63487  1.0000
  H   H1042     1.0  0.21830  0.84642  0.90791  1.0000
  H   H1043     1.0  0.26826  0.97980  0.80672  1.0000
  C   C1317     1.0  0.30846  0.91247  0.93637  1.0000
  H   H1044     1.0  0.16619  0.85942  0.66099  1.0000
  H   H1045     1.0  0.12365  0.97688  0.50612  1.0000
  C   C1318     1.0  0.11455  0.96732  0.51452  1.0000
  H   H1046     1.0  0.25305  0.80610  0.83608  1.0000
  H   H1047     1.0  0.11683  0.78363  0.58054  1.0000
  C   C1319     1.0  0.25095  0.77944  0.85198  1.0000
  H   H1048     1.0  0.02447  0.84053  0.80829  1.0000
  C   C1320     1.0  0.17258  0.00041  0.67875  1.0000
  H   H1049     1.0  0.05984  0.97833  0.54272  1.0000
  H   H1050     1.0  0.32048  0.88285  0.96886  1.0000
  H   H1051     1.0  0.29352  0.89840  0.98802  1.0000
  C   C1321     1.0  0.19075  0.99603  0.77428  1.0000
  Fe  Fe84      1.0  0.07216  0.89740  0.51264  1.0000
  C   C1322     1.0  0.00343  0.93656  0.98389  1.0000
  H   H1052     1.0  0.11485  0.75874  0.64545  1.0000
  S   S157      1.0  0.07680  0.86749  0.50377  1.0000
  H   H1053     1.0  0.01508  0.98984  0.65107  1.0000
  H   H1054     1.0  0.17458  0.99313  0.90445  1.0000
  P   P46       1.0  0.09907  0.75190  0.60349  1.0000
  C   C1323     1.0  0.00643  0.99916  0.59761  1.0000
  C   C1324     1.0  0.00363  0.78466  0.82696  1.0000
  C   C1325     1.0  0.17838  0.99581  0.84132  1.0000
  C   C1326     1.0  0.10020  0.75447  0.55808  1.0000
  C   C1327     1.0  0.00313  0.80709  0.77156  1.0000
  C   C1328     1.0  0.16560  0.98205  0.87470  1.0000
  C   C1329     1.0  0.04602  0.99858  0.92572  1.0000
  H   H1055     1.0  0.00006  0.91032  0.59288  1.0000
  C   C1330     1.0  0.01150  0.75187  0.82366  1.0000
  H   H1056     1.0  0.00026  0.97635  0.61976  1.0000
  H   H1057     1.0  0.00776  0.99589  0.54468  1.0000
  C   C1331     1.0  0.17577  0.99382  0.88680  1.0000
  H   H1058     1.0  0.17677  0.99883  0.78050  1.0000
  H   H1059     1.0  0.21166  0.00035  0.68971  1.0000
  S   S158      1.0  0.13276  0.75110  0.68885  1.0000
  H   H1060     1.0  0.05075  0.98289  0.50456  1.0000
  S   S159      1.0  0.09522  0.91675  0.50337  1.0000
  H   H1061     1.0  0.33922  0.07156  0.36191  1.0000
  Fe  Fe85      1.0  0.62726  0.13506  0.14777  1.0000
  S   S160      1.0  0.60829  0.11462  0.13332  1.0000
  S   S161      1.0  0.61653  0.16591  0.14973  1.0000
  H   H1062     1.0  0.57455  0.09865  0.02924  1.0000
  S   S162      1.0  0.64300  0.08478  0.13481  1.0000
  Fe  Fe86      1.0  0.63275  0.10700  0.11064  1.0000
  S   S163      1.0  0.63464  0.09961  0.07370  1.0000
  Fe  Fe87      1.0  0.61979  0.09361  0.15835  1.0000
  S   S164      1.0  0.60678  0.07002  0.18031  1.0000
  S   S165      1.0  0.65116  0.12803  0.12408  1.0000
  S   S166      1.0  0.63758  0.11440  0.17385  1.0000
  Fe  Fe88      1.0  0.39685  0.13606  0.39961  1.0000
  S   S167      1.0  0.41849  0.11575  0.41327  1.0000
  S   S168      1.0  0.40976  0.16448  0.39271  1.0000
  Fe  Fe89      1.0  0.36709  0.10652  0.40367  1.0000
  S   S169      1.0  0.38763  0.08493  0.41771  1.0000
  C   C1332     1.0  0.39236  0.01979  0.12775  1.0000
  Fe  Fe90      1.0  0.39672  0.10784  0.43890  1.0000
  S   S170      1.0  0.40644  0.10647  0.47484  1.0000
  Fe  Fe91      1.0  0.40790  0.09452  0.39122  1.0000
  S   S171      1.0  0.42444  0.07653  0.36545  1.0000
  S   S172      1.0  0.37544  0.12898  0.42610  1.0000
  S   S173      1.0  0.38700  0.11519  0.37644  1.0000
  H   H1063     1.0  0.33629  0.12539  0.49400  1.0000
  C   C1333     1.0  0.38288  0.18939  0.48314  1.0000
  S   S174      1.0  0.53622  0.02815  0.22408  1.0000
  C   C1334     1.0  0.57022  0.04829  0.31171  1.0000
  S   S175      1.0  0.48691  0.02091  0.32128  1.0000
  H   H1064     1.0  0.50813  0.06617  0.09931  1.0000
  C   C1335     1.0  0.64340  0.23194  0.12200  1.0000
  C   C1336     1.0  0.44203  0.06121  0.35324  1.0000
  C   C1337     1.0  0.44109  0.05678  0.33111  1.0000
  C   C1338     1.0  0.45460  0.04464  0.32101  1.0000
  C   C1339     1.0  0.46939  0.03667  0.33286  1.0000
  C   C1340     1.0  0.47037  0.04123  0.35492  1.0000
  C   C1341     1.0  0.45688  0.05331  0.36501  1.0000
  H   H1065     1.0  0.42979  0.06275  0.32168  1.0000
  H   H1066     1.0  0.45352  0.04142  0.30405  1.0000
  H   H1067     1.0  0.48165  0.03526  0.36438  1.0000
  H   H1068     1.0  0.45793  0.05645  0.38200  1.0000
  C   C1342     1.0  0.40859  0.18619  0.37774  1.0000
  C   C1343     1.0  0.42284  0.19866  0.37984  1.0000
  C   C1344     1.0  0.42264  0.21600  0.36835  1.0000
  C   C1345     1.0  0.40809  0.22120  0.35462  1.0000
  C   C1346     1.0  0.39380  0.20875  0.35263  1.0000
  C   C1347     1.0  0.39407  0.19136  0.36399  1.0000
  H   H1069     1.0  0.43414  0.19488  0.39044  1.0000
  H   H1070     1.0  0.43374  0.22533  0.37011  1.0000
  H   H1071     1.0  0.38247  0.21252  0.34207  1.0000
  H   H1072     1.0  0.38299  0.18201  0.36220  1.0000
  C   C1348     1.0  0.37591  0.02538  0.13876  1.0000
  S   S176      1.0  0.33823  0.09439  0.39972  1.0000
  H   H1073     1.0  0.59333  0.04357  0.05091  1.0000
  C   C1349     1.0  0.58687  0.05867  0.19231  1.0000
  C   C1350     1.0  0.58962  0.04297  0.20641  1.0000
  C   C1351     1.0  0.57450  0.03359  0.21632  1.0000
  C   C1352     1.0  0.55615  0.03961  0.21226  1.0000
  C   C1353     1.0  0.55340  0.05533  0.19821  1.0000
  C   C1354     1.0  0.56853  0.06479  0.18843  1.0000
  H   H1074     1.0  0.60362  0.03798  0.20971  1.0000
  H   H1075     1.0  0.57707  0.02155  0.22691  1.0000
  H   H1076     1.0  0.53941  0.06026  0.19482  1.0000
  H   H1077     1.0  0.56598  0.07682  0.17779  1.0000
  C   C1355     1.0  0.61866  0.11972  0.03803  1.0000
  C   C1356     1.0  0.63028  0.10476  0.04517  1.0000
  C   C1357     1.0  0.63881  0.09337  0.02910  1.0000
  H   H1078     1.0  0.61189  0.12867  0.04991  1.0000
  H   H1079     1.0  0.37148  0.06934  0.37382  1.0000
  C   C1358     1.0  0.61193  0.21915  0.19116  1.0000
  C   C1359     1.0  0.62040  0.20253  0.19959  1.0000
  C   C1360     1.0  0.62183  0.18615  0.18738  1.0000
  C   C1361     1.0  0.61488  0.18607  0.16636  1.0000
  C   C1362     1.0  0.60641  0.20270  0.15795  1.0000
  C   C1363     1.0  0.60482  0.21901  0.17024  1.0000
  H   H1080     1.0  0.62590  0.20229  0.21575  1.0000
  H   H1081     1.0  0.62839  0.17361  0.19423  1.0000
  H   H1082     1.0  0.60092  0.20295  0.14178  1.0000
  H   H1083     1.0  0.59791  0.23142  0.16361  1.0000
  C   C1364     1.0  0.38657  0.17293  0.49541  1.0000
  H   H1084     1.0  0.52098  0.02181  0.37785  1.0000
  H   H1085     1.0  0.52602  0.03056  0.04730  1.0000
  H   H1086     1.0  0.56245  0.15300  0.08086  1.0000
  H   H1087     1.0  0.55607  0.04523  0.04474  1.0000
  C   C1365     1.0  0.56314  0.09772  0.31051  1.0000
  H   H1088     1.0  0.63129  0.05603  0.10223  1.0000
  H   H1089     1.0  0.37003  0.03934  0.13616  1.0000
  C   C1366     1.0  0.51776  0.05582  0.28195  1.0000
  C   C1367     1.0  0.39940  0.17626  0.45190  1.0000
  C   C1368     1.0  0.49728  0.05649  0.25153  1.0000
  C   C1369     1.0  0.58589  0.06527  0.09083  1.0000
  C   C1370     1.0  0.55245  0.10954  0.06624  1.0000
  C   C1371     1.0  0.60108  0.05181  0.01810  1.0000
  H   H1090     1.0  0.65375  0.22232  0.11508  1.0000
  H   H1091     1.0  0.35457  0.01743  0.16207  1.0000
  H   H1092     1.0  0.56834  0.12515  0.23269  1.0000
  H   H1093     1.0  0.58303  0.05018  0.14408  1.0000
  H   H1094     1.0  0.60516  0.07695  0.22836  1.0000
  C   C1372     1.0  0.61637  0.05687  0.10468  1.0000
  C   C1373     1.0  0.56490  0.03546  0.27666  1.0000
  C   C1374     1.0  0.36718  0.01302  0.15331  1.0000
  C   C1375     1.0  0.53567  0.07016  0.08597  1.0000
  C   C1376     1.0  0.56410  0.13816  0.07870  1.0000
  H   H1095     1.0  0.55930  0.03674  0.26053  1.0000
  H   H1096     1.0  0.59522  0.10226  0.08764  1.0000
  H   H1097     1.0  0.53650  0.07859  0.23755  1.0000
  H   H1098     1.0  0.59610  0.10893  0.21608  1.0000
  C   C1377     1.0  0.53082  0.09026  0.31416  1.0000
  H   H1099     1.0  0.38643  0.20368  0.45195  1.0000
  C   C1378     1.0  0.52870  0.04164  0.05809  1.0000
  S   S177      1.0  0.49286  0.00668  0.25566  1.0000
  C   C1379     1.0  0.53050  0.06630  0.26963  1.0000
  H   H1100     1.0  0.33673  0.09721  0.33334  1.0000
  C   C1380     1.0  0.58915  0.05364  0.12819  1.0000
  C   C1381     1.0  0.60835  0.05195  0.12492  1.0000
  C   C1382     1.0  0.57794  0.06026  0.11125  1.0000
  H   H1101     1.0  0.60657  0.13467  0.01042  1.0000
  C   C1383     1.0  0.36824  0.06450  0.35792  1.0000
  C   C1384     1.0  0.54826  0.08777  0.30359  1.0000
  H   H1102     1.0  0.36297  0.14504  0.49193  1.0000
  C   C1385     1.0  0.54323  0.11227  0.33813  1.0000
  H   H1103     1.0  0.59115  0.13589  0.09259  1.0000
  C   C1386     1.0  0.61568  0.12313  0.01545  1.0000
  H   H1104     1.0  0.57216  0.11754  0.33293  1.0000
  C   C1387     1.0  0.63604  0.09693  0.00651  1.0000
  C   C1388     1.0  0.52835  0.10244  0.33137  1.0000
  C   C1389     1.0  0.60244  0.22444  0.00699  1.0000
  C   C1390     1.0  0.50106  0.05131  0.27307  1.0000
  H   H1105     1.0  0.54938  0.10915  0.26114  1.0000
  C   C1391     1.0  0.56645  0.08367  0.26100  1.0000
  C   C1392     1.0  0.58293  0.07154  0.04295  1.0000
  C   C1393     1.0  0.56331  0.05048  0.29063  1.0000
  C   C1394     1.0  0.57228  0.11112  0.23815  1.0000
  H   H1106     1.0  0.56317  0.06173  0.11438  1.0000
  C   C1395     1.0  0.51006  0.06651  0.23896  1.0000
  H   H1107     1.0  0.44079  0.21462  0.29184  1.0000
  H   H1108     1.0  0.39639  0.05564  0.34976  1.0000
  C   C1396     1.0  0.37808  0.05084  0.32379  1.0000
  C   C1397     1.0  0.61440  0.24989  0.11851  1.0000
  C   C1398     1.0  0.56160  0.10201  0.25423  1.0000
  C   C1399     1.0  0.57353  0.01861  0.28348  1.0000
  H   H1109     1.0  0.48470  0.05224  0.24442  1.0000
  H   H1110     1.0  0.59113  0.22259  0.01878  1.0000
  H   H1111     1.0  0.65056  0.19972  0.14445  1.0000
  C   C1400     1.0  0.59243  0.05457  0.03851  1.0000
  C   C1401     1.0  0.40310  0.15984  0.46397  1.0000
  C   C1402     1.0  0.54578  0.05003  0.05669  1.0000
  C   C1403     1.0  0.59020  0.08250  0.00596  1.0000
  H   H1112     1.0  0.58649  0.06063  0.25634  1.0000
  H   H1113     1.0  0.54129  0.12168  0.35149  1.0000
  Fe  Fe92      1.0  0.66026  0.10618  0.14922  1.0000
  P   P47       1.0  0.55204  0.07205  0.28137  1.0000
  H   H1114     1.0  0.60877  0.03889  0.01490  1.0000
  H   H1115     1.0  0.51902  0.08292  0.30932  1.0000
  C   C1404     1.0  0.52659  0.07146  0.24795  1.0000
  C   C1405     1.0  0.56061  0.10992  0.32769  1.0000
  H   H1116     1.0  0.35690  0.04721  0.30101  1.0000
  H   H1117     1.0  0.57448  0.00704  0.27261  1.0000
  C   C1406     1.0  0.51513  0.04746  0.07341  1.0000
  C   C1407     1.0  0.58234  0.07474  0.25169  1.0000
  Fe  Fe93      1.0  0.49918  0.00461  0.29146  1.0000
  C   C1408     1.0  0.38930  0.19102  0.46146  1.0000
  H   H1118     1.0  0.58381  0.02962  0.33491  1.0000
  C   C1409     1.0  0.35980  0.05220  0.31687  1.0000
  H   H1119     1.0  0.64779  0.08172  0.03413  1.0000
  C   C1410     1.0  0.58024  0.12852  0.08539  1.0000
  H   H1120     1.0  0.52075  0.05092  0.29838  1.0000
  C   C1411     1.0  0.38227  0.05689  0.34433  1.0000
  H   H1121     1.0  0.39928  0.02944  0.11670  1.0000
  H   H1122     1.0  0.40430  0.17753  0.43510  1.0000
  H   H1123     1.0  0.44097  0.01498  0.37253  1.0000
  C   C1412     1.0  0.62754  0.23688  0.11030  1.0000
  H   H1124     1.0  0.41075  0.14829  0.45649  1.0000
  H   H1125     1.0  0.50753  0.06978  0.22196  1.0000
  H   H1126     1.0  0.51488  0.10419  0.33953  1.0000
  Fe  Fe94      1.0  0.52413  0.00607  0.24888  1.0000
  C   C1413     1.0  0.54942  0.06438  0.07063  1.0000
  H   H1127     1.0  0.57673  0.09600  0.30265  1.0000
  H   H1128     1.0  0.38905  0.04498  0.31332  1.0000
  H   H1129     1.0  0.54429  0.01634  0.34786  1.0000
  H   H1130     1.0  0.54175  0.10248  0.05832  1.0000
  C   C1414     1.0  0.58797  0.10206  0.22885  1.0000
  C   C1415     1.0  0.38059  0.11666  0.30547  1.0000
  C   C1416     1.0  0.38696  0.13162  0.29273  1.0000
  C   C1417     1.0  0.39199  0.10804  0.32106  1.0000
  C   C1418     1.0  0.40960  0.11452  0.32421  1.0000
  C   C1419     1.0  0.41602  0.12972  0.31177  1.0000
  C   C1420     1.0  0.40466  0.13801  0.29569  1.0000
  P   P48       1.0  0.43925  0.13738  0.31483  1.0000
  C   C1421     1.0  0.43991  0.16187  0.30749  1.0000
  C   C1422     1.0  0.44629  0.13334  0.34261  1.0000
  C   C1423     1.0  0.45234  0.11540  0.34967  1.0000
  C   C1424     1.0  0.45815  0.11209  0.37096  1.0000
  C   C1425     1.0  0.45820  0.12668  0.38532  1.0000
  C   C1426     1.0  0.45225  0.14455  0.37845  1.0000
  C   C1427     1.0  0.44625  0.14791  0.35722  1.0000
  C   C1428     1.0  0.42562  0.17426  0.31479  1.0000
  C   C1429     1.0  0.42592  0.19315  0.30895  1.0000
  C   C1430     1.0  0.44054  0.19990  0.29605  1.0000
  C   C1431     1.0  0.45483  0.18772  0.28876  1.0000
  C   C1432     1.0  0.45452  0.16877  0.29438  1.0000
  C   C1433     1.0  0.45539  0.12397  0.29788  1.0000
  C   C1434     1.0  0.44917  0.11326  0.28115  1.0000
  C   C1435     1.0  0.46189  0.10277  0.26840  1.0000
  C   C1436     1.0  0.48084  0.10300  0.27219  1.0000
  C   C1437     1.0  0.48711  0.11360  0.28881  1.0000
  C   C1438     1.0  0.47445  0.12397  0.30170  1.0000
  H   H1131     1.0  0.38714  0.09644  0.33101  1.0000
  H   H1132     1.0  0.41805  0.10769  0.33650  1.0000
  H   H1133     1.0  0.40945  0.14944  0.28546  1.0000
  H   H1134     1.0  0.45217  0.10381  0.33892  1.0000
  H   H1135     1.0  0.46205  0.09806  0.37650  1.0000
  H   H1136     1.0  0.46221  0.12403  0.40201  1.0000
  H   H1137     1.0  0.45157  0.15575  0.38983  1.0000
  H   H1138     1.0  0.44130  0.16181  0.35261  1.0000
  H   H1139     1.0  0.41432  0.16936  0.32518  1.0000
  H   H1140     1.0  0.41491  0.20269  0.31458  1.0000
  H   H1141     1.0  0.56901  0.05953  0.32294  1.0000
  H   H1142     1.0  0.46618  0.19300  0.27878  1.0000
  H   H1143     1.0  0.46572  0.15968  0.28844  1.0000
  H   H1144     1.0  0.43456  0.11286  0.27800  1.0000
  H   H1145     1.0  0.45705  0.09441  0.25561  1.0000
  H   H1146     1.0  0.49067  0.09495  0.26226  1.0000
  H   H1147     1.0  0.50180  0.11378  0.29169  1.0000
  H   H1148     1.0  0.47948  0.13205  0.31463  1.0000
  P   P49       1.0  0.57161  0.07504  0.06929  1.0000
  H   H1149     1.0  0.61701  0.04728  0.13828  1.0000
  C   C1439     1.0  0.51862  0.06172  0.08734  1.0000
  C   C1440     1.0  0.57863  0.03132  0.31859  1.0000
  C   C1441     1.0  0.40001  0.00180  0.13115  1.0000
  H   H1150     1.0  0.37815  0.13829  0.28058  1.0000
  H   H1151     1.0  0.49127  0.04330  0.28270  1.0000
  C   C1442     1.0  0.58025  0.01647  0.30449  1.0000
  H   H1152     1.0  0.61183  0.06805  0.07252  1.0000
  C   C1443     1.0  0.59308  0.08398  0.23579  1.0000
  C   C1444     1.0  0.58247  0.10938  0.08265  1.0000
  C   C1445     1.0  0.53367  0.00648  0.35138  1.0000
  H   H1153     1.0  0.53963  0.24891  0.16287  1.0000
  H   H1154     1.0  0.58652  0.00323  0.30987  1.0000
  H   H1155     1.0  0.53818  0.08112  0.09700  1.0000
  H   H1156     1.0  0.39972  0.14534  0.49476  1.0000
  S   S178      1.0  0.53009  0.00547  0.28469  1.0000
  C   C1446     1.0  0.56850  0.09970  0.07330  1.0000
  C   C1447     1.0  0.58173  0.08542  0.02642  1.0000
  C   C1448     1.0  0.66078  0.19669  0.15665  1.0000
  H   H1157     1.0  0.36685  0.11176  0.30332  1.0000
  C   C1449     1.0  0.60523  0.06363  0.08777  1.0000
  H   H1158     1.0  0.36613  0.24421  0.32929  1.0000
  S   S179      1.0  0.61039  0.23939  0.20767  1.0000
  H   H1159     1.0  0.62553  0.23076  0.09476  1.0000
  H   H1160     1.0  0.65773  0.02356  0.22095  1.0000
  H   H1161     1.0  0.53783  0.13621  0.06362  1.0000
  C   C1450     1.0  0.39678  0.15820  0.48565  1.0000
  C   C1451     1.0  0.61884  0.23190  0.01333  1.0000
  H   H1162     1.0  0.65621  0.16739  0.15680  1.0000
  C   C1452     1.0  0.66156  0.04974  0.20404  1.0000
  C   C1453     1.0  0.34556  0.05968  0.33053  1.0000
  S   S180      1.0  0.40724  0.24260  0.33896  1.0000
  C   C1454     1.0  0.55023  0.12868  0.06906  1.0000
  C   C1455     1.0  0.34998  0.06583  0.35108  1.0000
  C   C1456     1.0  0.52055  0.00954  0.36824  1.0000
  C   C1457     1.0  0.64597  0.23956  0.14237  1.0000
  H   H1163     1.0  0.50195  0.04087  0.07453  1.0000
  H   H1164     1.0  0.65089  0.23144  0.20001  1.0000
  H   H1165     1.0  0.37508  0.20100  0.49013  1.0000
  C   C1458     1.0  0.66389  0.17821  0.16372  1.0000
  H   H1166     1.0  0.47985  0.24631  0.37443  1.0000
  H   H1167     1.0  0.42551  0.00145  0.40561  1.0000
  H   H1168     1.0  0.64761  0.05086  0.19790  1.0000
  H   H1169     1.0  0.62026  0.23584  0.03004  1.0000
  H   H1170     1.0  0.64604  0.24031  0.00300  1.0000
  C   C1459     1.0  0.44613  0.00181  0.37954  1.0000
  H   H1171     1.0  0.37017  0.10504  0.49877  1.0000
  C   C1460     1.0  0.65802  0.24434  0.19878  1.0000
  C   C1461     1.0  0.35200  0.19963  0.52802  1.0000
  Fe  Fe95      1.0  0.65248  0.10537  0.89378  1.0000
  S   S181      1.0  0.63438  0.08619  0.91453  1.0000
  Fe  Fe96      1.0  0.62114  0.13549  0.89017  1.0000
  S   S182      1.0  0.60183  0.11800  0.91066  1.0000
  S   S183      1.0  0.60655  0.16250  0.87700  1.0000
  Fe  Fe97      1.0  0.62542  0.11173  0.93352  1.0000
  S   S184      1.0  0.61973  0.11679  0.97084  1.0000
  Fe  Fe98      1.0  0.61190  0.09381  0.89022  1.0000
  S   S185      1.0  0.58836  0.07602  0.87761  1.0000
  S   S186      1.0  0.64428  0.13058  0.91372  1.0000
  S   S187      1.0  0.63044  0.11160  0.86877  1.0000
  Fe  Fe99      1.0  0.37296  0.11063  0.65944  1.0000
  S   S188      1.0  0.38618  0.08876  0.63788  1.0000
  S   S189      1.0  0.34787  0.10305  0.68191  1.0000
  Fe  Fe100     1.0  0.40475  0.13727  0.64903  1.0000
  S   S190      1.0  0.41966  0.11650  0.62669  1.0000
  S   S191      1.0  0.41966  0.16487  0.65234  1.0000
  Fe  Fe101     1.0  0.39165  0.11188  0.61303  1.0000
  S   S192      1.0  0.38203  0.10934  0.57733  1.0000
  Fe  Fe102     1.0  0.41333  0.09471  0.65304  1.0000
  S   S193      1.0  0.43287  0.06920  0.66178  1.0000
  S   S194      1.0  0.37696  0.13371  0.63411  1.0000
  S   S195      1.0  0.39994  0.11553  0.67585  1.0000
  H   H1172     1.0  0.40712  0.01116  0.69797  1.0000
  C   C1462     1.0  0.53866  0.23742  0.75588  1.0000
  S   S196      1.0  0.55384  0.02302  0.80707  1.0000
  H   H1173     1.0  0.60696  0.06387  0.98613  1.0000
  S   S197      1.0  0.48256  0.03371  0.73978  1.0000
  S   S198      1.0  0.49932  0.01177  0.79290  1.0000
  H   H1174     1.0  0.44927  0.00438  0.81042  1.0000
  C   C1463     1.0  0.44697  0.05998  0.68359  1.0000
  C   C1464     1.0  0.45569  0.04217  0.68173  1.0000
  C   C1465     1.0  0.46664  0.03402  0.69854  1.0000
  C   C1466     1.0  0.46904  0.04347  0.71772  1.0000
  C   C1467     1.0  0.46038  0.06132  0.71956  1.0000
  C   C1468     1.0  0.44945  0.06952  0.70272  1.0000
  H   H1175     1.0  0.45397  0.03457  0.66712  1.0000
  H   H1176     1.0  0.47335  0.02047  0.69657  1.0000
  H   H1177     1.0  0.46215  0.06891  0.73417  1.0000
  H   H1178     1.0  0.44292  0.08319  0.70457  1.0000
  C   C1469     1.0  0.38938  0.10840  0.54897  1.0000
  C   C1470     1.0  0.40795  0.10909  0.54175  1.0000
  H   H1179     1.0  0.55644  0.23878  0.72720  1.0000
  H   H1180     1.0  0.34616  0.03510  0.67203  1.0000
  C   C1471     1.0  0.37590  0.10701  0.53309  1.0000
  H   H1181     1.0  0.41859  0.11018  0.55354  1.0000
  H   H1182     1.0  0.36151  0.10662  0.53832  1.0000
  C   C1472     1.0  0.41569  0.18717  0.66437  1.0000
  C   C1473     1.0  0.39914  0.19233  0.67555  1.0000
  C   C1474     1.0  0.39665  0.21016  0.68448  1.0000
  C   C1475     1.0  0.41059  0.22322  0.68246  1.0000
  C   C1476     1.0  0.42721  0.21804  0.67140  1.0000
  C   C1477     1.0  0.42971  0.20019  0.66248  1.0000
  H   H1183     1.0  0.38821  0.18259  0.67726  1.0000
  H   H1184     1.0  0.38375  0.21389  0.69299  1.0000
  H   H1185     1.0  0.43810  0.22780  0.66974  1.0000
  H   H1186     1.0  0.44259  0.19645  0.65394  1.0000
  C   C1478     1.0  0.57899  0.06188  0.85716  1.0000
  C   C1479     1.0  0.56028  0.05706  0.85918  1.0000
  C   C1480     1.0  0.55235  0.04556  0.84400  1.0000
  C   C1481     1.0  0.56302  0.03830  0.82650  1.0000
  C   C1482     1.0  0.58173  0.04318  0.82442  1.0000
  C   C1483     1.0  0.58959  0.05493  0.83942  1.0000
  H   H1187     1.0  0.55180  0.06229  0.87265  1.0000
  H   H1188     1.0  0.53794  0.04228  0.84593  1.0000
  H   H1189     1.0  0.59025  0.03780  0.81106  1.0000
  H   H1190     1.0  0.60398  0.05833  0.83745  1.0000
  C   C1484     1.0  0.45246  0.03182  0.79638  1.0000
  S   S199      1.0  0.53173  0.00564  0.75503  1.0000
  C   C1485     1.0  0.58065  0.17422  0.92265  1.0000
  H   H1191     1.0  0.61964  0.22938  0.78217  1.0000
  C   C1486     1.0  0.51321  0.00282  0.84823  1.0000
  C   C1487     1.0  0.61858  0.22266  0.85414  1.0000
  C   C1488     1.0  0.63273  0.21091  0.86296  1.0000
  C   C1489     1.0  0.62930  0.19259  0.87027  1.0000
  C   C1490     1.0  0.61162  0.18574  0.86890  1.0000
  C   C1491     1.0  0.59735  0.19764  0.86060  1.0000
  C   C1492     1.0  0.60081  0.21594  0.85316  1.0000
  H   H1192     1.0  0.64638  0.21608  0.86436  1.0000
  H   H1193     1.0  0.64027  0.18383  0.87710  1.0000
  H   H1194     1.0  0.58352  0.19267  0.85982  1.0000
  H   H1195     1.0  0.58973  0.22493  0.84688  1.0000
  C   C1493     1.0  0.55413  0.18446  0.73138  1.0000
  C   C1494     1.0  0.42041  0.00467  0.70212  1.0000
  C   C1495     1.0  0.33526  0.10998  0.60045  1.0000
  C   C1496     1.0  0.50722  0.22869  0.75042  1.0000
  C   C1497     1.0  0.65326  0.15019  0.84630  1.0000
  C   C1498     1.0  0.38043  0.03905  0.74007  1.0000
  H   H1196     1.0  0.34692  0.05256  0.59260  1.0000
  P   P50       1.0  0.41198  0.01511  0.74480  1.0000
  H   H1197     1.0  0.41907  0.22842  0.74206  1.0000
  C   C1499     1.0  0.58874  0.19139  0.92383  1.0000
  H   H1198     1.0  0.36619  0.04768  0.55945  1.0000
  H   H1199     1.0  0.53235  0.22957  0.70249  1.0000
  C   C1500     1.0  0.60336  0.18080  0.95720  1.0000
  C   C1501     1.0  0.59943  0.23644  0.90555  1.0000
  C   C1502     1.0  0.33772  0.07237  0.63781  1.0000
  H   H1200     1.0  0.58241  0.17914  0.72029  1.0000
  H   H1201     1.0  0.63663  0.18299  0.93416  1.0000
  H   H1202     1.0  0.54876  0.18574  0.71511  1.0000
  H   H1203     1.0  0.47463  0.21840  0.66885  1.0000
  H   H1204     1.0  0.53929  0.18646  0.78427  1.0000
  C   C1503     1.0  0.41283  0.10841  0.51920  1.0000
  C   C1504     1.0  0.39933  0.10697  0.50332  1.0000
  C   C1505     1.0  0.63152  0.22947  0.97646  1.0000
  H   H1205     1.0  0.40432  0.07105  0.69672  1.0000
  H   H1206     1.0  0.37345  0.03039  0.75211  1.0000
  H   H1207     1.0  0.34715  0.10072  0.59693  1.0000
  C   C1506     1.0  0.47868  0.24397  0.65083  1.0000
  C   C1507     1.0  0.43348  0.22647  0.73685  1.0000
  C   C1508     1.0  0.39334  0.15398  0.56110  1.0000
  H   H1208     1.0  0.64282  0.08798  0.99462  1.0000
  H   H1209     1.0  0.39090  0.01313  0.78622  1.0000
  H   H1210     1.0  0.58763  0.21397  0.98065  1.0000
  H   H1211     1.0  0.40486  0.14271  0.59082  1.0000
  H   H1212     1.0  0.57245  0.17138  0.90881  1.0000
  H   H1213     1.0  0.46990  0.24043  0.63777  1.0000
  H   H1214     1.0  0.59824  0.15268  0.96798  1.0000
  H   H1215     1.0  0.46277  0.03536  0.80775  1.0000
  C   C1509     1.0  0.65532  0.14182  0.82616  1.0000
  H   H1216     1.0  0.59041  0.21335  0.77977  1.0000
  C   C1510     1.0  0.62439  0.11186  0.99935  1.0000
  C   C1511     1.0  0.34743  0.15420  0.54368  1.0000
  H   H1217     1.0  0.47391  0.24862  0.73622  1.0000
  C   C1512     1.0  0.43217  0.00949  0.78259  1.0000
  H   H1218     1.0  0.35577  0.06720  0.66477  1.0000
  C   C1513     1.0  0.60053  0.21950  0.98540  1.0000
  C   C1514     1.0  0.42675  0.02220  0.76588  1.0000
  H   H1219     1.0  0.54959  0.23481  0.83719  1.0000
  H   H1220     1.0  0.60460  0.03234  0.88059  1.0000
  C   C1515     1.0  0.44485  0.01437  0.79785  1.0000
  C   C1516     1.0  0.38078  0.10623  0.51056  1.0000
  H   H1221     1.0  0.34204  0.08644  0.63526  1.0000
  Fe  Fe103     1.0  0.50034  0.00971  0.75624  1.0000
  C   C1517     1.0  0.64337  0.22806  0.91835  1.0000
  H   H1222     1.0  0.43141  0.04940  0.75121  1.0000
  C   C1518     1.0  0.38082  0.20290  0.54629  1.0000
  H   H1223     1.0  0.52742  0.18942  0.74722  1.0000
  H   H1224     1.0  0.64356  0.13565  0.81921  1.0000
  C   C1519     1.0  0.49211  0.23629  0.68594  1.0000
  H   H1225     1.0  0.61260  0.18280  0.97035  1.0000
  H   H1226     1.0  0.50935  0.01705  0.84353  1.0000
  H   H1227     1.0  0.38262  0.22784  0.56430  1.0000
  S   S200      1.0  0.40648  0.24555  0.69430  1.0000
  C   C1520     1.0  0.59659  0.02059  0.87673  1.0000
  H   H1228     1.0  0.37165  0.07796  0.70834  1.0000
  C   C1521     1.0  0.34014  0.04334  0.65878  1.0000
  H   H1229     1.0  0.49369  0.22579  0.75738  1.0000
  C   C1522     1.0  0.38793  0.00109  0.77708  1.0000
  Fe  Fe104     1.0  0.53040  0.00645  0.79189  1.0000
  C   C1523     1.0  0.37409  0.22000  0.55409  1.0000
  H   H1230     1.0  0.58647  0.20158  0.91081  1.0000
  P   P51       1.0  0.61211  0.21627  0.94196  1.0000
  H   H1231     1.0  0.63698  0.24193  0.91897  1.0000
  C   C1524     1.0  0.52094  0.23384  0.76427  1.0000
  C   C1525     1.0  0.58985  0.24931  0.94020  1.0000
  C   C1526     1.0  0.54273  0.23578  0.73364  1.0000
  C   C1527     1.0  0.35888  0.15512  0.52478  1.0000
  S   S201      1.0  0.62376  0.24572  0.84549  1.0000
  C   C1528     1.0  0.44735  0.04443  0.77967  1.0000
  H   H1232     1.0  0.59464  0.17616  0.75736  1.0000
  P   P52       1.0  0.37820  0.17032  0.52337  1.0000
  C   C1529     1.0  0.44619  0.23972  0.74139  1.0000
  C   C1530     1.0  0.54882  0.21996  0.83536  1.0000
  C   C1531     1.0  0.54688  0.18171  0.83057  1.0000
  C   C1532     1.0  0.43458  0.03965  0.76444  1.0000
  H   H1233     1.0  0.58957  0.09341  0.99338  1.0000
  C   C1533     1.0  0.59921  0.23518  0.92836  1.0000
  C   C1534     1.0  0.59528  0.16365  0.95592  1.0000
  H   H1234     1.0  0.35859  0.06473  0.52503  1.0000
  H   H1235     1.0  0.45390  0.05762  0.77791  1.0000
  C   C1535     1.0  0.34284  0.05966  0.57761  1.0000
  H   H1236     1.0  0.65367  0.01380  0.54480  1.0000
  C   C1536     1.0  0.34963  0.06649  0.53939  1.0000
  C   C1537     1.0  0.52902  0.23072  0.71971  1.0000
  C   C1538     1.0  0.64314  0.19504  0.92696  1.0000
  C   C1539     1.0  0.53531  0.21019  0.84705  1.0000
  C   C1540     1.0  0.63437  0.21282  0.92792  1.0000
  C   C1541     1.0  0.61509  0.22194  0.96999  1.0000
  C   C1542     1.0  0.39762  0.06210  0.70881  1.0000
  C   C1543     1.0  0.37061  0.05445  0.73095  1.0000
  H   H1237     1.0  0.35631  0.05755  0.73597  1.0000
  H   H1238     1.0  0.64285  0.23169  0.96487  1.0000
  C   C1544     1.0  0.40745  0.04673  0.71784  1.0000
  H   H1239     1.0  0.54567  0.16695  0.82868  1.0000
  H   H1240     1.0  0.44427  0.16024  0.54151  1.0000
  H   H1241     1.0  0.60679  0.22587  0.89621  1.0000
  H   H1242     1.0  0.52376  0.18350  0.85357  1.0000
  H   H1243     1.0  0.37937  0.15185  0.56702  1.0000
  H   H1244     1.0  0.43737  0.14655  0.57836  1.0000
  H   H1245     1.0  0.51689  0.23500  0.57180  1.0000
  C   C1545     1.0  0.39898  0.03506  0.73355  1.0000
  H   H1246     1.0  0.54913  0.24188  0.76657  1.0000
  C   C1546     1.0  0.35636  0.22693  0.54885  1.0000
  H   H1247     1.0  0.57336  0.02905  0.89737  1.0000
  H   H1248     1.0  0.41888  0.17047  0.51764  1.0000
  C   C1547     1.0  0.61814  0.21591  0.79024  1.0000
  C   C1548     1.0  0.63055  0.19083  0.81326  1.0000
  C   C1549     1.0  0.63261  0.20795  0.80239  1.0000
  H   H1249     1.0  0.51775  0.23546  0.78147  1.0000
  C   C1550     1.0  0.60154  0.20682  0.78908  1.0000
  C   C1551     1.0  0.59914  0.18983  0.80046  1.0000
  C   C1552     1.0  0.61386  0.18185  0.81249  1.0000
  P   P53       1.0  0.57689  0.17924  0.80072  1.0000
  C   C1553     1.0  0.57959  0.15503  0.80941  1.0000
  C   C1554     1.0  0.56079  0.19135  0.81911  1.0000
  C   C1555     1.0  0.48141  0.23151  0.66848  1.0000
  C   C1556     1.0  0.37921  0.06597  0.71535  1.0000
  C   C1557     1.0  0.57306  0.18076  0.73431  1.0000
  C   C1558     1.0  0.56145  0.21063  0.82139  1.0000
  C   C1559     1.0  0.58006  0.14078  0.79433  1.0000
  C   C1560     1.0  0.58229  0.12217  0.80146  1.0000
  C   C1561     1.0  0.58417  0.11766  0.82361  1.0000
  C   C1562     1.0  0.58378  0.13176  0.83866  1.0000
  C   C1563     1.0  0.58141  0.15032  0.83161  1.0000
  C   C1564     1.0  0.56792  0.18118  0.77360  1.0000
  C   C1565     1.0  0.57995  0.17910  0.75534  1.0000
  C   C1566     1.0  0.40786  0.14874  0.57479  1.0000
  C   C1567     1.0  0.43004  0.15855  0.54699  1.0000
  H   H1250     1.0  0.64165  0.18484  0.82303  1.0000
  H   H1251     1.0  0.64524  0.21529  0.80382  1.0000
  C   C1568     1.0  0.46449  0.23777  0.73346  1.0000
  H   H1252     1.0  0.35013  0.16236  0.55760  1.0000
  H   H1253     1.0  0.61245  0.16899  0.82181  1.0000
  C   C1569     1.0  0.60014  0.19485  0.94116  1.0000
  C   C1570     1.0  0.42619  0.15089  0.56772  1.0000
  H   H1254     1.0  0.63990  0.15065  0.85480  1.0000
  H   H1255     1.0  0.57174  0.21857  0.81260  1.0000
  H   H1256     1.0  0.57868  0.14389  0.77712  1.0000
  H   H1257     1.0  0.58253  0.11117  0.78985  1.0000
  H   H1258     1.0  0.58590  0.10325  0.82920  1.0000
  H   H1259     1.0  0.58537  0.12829  0.85584  1.0000
  H   H1260     1.0  0.58110  0.16104  0.84352  1.0000
  C   C1571     1.0  0.54208  0.18649  0.74948  1.0000
  C   C1572     1.0  0.57892  0.01874  0.88619  1.0000
  C   C1573     1.0  0.51429  0.17567  0.67661  1.0000
  C   C1574     1.0  0.51056  0.16094  0.69122  1.0000
  C   C1575     1.0  0.50191  0.16446  0.71142  1.0000
  C   C1576     1.0  0.49675  0.18267  0.71693  1.0000
  C   C1577     1.0  0.49998  0.19748  0.70210  1.0000
  C   C1578     1.0  0.50917  0.19392  0.68208  1.0000
  P   P54       1.0  0.49359  0.22091  0.70965  1.0000
  C   C1579     1.0  0.47039  0.22229  0.72143  1.0000
  C   C1580     1.0  0.51105  0.22751  0.72793  1.0000
  H   H1261     1.0  0.52559  0.21744  0.85796  1.0000
  C   C1581     1.0  0.42647  0.00460  0.72361  1.0000
  C   C1582     1.0  0.41553  0.16411  0.53337  1.0000
  C   C1583     1.0  0.53430  0.19108  0.84459  1.0000
  C   C1584     1.0  0.34533  0.21677  0.53579  1.0000
  C   C1585     1.0  0.36978  0.19255  0.53327  1.0000
  C   C1586     1.0  0.43914  0.21117  0.72453  1.0000
  C   C1587     1.0  0.45748  0.20913  0.71667  1.0000
  H   H1262     1.0  0.52096  0.17290  0.66093  1.0000
  H   H1263     1.0  0.51426  0.14678  0.68684  1.0000
  H   H1264     1.0  0.49896  0.15301  0.72270  1.0000
  H   H1265     1.0  0.48999  0.18519  0.73262  1.0000
  H   H1266     1.0  0.51226  0.20515  0.67061  1.0000
  C   C1588     1.0  0.34555  0.06148  0.65469  1.0000
  C   C1589     1.0  0.54891  0.18484  0.77051  1.0000
  C   C1590     1.0  0.58395  0.16036  0.93864  1.0000
  H   H1267     1.0  0.42170  0.04392  0.71255  1.0000
  H   H1268     1.0  0.57812  0.14688  0.93736  1.0000
  C   C1591     1.0  0.39701  0.16163  0.54020  1.0000
  H   H1269     1.0  0.42908  0.20131  0.72023  1.0000
  H   H1270     1.0  0.46124  0.19766  0.70625  1.0000
  C   C1592     1.0  0.56824  0.00402  0.88069  1.0000
  C   C1593     1.0  0.66043  0.19253  0.91628  1.0000
  H   H1271     1.0  0.54856  0.23947  0.58450  1.0000
  C   C1594     1.0  0.52352  0.24796  0.56810  1.0000
  H   H1272     1.0  0.35148  0.13422  0.59834  1.0000
  H   H1273     1.0  0.39460  0.19781  0.55058  1.0000
  C   C1595     1.0  0.60369  0.00763  0.86188  1.0000
  H   H1274     1.0  0.34331  0.19192  0.51786  1.0000
  H   H1275     1.0  0.42725  0.10902  0.51404  1.0000
  C   C1596     1.0  0.63337  0.23441  0.99809  1.0000
  C   C1597     1.0  0.35390  0.05686  0.55880  1.0000
  H   H1276     1.0  0.35118  0.24017  0.55496  1.0000
  H   H1277     1.0  0.58958  0.24899  0.95780  1.0000
  H   H1278     1.0  0.62550  0.00092  0.53027  1.0000
  H   H1279     1.0  0.61734  0.00923  0.85443  1.0000
  H   H1280     1.0  0.54215  0.00782  0.84838  1.0000
  C   C1598     1.0  0.33778  0.12901  0.60135  1.0000
  C   C1599     1.0  0.54136  0.25047  0.57524  1.0000
  C   C1600     1.0  0.66060  0.22548  0.90757  1.0000
  C   C1601     1.0  0.33424  0.07893  0.53874  1.0000
  C   C1602     1.0  0.35457  0.14474  0.50681  1.0000
  C   C1603     1.0  0.33929  0.13350  0.50787  1.0000
  H   H1281     1.0  0.55455  0.00284  0.88815  1.0000
  C   C1604     1.0  0.60002  0.06580  0.00186  1.0000
  C   C1605     1.0  0.66135  0.35414  0.33061  1.0000
  H   H1282     1.0  0.34241  0.30612  0.28817  1.0000
  C   C1606     1.0  0.39600  0.40057  0.43847  1.0000
  H   H1283     1.0  0.56838  0.30217  0.27991  1.0000
  S   S202      1.0  0.44213  0.42585  0.48733  1.0000
  Fe  Fe105     1.0  0.59874  0.30635  0.17527  1.0000
  S   S203      1.0  0.62348  0.29099  0.19022  1.0000
  S   S204      1.0  0.60110  0.31293  0.13842  1.0000
  Fe  Fe106     1.0  0.57575  0.30364  0.21803  1.0000
  S   S205      1.0  0.59878  0.28775  0.23530  1.0000
  S   S206      1.0  0.54840  0.31587  0.23323  1.0000
  Fe  Fe107     1.0  0.61799  0.30861  0.21967  1.0000
  S   S207      1.0  0.64122  0.31779  0.24167  1.0000
  Fe  Fe108     1.0  0.60297  0.27106  0.20464  1.0000
  S   S208      1.0  0.59478  0.32534  0.20362  1.0000
  S   S209      1.0  0.57842  0.28564  0.18858  1.0000
  Fe  Fe109     1.0  0.56082  0.37577  0.03537  1.0000
  H   H1284     1.0  0.47383  0.47157  0.49286  1.0000
  S   S210      1.0  0.55850  0.36988  0.07250  1.0000
  C   C1607     1.0  0.56055  0.26378  0.14481  1.0000
  S   S211      1.0  0.60149  0.40815  0.50191  1.0000
  S   S212      1.0  0.55176  0.40507  0.02440  1.0000
  Fe  Fe110     1.0  0.37446  0.45505  0.03962  1.0000
  H   H1285     1.0  0.55994  0.44949  0.09125  1.0000
  S   S213      1.0  0.35160  0.45860  0.06591  1.0000
  H   H1286     1.0  0.58375  0.43680  0.03369  1.0000
  C   C1608     1.0  0.55989  0.30408  0.29464  1.0000
  C   C1609     1.0  0.49081  0.27091  0.38710  1.0000
  C   C1610     1.0  0.34870  0.47881  0.24146  1.0000
  C   C1611     1.0  0.59687  0.36803  0.24118  1.0000
  S   S214      1.0  0.40520  0.45818  0.04212  1.0000
  S   S215      1.0  0.37692  0.42965  0.01938  1.0000
  C   C1612     1.0  0.60470  0.47839  0.02823  1.0000
  H   H1287     1.0  0.61633  0.38531  0.32716  1.0000
  S   S216      1.0  0.48075  0.34141  0.45866  1.0000
  H   H1288     1.0  0.53375  0.44505  0.03009  1.0000
  Fe  Fe111     1.0  0.43475  0.30807  0.34757  1.0000
  S   S217      1.0  0.40744  0.29713  0.33811  1.0000
  S   S218      1.0  0.43344  0.32972  0.37420  1.0000
  Fe  Fe112     1.0  0.45600  0.28910  0.31003  1.0000
  S   S219      1.0  0.43008  0.27713  0.29817  1.0000
  S   S220      1.0  0.48417  0.28049  0.29383  1.0000
  Fe  Fe113     1.0  0.41586  0.30519  0.30373  1.0000
  S   S221      1.0  0.39597  0.31584  0.27702  1.0000
  Fe  Fe114     1.0  0.42301  0.26963  0.33325  1.0000
  S   S222      1.0  0.44241  0.31763  0.31313  1.0000
  S   S223      1.0  0.44983  0.28003  0.34516  1.0000
  C   C1613     1.0  0.35640  0.36730  0.26425  1.0000
  C   C1614     1.0  0.35936  0.35365  0.24867  1.0000
  C   C1615     1.0  0.37149  0.33805  0.25285  1.0000
  C   C1616     1.0  0.38093  0.33590  0.27255  1.0000
  C   C1617     1.0  0.37803  0.34957  0.28802  1.0000
  C   C1618     1.0  0.36592  0.36515  0.28387  1.0000
  H   H1289     1.0  0.35206  0.35494  0.23358  1.0000
  H   H1290     1.0  0.37347  0.32752  0.24078  1.0000
  H   H1291     1.0  0.38507  0.34806  0.30324  1.0000
  H   H1292     1.0  0.35547  0.48925  0.47343  1.0000
  C   C1619     1.0  0.46703  0.33792  0.43567  1.0000
  C   C1620     1.0  0.47183  0.32307  0.42192  1.0000
  C   C1621     1.0  0.46154  0.32006  0.40329  1.0000
  C   C1622     1.0  0.44640  0.33201  0.39807  1.0000
  C   C1623     1.0  0.44164  0.34683  0.41181  1.0000
  C   C1624     1.0  0.45181  0.34974  0.43052  1.0000
  H   H1293     1.0  0.48355  0.31383  0.42575  1.0000
  H   H1294     1.0  0.46539  0.30867  0.39283  1.0000
  H   H1295     1.0  0.43001  0.35619  0.40793  1.0000
  H   H1296     1.0  0.44795  0.36122  0.44087  1.0000
  H   H1297     1.0  0.49747  0.33543  0.38312  1.0000
  C   C1625     1.0  0.35105  0.44624  0.09130  1.0000
  C   C1626     1.0  0.35586  0.33176  0.34349  1.0000
  H   H1298     1.0  0.42801  0.46305  0.47732  1.0000
  H   H1299     1.0  0.46899  0.45182  0.46192  1.0000
  C   C1627     1.0  0.36527  0.43346  0.09719  1.0000
  C   C1628     1.0  0.64502  0.45933  0.38533  1.0000
  H   H1300     1.0  0.54768  0.35406  0.40443  1.0000
  H   H1301     1.0  0.37708  0.43108  0.08619  1.0000
  C   C1629     1.0  0.61700  0.25776  0.13857  1.0000
  H   H1302     1.0  0.55438  0.48346  0.08947  1.0000
  C   C1630     1.0  0.60405  0.35623  0.28419  1.0000
  H   H1303     1.0  0.37025  0.30203  0.31252  1.0000
  C   C1631     1.0  0.60925  0.37746  0.25331  1.0000
  H   H1304     1.0  0.58503  0.33470  0.27860  1.0000
  H   H1305     1.0  0.59048  0.46436  0.05493  1.0000
  C   C1632     1.0  0.36250  0.29097  0.32025  1.0000
  C   C1633     1.0  0.60063  0.31328  0.32962  1.0000
  C   C1634     1.0  0.59169  0.34680  0.27184  1.0000
  C   C1635     1.0  0.53053  0.30569  0.24978  1.0000
  C   C1636     1.0  0.53178  0.28716  0.25721  1.0000
  C   C1637     1.0  0.51750  0.27983  0.27069  1.0000
  C   C1638     1.0  0.50170  0.29081  0.27687  1.0000
  C   C1639     1.0  0.50040  0.30937  0.26940  1.0000
  C   C1640     1.0  0.51473  0.31673  0.25598  1.0000
  H   H1306     1.0  0.54382  0.27848  0.25270  1.0000
  H   H1307     1.0  0.51871  0.26548  0.27635  1.0000
  H   H1308     1.0  0.48840  0.31804  0.27402  1.0000
  H   H1309     1.0  0.51359  0.33110  0.25037  1.0000
  C   C1641     1.0  0.58940  0.32925  0.12050  1.0000
  C   C1642     1.0  0.57680  0.34309  0.12805  1.0000
  C   C1643     1.0  0.56774  0.35550  0.11316  1.0000
  C   C1644     1.0  0.57102  0.35427  0.09050  1.0000
  C   C1645     1.0  0.58366  0.34046  0.08296  1.0000
  C   C1646     1.0  0.59276  0.32808  0.09786  1.0000
  H   H1310     1.0  0.57413  0.34428  0.14536  1.0000
  H   H1311     1.0  0.55806  0.36613  0.11925  1.0000
  H   H1312     1.0  0.58637  0.33927  0.06563  1.0000
  H   H1313     1.0  0.60248  0.31749  0.09176  1.0000
  C   C1647     1.0  0.65187  0.33838  0.25002  1.0000
  C   C1648     1.0  0.54329  0.26213  0.15547  1.0000
  C   C1649     1.0  0.38362  0.45437  0.49463  1.0000
  H   H1314     1.0  0.47433  0.34368  0.30821  1.0000
  S   S224      1.0  0.61663  0.45809  0.48765  1.0000
  H   H1315     1.0  0.40848  0.45920  0.41553  1.0000
  H   H1316     1.0  0.61225  0.26970  0.31241  1.0000
  C   C1650     1.0  0.53799  0.45350  0.04315  1.0000
  H   H1317     1.0  0.50011  0.32103  0.31544  1.0000
  C   C1651     1.0  0.35414  0.48850  0.25930  1.0000
  C   C1652     1.0  0.54696  0.44513  0.06098  1.0000
  H   H1318     1.0  0.65000  0.42625  0.44474  1.0000
  H   H1319     1.0  0.56980  0.49764  0.03110  1.0000
  H   H1320     1.0  0.45956  0.36166  0.33840  1.0000
  H   H1321     1.0  0.54401  0.37381  0.32813  1.0000
  C   C1653     1.0  0.34588  0.48665  0.40373  1.0000
  C   C1654     1.0  0.57156  0.36241  0.32113  1.0000
  H   H1322     1.0  0.49177  0.42632  0.45283  1.0000
  H   H1323     1.0  0.60698  0.26801  0.14497  1.0000
  C   C1655     1.0  0.48622  0.45517  0.01974  1.0000
  H   H1324     1.0  0.39298  0.32605  0.37639  1.0000
  H   H1325     1.0  0.55091  0.33201  0.28559  1.0000
  Fe  Fe115     1.0  0.64777  0.45599  0.48443  1.0000
  C   C1656     1.0  0.42952  0.46174  0.49475  1.0000
  H   H1326     1.0  0.34592  0.46419  0.24332  1.0000
  H   H1327     1.0  0.34759  0.35788  0.32739  1.0000
  C   C1657     1.0  0.46534  0.39845  0.02657  1.0000
  C   C1658     1.0  0.36859  0.32307  0.35778  1.0000
  C   C1659     1.0  0.58888  0.35705  0.32961  1.0000
  H   H1328     1.0  0.39604  0.35910  0.36570  1.0000
  C   C1660     1.0  0.50954  0.43159  0.47917  1.0000
  C   C1661     1.0  0.53473  0.47276  0.04203  1.0000
  C   C1662     1.0  0.51225  0.44257  0.49698  1.0000
  H   H1329     1.0  0.50968  0.31392  0.45692  1.0000
  H   H1330     1.0  0.51905  0.41986  0.47592  1.0000
  H   H1331     1.0  0.36383  0.37561  0.29600  1.0000
  C   C1663     1.0  0.38463  0.35166  0.35978  1.0000
  H   H1332     1.0  0.53977  0.38238  0.49945  1.0000
  C   C1664     1.0  0.45419  0.47289  0.03735  1.0000
  H   H1333     1.0  0.51808  0.28205  0.44519  1.0000
  C   C1665     1.0  0.55837  0.28953  0.31008  1.0000
  H   H1334     1.0  0.63637  0.45365  0.39843  1.0000
  C   C1666     1.0  0.38294  0.33297  0.36579  1.0000
  C   C1667     1.0  0.56017  0.37133  0.35698  1.0000
  C   C1668     1.0  0.57726  0.36572  0.36560  1.0000
  C   C1669     1.0  0.59154  0.35853  0.35201  1.0000
  H   H1335     1.0  0.54920  0.37716  0.36747  1.0000
  H   H1336     1.0  0.62283  0.37889  0.28357  1.0000
  H   H1337     1.0  0.60475  0.35435  0.35892  1.0000
  C   C1670     1.0  0.36596  0.49694  0.16061  1.0000
  C   C1671     1.0  0.40371  0.43089  0.45018  1.0000
  H   H1338     1.0  0.59442  0.37233  0.22442  1.0000
  C   C1672     1.0  0.53621  0.33528  0.38244  1.0000
  C   C1673     1.0  0.56530  0.28082  0.13526  1.0000
  H   H1339     1.0  0.56908  0.36138  0.30398  1.0000
  C   C1674     1.0  0.53079  0.27751  0.15660  1.0000
  C   C1675     1.0  0.53572  0.29481  0.14755  1.0000
  C   C1676     1.0  0.55299  0.29628  0.13671  1.0000
  P   P55       1.0  0.51951  0.31460  0.14713  1.0000
  C   C1677     1.0  0.52954  0.33447  0.15834  1.0000
  C   C1678     1.0  0.51429  0.31815  0.11869  1.0000
  C   C1679     1.0  0.52388  0.33109  0.10558  1.0000
  C   C1680     1.0  0.52062  0.33310  0.08333  1.0000
  C   C1681     1.0  0.50801  0.32197  0.07385  1.0000
  C   C1682     1.0  0.49887  0.30859  0.08659  1.0000
  C   C1683     1.0  0.50218  0.30651  0.10888  1.0000
  C   C1684     1.0  0.54262  0.33205  0.17468  1.0000
  C   C1685     1.0  0.54932  0.34748  0.18453  1.0000
  C   C1686     1.0  0.54321  0.36540  0.17798  1.0000
  C   C1687     1.0  0.53000  0.36790  0.16193  1.0000
  C   C1688     1.0  0.52295  0.35249  0.15239  1.0000
  C   C1689     1.0  0.49950  0.31073  0.16481  1.0000
  C   C1690     1.0  0.50201  0.30518  0.18671  1.0000
  C   C1691     1.0  0.48669  0.30220  0.20067  1.0000
  C   C1692     1.0  0.46878  0.30492  0.19294  1.0000
  C   C1693     1.0  0.46615  0.31122  0.17147  1.0000
  C   C1694     1.0  0.48145  0.31434  0.15750  1.0000
  C   C1695     1.0  0.66452  0.41653  0.41561  1.0000
  H   H1340     1.0  0.51734  0.27574  0.16439  1.0000
  H   H1341     1.0  0.55691  0.30936  0.12917  1.0000
  H   H1342     1.0  0.53422  0.33940  0.11230  1.0000
  H   H1343     1.0  0.52814  0.34314  0.07337  1.0000
  H   H1344     1.0  0.50562  0.32352  0.05655  1.0000
  H   H1345     1.0  0.48944  0.29967  0.07910  1.0000
  H   H1346     1.0  0.49550  0.29566  0.11837  1.0000
  H   H1347     1.0  0.54751  0.31829  0.18007  1.0000
  H   H1348     1.0  0.55924  0.34549  0.19730  1.0000
  H   H1349     1.0  0.54873  0.37730  0.18537  1.0000
  H   H1350     1.0  0.52527  0.38178  0.15681  1.0000
  H   H1351     1.0  0.51244  0.35467  0.14031  1.0000
  H   H1352     1.0  0.51583  0.30307  0.19301  1.0000
  H   H1353     1.0  0.48877  0.29774  0.21750  1.0000
  H   H1354     1.0  0.45691  0.30242  0.20365  1.0000
  H   H1355     1.0  0.45223  0.31373  0.16566  1.0000
  H   H1356     1.0  0.47908  0.31970  0.14114  1.0000
  H   H1357     1.0  0.33999  0.41303  0.07137  1.0000
  C   C1696     1.0  0.64474  0.38354  0.33628  1.0000
  H   H1358     1.0  0.49822  0.44766  0.01300  1.0000
  H   H1359     1.0  0.37299  0.37507  0.34138  1.0000
  H   H1360     1.0  0.54155  0.28811  0.38657  1.0000
  H   H1361     1.0  0.64467  0.39774  0.34153  1.0000
  H   H1362     1.0  0.54560  0.28022  0.34027  1.0000
  C   C1697     1.0  0.37326  0.42632  0.43655  1.0000
  C   C1698     1.0  0.37878  0.46810  0.17632  1.0000
  P   P56       1.0  0.60784  0.34874  0.31210  1.0000
  C   C1699     1.0  0.36219  0.48001  0.48532  1.0000
  C   C1700     1.0  0.51974  0.27060  0.47797  1.0000
  H   H1363     1.0  0.48453  0.26881  0.40319  1.0000
  H   H1364     1.0  0.60226  0.25396  0.10933  1.0000
  C   C1701     1.0  0.64542  0.34694  0.32247  1.0000
  H   H1365     1.0  0.53820  0.47292  0.49930  1.0000
  H   H1366     1.0  0.43305  0.48004  0.40295  1.0000
  C   C1702     1.0  0.49419  0.43522  0.46620  1.0000
  H   H1367     1.0  0.34050  0.48077  0.20824  1.0000
  H   H1368     1.0  0.61649  0.38902  0.24591  1.0000
  C   C1703     1.0  0.51004  0.30657  0.49115  1.0000
  C   C1704     1.0  0.50562  0.27716  0.34501  1.0000
  H   H1369     1.0  0.41777  0.48932  0.50053  1.0000
  H   H1370     1.0  0.36044  0.44542  0.17861  1.0000
  C   C1705     1.0  0.55007  0.32094  0.29789  1.0000
  H   H1371     1.0  0.36764  0.30856  0.36261  1.0000
  H   H1372     1.0  0.39349  0.44333  0.49016  1.0000
  C   C1706     1.0  0.60952  0.32368  0.31296  1.0000
  C   C1707     1.0  0.62878  0.37642  0.32817  1.0000
  H   H1373     1.0  0.50251  0.48709  0.06124  1.0000
  Fe  Fe116     1.0  0.40778  0.43392  0.02001  1.0000
  H   H1374     1.0  0.65597  0.38465  0.23793  1.0000
  C   C1708     1.0  0.59712  0.44706  0.00418  1.0000
  C   C1709     1.0  0.34710  0.47009  0.16455  1.0000
  C   C1710     1.0  0.41956  0.30394  0.23073  1.0000
  C   C1711     1.0  0.43401  0.29455  0.24170  1.0000
  C   C1712     1.0  0.44844  0.30443  0.24950  1.0000
  C   C1713     1.0  0.44836  0.32372  0.24645  1.0000
  C   C1714     1.0  0.43374  0.33331  0.23570  1.0000
  C   C1715     1.0  0.41934  0.32327  0.22785  1.0000
  P   P57       1.0  0.43318  0.35837  0.23343  1.0000
  C   C1716     1.0  0.42579  0.36821  0.25920  1.0000
  C   C1717     1.0  0.45636  0.36495  0.22554  1.0000
  C   C1718     1.0  0.46718  0.35404  0.21098  1.0000
  C   C1719     1.0  0.48546  0.35838  0.20557  1.0000
  C   C1720     1.0  0.49301  0.37379  0.21447  1.0000
  C   C1721     1.0  0.48227  0.38489  0.22873  1.0000
  C   C1722     1.0  0.46402  0.38049  0.23430  1.0000
  C   C1723     1.0  0.41919  0.38682  0.25992  1.0000
  C   C1724     1.0  0.41278  0.39431  0.27962  1.0000
  C   C1725     1.0  0.41317  0.38339  0.29882  1.0000
  C   C1726     1.0  0.41989  0.36494  0.29830  1.0000
  C   C1727     1.0  0.42595  0.35731  0.27855  1.0000
  C   C1728     1.0  0.41702  0.36680  0.21307  1.0000
  C   C1729     1.0  0.42297  0.37055  0.19144  1.0000
  C   C1730     1.0  0.41032  0.37765  0.17613  1.0000
  C   C1731     1.0  0.39169  0.38101  0.18228  1.0000
  C   C1732     1.0  0.38566  0.37713  0.20370  1.0000
  C   C1733     1.0  0.39824  0.36999  0.21899  1.0000
  H   H1375     1.0  0.40803  0.29635  0.22543  1.0000
  Fe  Fe117     1.0  0.45739  0.39953  0.49997  1.0000
  H   H1376     1.0  0.45947  0.29715  0.25835  1.0000
  H   H1377     1.0  0.45945  0.33120  0.25302  1.0000
  H   H1378     1.0  0.40759  0.33032  0.22021  1.0000
  H   H1379     1.0  0.46152  0.34209  0.20393  1.0000
  H   H1380     1.0  0.49383  0.34970  0.19462  1.0000
  H   H1381     1.0  0.50722  0.37707  0.21035  1.0000
  H   H1382     1.0  0.48814  0.39685  0.23561  1.0000
  H   H1383     1.0  0.45603  0.38914  0.24555  1.0000
  H   H1384     1.0  0.41860  0.39543  0.24515  1.0000
  H   H1385     1.0  0.40717  0.40849  0.27994  1.0000
  H   H1386     1.0  0.40792  0.38908  0.31402  1.0000
  H   H1387     1.0  0.41973  0.35629  0.31309  1.0000
  H   H1388     1.0  0.43016  0.34277  0.27840  1.0000
  H   H1389     1.0  0.43732  0.36819  0.18635  1.0000
  H   H1390     1.0  0.41493  0.38068  0.15949  1.0000
  H   H1391     1.0  0.38189  0.38669  0.17051  1.0000
  H   H1392     1.0  0.37121  0.37979  0.20852  1.0000
  H   H1393     1.0  0.39331  0.36718  0.23554  1.0000
  H   H1394     1.0  0.50598  0.32058  0.49585  1.0000
  H   H1395     1.0  0.64808  0.36520  0.45890  1.0000
  C   C1734     1.0  0.62893  0.35798  0.32140  1.0000
  H   H1396     1.0  0.56251  0.32901  0.42728  1.0000
  H   H1397     1.0  0.57265  0.38595  0.48722  1.0000
  C   C1735     1.0  0.54953  0.47530  0.07654  1.0000
  C   C1736     1.0  0.49552  0.26140  0.34985  1.0000
  C   C1737     1.0  0.34170  0.46509  0.44208  1.0000
  C   C1738     1.0  0.37449  0.46546  0.47871  1.0000
  H   H1398     1.0  0.57864  0.28223  0.12694  1.0000
  C   C1739     1.0  0.58798  0.35279  0.25052  1.0000
  C   C1740     1.0  0.36019  0.25828  0.32960  1.0000
  C   C1741     1.0  0.61940  0.31439  0.29628  1.0000
  H   H1399     1.0  0.33986  0.45682  0.45696  1.0000
  H   H1400     1.0  0.36849  0.39860  0.42661  1.0000
  H   H1401     1.0  0.34742  0.49523  0.38900  1.0000
  H   H1402     1.0  0.33365  0.32764  0.38023  1.0000
  H   H1403     1.0  0.63401  0.25852  0.16618  1.0000
  C   C1742     1.0  0.41030  0.47183  0.42410  1.0000
  C   C1743     1.0  0.48423  0.46086  0.48887  1.0000
  C   C1744     1.0  0.38592  0.43810  0.44516  1.0000
  H   H1404     1.0  0.41372  0.43965  0.45686  1.0000
  S   S225      1.0  0.37279  0.47459  0.01034  1.0000
  C   C1745     1.0  0.47696  0.44727  0.03787  1.0000
  C   C1746     1.0  0.46081  0.45598  0.04648  1.0000
  C   C1747     1.0  0.59492  0.46374  0.03798  1.0000
  C   C1748     1.0  0.56671  0.39431  0.50020  1.0000
  C   C1749     1.0  0.45158  0.41036  0.01732  1.0000
  C   C1750     1.0  0.39859  0.47654  0.44196  1.0000
  C   C1751     1.0  0.61285  0.37162  0.27475  1.0000
  H   H1405     1.0  0.39989  0.38606  0.43606  1.0000
  C   C1752     1.0  0.42416  0.48368  0.41683  1.0000
  H   H1406     1.0  0.35825  0.48532  0.11490  1.0000
  C   C1753     1.0  0.36149  0.48057  0.41529  1.0000
  S   S226      1.0  0.60966  0.49766  0.04377  1.0000
  S   S227      1.0  0.34056  0.38690  0.26067  1.0000
  C   C1754     1.0  0.34568  0.48821  0.22159  1.0000
  H   H1407     1.0  0.35949  0.43144  0.43242  1.0000
  C   C1755     1.0  0.55273  0.45602  0.07764  1.0000
  C   C1756     1.0  0.61151  0.28473  0.31265  1.0000
  C   C1757     1.0  0.40103  0.49320  0.45244  1.0000
  S   S228      1.0  0.58643  0.37533  0.01326  1.0000
  C   C1758     1.0  0.51682  0.28489  0.46239  1.0000
  H   H1408     1.0  0.48189  0.43395  0.04464  1.0000
  H   H1409     1.0  0.45320  0.44940  0.05989  1.0000
  C   C1759     1.0  0.36195  0.45987  0.17373  1.0000
  H   H1410     1.0  0.42235  0.40674  0.45132  1.0000
  H   H1411     1.0  0.50235  0.29666  0.39483  1.0000
  C   C1760     1.0  0.34890  0.48881  0.15808  1.0000
  H   H1412     1.0  0.44152  0.47961  0.04374  1.0000
  C   C1761     1.0  0.55471  0.32556  0.41332  1.0000
  H   H1413     1.0  0.65869  0.45146  0.33290  1.0000
  H   H1414     1.0  0.59278  0.32006  0.34261  1.0000
  C   C1762     1.0  0.38081  0.48661  0.16971  1.0000
  C   C1763     1.0  0.51207  0.30285  0.46899  1.0000
  Fe  Fe118     1.0  0.47494  0.36221  0.48576  1.0000
  H   H1415     1.0  0.46200  0.39012  0.04101  1.0000
  H   H1416     1.0  0.64615  0.33285  0.31694  1.0000
  C   C1764     1.0  0.37171  0.36058  0.34609  1.0000
  H   H1417     1.0  0.54965  0.43021  0.06183  1.0000
  C   C1765     1.0  0.36419  0.42363  0.11735  1.0000
  C   C1766     1.0  0.40868  0.41220  0.44697  1.0000
  C   C1767     1.0  0.46353  0.48092  0.01941  1.0000
  H   H1418     1.0  0.43378  0.27966  0.24465  1.0000
  C   C1768     1.0  0.55300  0.30700  0.40820  1.0000
  H   H1419     1.0  0.59482  0.28586  0.34230  1.0000
  C   C1769     1.0  0.53382  0.31666  0.37771  1.0000
  C   C1770     1.0  0.54271  0.30255  0.39037  1.0000
  P   P58       1.0  0.52048  0.31079  0.35480  1.0000
  C   C1771     1.0  0.50178  0.32762  0.34946  1.0000
  C   C1772     1.0  0.53642  0.30843  0.33164  1.0000
  C   C1773     1.0  0.53865  0.32325  0.31651  1.0000
  C   C1774     1.0  0.65817  0.37142  0.24644  1.0000
  C   C1775     1.0  0.34330  0.26209  0.34064  1.0000
  C   C1776     1.0  0.49460  0.32959  0.32851  1.0000
  C   C1777     1.0  0.47982  0.34227  0.32440  1.0000
  C   C1778     1.0  0.47156  0.35246  0.34135  1.0000
  C   C1779     1.0  0.47822  0.35013  0.36237  1.0000
  C   C1780     1.0  0.49315  0.33763  0.36650  1.0000
  C   C1781     1.0  0.50868  0.28974  0.36128  1.0000
  C   C1782     1.0  0.65669  0.25624  0.21632  1.0000
  H   H1420     1.0  0.47132  0.35748  0.37568  1.0000
  C   C1783     1.0  0.64622  0.45092  0.36518  1.0000
  H   H1421     1.0  0.53125  0.33646  0.31874  1.0000
  C   C1784     1.0  0.54679  0.29172  0.32861  1.0000
  C   C1785     1.0  0.48815  0.25824  0.37090  1.0000
  C   C1786     1.0  0.34556  0.29496  0.33136  1.0000
  C   C1787     1.0  0.55727  0.36949  0.33481  1.0000
  C   C1788     1.0  0.66175  0.38970  0.46729  1.0000
  H   H1422     1.0  0.65462  0.48044  0.40496  1.0000
  C   C1789     1.0  0.66125  0.37167  0.45984  1.0000
  P   P59       1.0  0.37955  0.46219  0.45005  1.0000
  H   H1423     1.0  0.39029  0.45999  0.18321  1.0000
  H   H1424     1.0  0.47280  0.49117  0.45341  1.0000
  C   C1790     1.0  0.59106  0.44813  0.02598  1.0000
  H   H1425     1.0  0.57841  0.34539  0.24117  1.0000
  S   S229      1.0  0.48505  0.39135  0.48437  1.0000
  H   H1426     1.0  0.52331  0.25663  0.47286  1.0000
  H   H1427     1.0  0.38292  0.26973  0.31096  1.0000
  C   C1791     1.0  0.35729  0.35072  0.33811  1.0000
  C   C1792     1.0  0.54046  0.48380  0.05872  1.0000
  H   H1428     1.0  0.62634  0.32220  0.28337  1.0000
  C   C1793     1.0  0.62035  0.29502  0.29605  1.0000
  H   H1429     1.0  0.57955  0.36714  0.38279  1.0000
  H   H1430     1.0  0.52777  0.47905  0.02817  1.0000
  H   H1431     1.0  0.46962  0.49689  0.06611  1.0000
  H   H1432     1.0  0.37497  0.48457  0.40918  1.0000
  C   C1794     1.0  0.35951  0.46988  0.43470  1.0000
  H   H1433     1.0  0.63842  0.43877  0.36258  1.0000
  H   H1434     1.0  0.51051  0.27973  0.32838  1.0000
  C   C1795     1.0  0.48339  0.39717  0.01721  1.0000
  H   H1435     1.0  0.64005  0.35710  0.22577  1.0000
  C   C1796     1.0  0.61021  0.47755  0.00628  1.0000
  C   C1797     1.0  0.64907  0.35575  0.23948  1.0000
  S   S230      1.0  0.42893  0.41102  0.02916  1.0000
  C   C1798     1.0  0.34894  0.42648  0.13185  1.0000
  C   C1799     1.0  0.54637  0.33969  0.40041  1.0000
  C   C1800     1.0  0.60171  0.29385  0.32948  1.0000
  H   H1436     1.0  0.37526  0.41374  0.12174  1.0000
  C   C1801     1.0  0.47938  0.47195  0.01010  1.0000
  C   C1802     1.0  0.36970  0.27269  0.31928  1.0000
  C   C1803     1.0  0.50096  0.28666  0.38230  1.0000
  C   C1804     1.0  0.48144  0.44971  0.47121  1.0000
  H   H1437     1.0  0.62791  0.28810  0.28285  1.0000
  H   H1438     1.0  0.49386  0.38789  0.02439  1.0000
  H   H1439     1.0  0.53000  0.34638  0.37246  1.0000
  C   C1805     1.0  0.37832  0.40764  0.43320  1.0000
  H   H1440     1.0  0.39400  0.49284  0.17137  1.0000
  S   S231      1.0  0.54311  0.36246  0.01100  1.0000
  S   S232      1.0  0.34841  0.41361  0.15695  1.0000
  C   C1806     1.0  0.66096  0.37237  0.33762  1.0000
  C   C1807     1.0  0.65779  0.45795  0.34855  1.0000
  S   S233      1.0  0.44658  0.37075  0.49895  1.0000
  H   H1441     1.0  0.35553  0.48137  0.27500  1.0000
  H   H1442     1.0  0.45788  0.49378  0.01224  1.0000
  H   H1443     1.0  0.39216  0.49730  0.46612  1.0000
  P   P60       1.0  0.33716  0.31882  0.33367  1.0000
  H   H1444     1.0  0.64895  0.39718  0.47202  1.0000
  C   C1808     1.0  0.51791  0.27429  0.50017  1.0000
  H   H1445     1.0  0.57029  0.25192  0.14411  1.0000
  C   C1809     1.0  0.66058  0.42912  0.43239  1.0000
  H   H1446     1.0  0.55960  0.29606  0.41811  1.0000
  C   C1810     1.0  0.65559  0.47460  0.38901  1.0000
  C   C1811     1.0  0.33468  0.43927  0.12595  1.0000
  Fe  Fe119     1.0  0.40363  0.47529  0.01090  1.0000
  H   H1447     1.0  0.56590  0.27643  0.30739  1.0000
  H   H1448     1.0  0.65708  0.40387  0.41538  1.0000
  C   C1812     1.0  0.33576  0.44911  0.10576  1.0000
  H   H1449     1.0  0.64856  0.25246  0.23079  1.0000
  H   H1450     1.0  0.33607  0.25088  0.34880  1.0000
  C   C1813     1.0  0.42626  0.50039  0.42715  1.0000
  C   C1814     1.0  0.33394  0.31884  0.28821  1.0000
  H   H1451     1.0  0.64352  0.50034  0.10930  1.0000
  H   H1452     1.0  0.33421  0.43056  0.03704  1.0000
  C   C1815     1.0  0.49992  0.45768  0.50157  1.0000
  C   C1816     1.0  0.66507  0.27331  0.21479  1.0000
  H   H1453     1.0  0.66559  0.49830  0.13915  1.0000
  H   H1454     1.0  0.66357  0.28277  0.22817  1.0000
  H   H1455     1.0  0.49278  0.25206  0.33699  1.0000
  C   C1817     1.0  0.66390  0.33708  0.26770  1.0000
  S   S234      1.0  0.33569  0.42667  0.21692  1.0000
  C   C1818     1.0  0.33596  0.28036  0.34152  1.0000
  C   C1819     1.0  0.63255  0.25243  0.15058  1.0000
  H   H1456     1.0  0.33438  0.46316  0.16247  1.0000
  C   C1820     1.0  0.35070  0.49661  0.10654  1.0000
  H   H1457     1.0  0.36710  0.49335  0.07687  1.0000
  S   S235      1.0  0.66499  0.46210  0.45331  1.0000
  Fe  Fe120     1.0  0.62049  0.47333  0.51841  1.0000
  S   S236      1.0  0.62146  0.44751  0.54027  1.0000
  S   S237      1.0  0.41746  0.49317  0.54781  1.0000
  H   H1458     1.0  0.38829  0.44981  0.52887  1.0000
  H   H1459     1.0  0.47661  0.30993  0.51331  1.0000
  Fe  Fe121     1.0  0.65233  0.44673  0.53333  1.0000
  H   H1460     1.0  0.39666  0.47586  0.89931  1.0000
  H   H1461     1.0  0.48447  0.49002  0.56206  1.0000
  S   S238      1.0  0.55982  0.39190  0.97433  1.0000
  C   C1821     1.0  0.64950  0.49265  0.93472  1.0000
  Fe  Fe122     1.0  0.56826  0.36384  0.98810  1.0000
  S   S239      1.0  0.58004  0.33994  0.96734  1.0000
  H   H1462     1.0  0.52021  0.26297  0.51185  1.0000
  Fe  Fe123     1.0  0.58587  0.30750  0.84150  1.0000
  S   S240      1.0  0.61618  0.29884  0.83913  1.0000
  S   S241      1.0  0.57218  0.32816  0.86530  1.0000
  Fe  Fe124     1.0  0.57668  0.28767  0.80010  1.0000
  S   S242      1.0  0.60650  0.27735  0.79547  1.0000
  S   S243      1.0  0.55816  0.28190  0.77148  1.0000
  Fe  Fe125     1.0  0.60623  0.27056  0.83144  1.0000
  Fe  Fe126     1.0  0.61461  0.30615  0.80328  1.0000
  S   S244      1.0  0.63785  0.31730  0.78049  1.0000
  S   S245      1.0  0.57575  0.27884  0.83586  1.0000
  S   S246      1.0  0.58489  0.31676  0.80594  1.0000
  H   H1463     1.0  0.60223  0.36512  0.91109  1.0000
  S   S247      1.0  0.35823  0.45239  0.96100  1.0000
  C   C1822     1.0  0.44654  0.46528  0.94828  1.0000
  H   H1464     1.0  0.50044  0.25993  0.55061  1.0000
  Fe  Fe127     1.0  0.45341  0.28880  0.72454  1.0000
  S   S248      1.0  0.42270  0.28555  0.73014  1.0000
  S   S249      1.0  0.47084  0.28409  0.75516  1.0000
  Fe  Fe128     1.0  0.44773  0.30125  0.67662  1.0000
  S   S250      1.0  0.41669  0.29925  0.67943  1.0000
  S   S251      1.0  0.46602  0.31044  0.64731  1.0000
  Fe  Fe129     1.0  0.41821  0.31289  0.71209  1.0000
  S   S252      1.0  0.40248  0.33957  0.72435  1.0000
  Fe  Fe130     1.0  0.42326  0.27181  0.69750  1.0000
  S   S253      1.0  0.44900  0.31667  0.70774  1.0000
  S   S254      1.0  0.45420  0.27329  0.69324  1.0000
  Fe  Fe131     1.0  0.45875  0.36583  0.53217  1.0000
  C   C1823     1.0  0.56451  0.46594  0.54383  1.0000
  S   S255      1.0  0.44096  0.35168  0.55871  1.0000
  C   C1824     1.0  0.65633  0.48381  0.60131  1.0000
  S   S256      1.0  0.51775  0.39927  0.53509  1.0000
  H   H1465     1.0  0.58651  0.39156  0.88451  1.0000
  C   C1825     1.0  0.65519  0.35384  0.88297  1.0000
  S   S257      1.0  0.46702  0.39534  0.53395  1.0000
  C   C1826     1.0  0.65525  0.48615  0.97306  1.0000
  H   H1466     1.0  0.43178  0.46367  0.95069  1.0000
  C   C1827     1.0  0.65220  0.38546  0.84202  1.0000
  C   C1828     1.0  0.54994  0.26715  0.57038  1.0000
  C   C1829     1.0  0.42530  0.47509  0.53051  1.0000
  C   C1830     1.0  0.65502  0.47381  0.65700  1.0000
  C   C1831     1.0  0.43887  0.44366  0.52663  1.0000
  H   H1467     1.0  0.61439  0.48917  0.87468  1.0000
  C   C1832     1.0  0.62875  0.40663  0.93081  1.0000
  H   H1468     1.0  0.61463  0.40154  0.96178  1.0000
  H   H1469     1.0  0.44973  0.47381  0.98081  1.0000
  C   C1833     1.0  0.45866  0.32264  0.62326  1.0000
  C   C1834     1.0  0.47206  0.32990  0.60859  1.0000
  C   C1835     1.0  0.46685  0.33919  0.58901  1.0000
  C   C1836     1.0  0.44817  0.34119  0.58379  1.0000
  C   C1837     1.0  0.43475  0.33424  0.59862  1.0000
  C   C1838     1.0  0.43994  0.32502  0.61825  1.0000
  H   H1470     1.0  0.48657  0.32822  0.61235  1.0000
  H   H1471     1.0  0.47724  0.34458  0.57778  1.0000
  H   H1472     1.0  0.42025  0.33580  0.59481  1.0000
  H   H1473     1.0  0.42946  0.31962  0.62940  1.0000
  C   C1839     1.0  0.35287  0.35888  0.76969  1.0000
  C   C1840     1.0  0.35415  0.34064  0.76200  1.0000
  C   C1841     1.0  0.36924  0.33439  0.74845  1.0000
  C   C1842     1.0  0.38337  0.34631  0.74224  1.0000
  C   C1843     1.0  0.38210  0.36455  0.74995  1.0000
  C   C1844     1.0  0.36709  0.37075  0.76365  1.0000
  C   C1845     1.0  0.65302  0.46230  0.67563  1.0000
  H   H1474     1.0  0.36980  0.32041  0.74254  1.0000
  H   H1475     1.0  0.39283  0.37399  0.74525  1.0000
  H   H1476     1.0  0.36643  0.38480  0.76934  1.0000
  C   C1846     1.0  0.35475  0.43843  0.93843  1.0000
  C   C1847     1.0  0.36240  0.42035  0.93705  1.0000
  H   H1477     1.0  0.34074  0.41152  0.75936  1.0000
  P   P61       1.0  0.51067  0.29720  0.53570  1.0000
  H   H1478     1.0  0.64789  0.42723  0.58426  1.0000
  H   H1479     1.0  0.37068  0.41453  0.95012  1.0000
  C   C1848     1.0  0.66137  0.49181  0.65865  1.0000
  C   C1849     1.0  0.53377  0.28391  0.76736  1.0000
  C   C1850     1.0  0.52069  0.28447  0.78466  1.0000
  C   C1851     1.0  0.50155  0.28465  0.78057  1.0000
  C   C1852     1.0  0.49516  0.28461  0.75916  1.0000
  C   C1853     1.0  0.50821  0.28444  0.74183  1.0000
  C   C1854     1.0  0.52737  0.28391  0.74593  1.0000
  H   H1480     1.0  0.52533  0.28435  0.80122  1.0000
  H   H1481     1.0  0.49161  0.28476  0.79411  1.0000
  H   H1482     1.0  0.50355  0.28445  0.72530  1.0000
  H   H1483     1.0  0.53731  0.28336  0.73240  1.0000
  C   C1855     1.0  0.64905  0.33857  0.77471  1.0000
  S   S258      1.0  0.40813  0.45113  0.98895  1.0000
  Fe  Fe132     1.0  0.53600  0.39169  0.99882  1.0000
  H   H1484     1.0  0.50239  0.28005  0.66806  1.0000
  C   C1856     1.0  0.64415  0.35496  0.78548  1.0000
  C   C1857     1.0  0.57040  0.38264  0.85854  1.0000
  C   C1858     1.0  0.42088  0.43650  0.60714  1.0000
  C   C1859     1.0  0.63634  0.35547  0.87808  1.0000
  C   C1860     1.0  0.57796  0.33714  0.93885  1.0000
  C   C1861     1.0  0.56711  0.34945  0.92600  1.0000
  C   C1862     1.0  0.56557  0.34647  0.90356  1.0000
  C   C1863     1.0  0.57491  0.33125  0.89363  1.0000
  C   C1864     1.0  0.58593  0.31905  0.90642  1.0000
  C   C1865     1.0  0.58741  0.32198  0.92888  1.0000
  H   H1485     1.0  0.55976  0.36115  0.93340  1.0000
  H   H1486     1.0  0.55697  0.35595  0.89386  1.0000
  H   H1487     1.0  0.59321  0.30730  0.89905  1.0000
  H   H1488     1.0  0.59587  0.31240  0.93866  1.0000
  H   H1489     1.0  0.62639  0.30979  0.88353  1.0000
  C   C1866     1.0  0.60985  0.37568  0.66485  1.0000
  H   H1490     1.0  0.39700  0.37191  0.67322  1.0000
  C   C1867     1.0  0.56995  0.41767  0.52692  1.0000
  C   C1868     1.0  0.55145  0.41536  0.53409  1.0000
  C   C1869     1.0  0.54045  0.40261  0.52429  1.0000
  H   H1491     1.0  0.57833  0.42734  0.53477  1.0000
  H   H1492     1.0  0.54567  0.42342  0.54742  1.0000
  H   H1493     1.0  0.47598  0.37784  0.96303  1.0000
  H   H1494     1.0  0.34327  0.33129  0.76641  1.0000
  C   C1870     1.0  0.40165  0.46197  0.90407  1.0000
  C   C1871     1.0  0.63862  0.39304  0.85649  1.0000
  C   C1872     1.0  0.54627  0.47760  0.98121  1.0000
  C   C1873     1.0  0.60653  0.46190  0.99435  1.0000
  P   P62       1.0  0.62514  0.37816  0.87443  1.0000
  H   H1495     1.0  0.64873  0.44820  0.67415  1.0000
  H   H1496     1.0  0.62909  0.49641  0.96102  1.0000
  H   H1497     1.0  0.47708  0.42754  0.97434  1.0000
  C   C1874     1.0  0.54807  0.39228  0.50707  1.0000
  H   H1498     1.0  0.53861  0.43263  0.97101  1.0000
  H   H1499     1.0  0.63323  0.35497  0.79791  1.0000
  S   S259      1.0  0.65140  0.47363  0.51354  1.0000
  C   C1875     1.0  0.58095  0.26440  0.92929  1.0000
  H   H1500     1.0  0.62344  0.41828  0.86574  1.0000
  C   C1876     1.0  0.65341  0.32046  0.88719  1.0000
  H   H1501     1.0  0.65612  0.45957  0.71034  1.0000
  H   H1502     1.0  0.44558  0.43028  0.99137  1.0000
  H   H1503     1.0  0.42314  0.42357  0.88267  1.0000
  Fe  Fe133     1.0  0.61939  0.43232  0.50906  1.0000
  S   S260      1.0  0.59347  0.42746  0.98858  1.0000
  C   C1877     1.0  0.52720  0.46968  0.53239  1.0000
  C   C1878     1.0  0.47601  0.47328  0.96259  1.0000
  C   C1879     1.0  0.45686  0.47108  0.96543  1.0000
  C   C1880     1.0  0.58052  0.32774  0.71143  1.0000
  C   C1881     1.0  0.58416  0.31869  0.73140  1.0000
  C   C1882     1.0  0.59820  0.32467  0.74416  1.0000
  C   C1883     1.0  0.60845  0.33984  0.73716  1.0000
  C   C1884     1.0  0.60487  0.34909  0.71718  1.0000
  C   C1885     1.0  0.59089  0.34282  0.70425  1.0000
  P   P63       1.0  0.61826  0.36875  0.70843  1.0000
  C   C1886     1.0  0.61976  0.38420  0.73083  1.0000
  H   H1504     1.0  0.49078  0.43457  0.53749  1.0000
  C   C1887     1.0  0.60592  0.38473  0.74746  1.0000
  C   C1888     1.0  0.60702  0.39677  0.76470  1.0000
  C   C1889     1.0  0.62173  0.40861  0.76527  1.0000
  C   C1890     1.0  0.63534  0.40843  0.74860  1.0000
  C   C1891     1.0  0.63445  0.39622  0.73151  1.0000
  C   C1892     1.0  0.60681  0.38132  0.68639  1.0000
  C   C1893     1.0  0.49978  0.25384  0.68564  1.0000
  H   H1505     1.0  0.65170  0.47956  0.87715  1.0000
  C   C1894     1.0  0.58904  0.40064  0.65196  1.0000
  C   C1895     1.0  0.58574  0.40619  0.67337  1.0000
  C   C1896     1.0  0.59456  0.39657  0.69055  1.0000
  H   H1506     1.0  0.56964  0.32302  0.70154  1.0000
  H   H1507     1.0  0.57614  0.30700  0.73703  1.0000
  H   H1508     1.0  0.60121  0.31749  0.75950  1.0000
  H   H1509     1.0  0.61922  0.34432  0.74736  1.0000
  H   H1510     1.0  0.58784  0.34955  0.68873  1.0000
  H   H1511     1.0  0.64957  0.38390  0.78861  1.0000
  H   H1512     1.0  0.59431  0.37579  0.74724  1.0000
  H   H1513     1.0  0.59655  0.39677  0.77773  1.0000
  H   H1514     1.0  0.55763  0.48655  0.98313  1.0000
  C   C1897     1.0  0.41055  0.45046  0.88876  1.0000
  H   H1515     1.0  0.64546  0.39607  0.71916  1.0000
  C   C1898     1.0  0.47393  0.41950  0.98905  1.0000
  H   H1516     1.0  0.33758  0.45967  0.92251  1.0000
  H   H1517     1.0  0.58229  0.40817  0.63864  1.0000
  C   C1899     1.0  0.48602  0.38762  0.58499  1.0000
  C   C1900     1.0  0.49758  0.39891  0.59587  1.0000
  C   C1901     1.0  0.49024  0.41009  0.61250  1.0000
  C   C1902     1.0  0.47126  0.41025  0.61792  1.0000
  C   C1903     1.0  0.45943  0.39945  0.60645  1.0000
  C   C1904     1.0  0.46707  0.38777  0.59037  1.0000
  P   P64       1.0  0.43485  0.39969  0.61302  1.0000
  C   C1905     1.0  0.43039  0.38292  0.63486  1.0000
  H   H1518     1.0  0.37838  0.37546  0.99757  1.0000
  C   C1906     1.0  0.41346  0.38393  0.64681  1.0000
  C   C1907     1.0  0.44041  0.35648  0.65776  1.0000
  C   C1908     1.0  0.44379  0.36897  0.64035  1.0000
  C   C1909     1.0  0.42250  0.39445  0.58896  1.0000
  C   C1910     1.0  0.40855  0.38151  0.59000  1.0000
  C   C1911     1.0  0.39928  0.37746  0.57122  1.0000
  C   C1912     1.0  0.40388  0.38623  0.55129  1.0000
  C   C1913     1.0  0.41777  0.39908  0.55008  1.0000
  C   C1914     1.0  0.42711  0.40309  0.56880  1.0000
  H   H1519     1.0  0.49165  0.37904  0.57198  1.0000
  H   H1520     1.0  0.51218  0.39906  0.59122  1.0000
  H   H1521     1.0  0.49926  0.41873  0.62104  1.0000
  H   H1522     1.0  0.46587  0.41895  0.63086  1.0000
  H   H1523     1.0  0.45833  0.37902  0.58166  1.0000
  C   C1915     1.0  0.63451  0.32206  0.88308  1.0000
  H   H1524     1.0  0.40286  0.39446  0.64273  1.0000
  H   H1525     1.0  0.45075  0.34572  0.66196  1.0000
  H   H1526     1.0  0.45678  0.36750  0.63115  1.0000
  H   H1527     1.0  0.40508  0.37410  0.60504  1.0000
  H   H1528     1.0  0.38892  0.36707  0.57199  1.0000
  H   H1529     1.0  0.42158  0.40558  0.53451  1.0000
  C   C1916     1.0  0.39527  0.28976  0.77529  1.0000
  C   C1917     1.0  0.40511  0.27299  0.77973  1.0000
  C   C1918     1.0  0.42232  0.27306  0.78944  1.0000
  C   C1919     1.0  0.42944  0.28983  0.79528  1.0000
  C   C1920     1.0  0.41920  0.30664  0.79183  1.0000
  C   C1921     1.0  0.40249  0.30654  0.78088  1.0000
  P   P65       1.0  0.42835  0.32826  0.79954  1.0000
  C   C1922     1.0  0.44093  0.32481  0.82434  1.0000
  C   C1923     1.0  0.44343  0.33557  0.77720  1.0000
  C   C1924     1.0  0.46160  0.32792  0.77520  1.0000
  C   C1925     1.0  0.47330  0.33346  0.75785  1.0000
  C   C1926     1.0  0.46685  0.34648  0.74221  1.0000
  C   C1927     1.0  0.44858  0.35370  0.74371  1.0000
  C   C1928     1.0  0.43687  0.34814  0.76103  1.0000
  C   C1929     1.0  0.45658  0.33502  0.82783  1.0000
  C   C1930     1.0  0.46652  0.33197  0.84686  1.0000
  C   C1931     1.0  0.46070  0.31897  0.86271  1.0000
  C   C1932     1.0  0.44476  0.30923  0.85969  1.0000
  C   C1933     1.0  0.43483  0.31221  0.84064  1.0000
  C   C1934     1.0  0.41033  0.34570  0.80572  1.0000
  C   C1935     1.0  0.39269  0.34061  0.81341  1.0000
  C   C1936     1.0  0.37879  0.35423  0.81785  1.0000
  C   C1937     1.0  0.38255  0.37299  0.81531  1.0000
  C   C1938     1.0  0.40025  0.37820  0.80853  1.0000
  C   C1939     1.0  0.41415  0.36462  0.80391  1.0000
  H   H1530     1.0  0.38236  0.28982  0.76679  1.0000
  Fe  Fe134     1.0  0.49430  0.38564  0.51857  1.0000
  Fe  Fe135     1.0  0.37714  0.44931  0.99006  1.0000
  H   H1531     1.0  0.44307  0.28968  0.80214  1.0000
  H   H1532     1.0  0.39512  0.31942  0.77648  1.0000
  H   H1533     1.0  0.46663  0.31728  0.78667  1.0000
  H   H1534     1.0  0.48714  0.32711  0.75614  1.0000
  H   H1535     1.0  0.47575  0.35034  0.72843  1.0000
  H   H1536     1.0  0.44321  0.36302  0.73101  1.0000
  H   H1537     1.0  0.42256  0.35330  0.76141  1.0000
  H   H1538     1.0  0.46123  0.34521  0.81577  1.0000
  H   H1539     1.0  0.47884  0.33958  0.84925  1.0000
  H   H1540     1.0  0.46853  0.31649  0.87736  1.0000
  H   H1541     1.0  0.44017  0.29924  0.87204  1.0000
  H   H1542     1.0  0.42250  0.30456  0.83854  1.0000
  H   H1543     1.0  0.38951  0.32617  0.81580  1.0000
  H   H1544     1.0  0.36495  0.35029  0.82288  1.0000
  H   H1545     1.0  0.37164  0.38346  0.81846  1.0000
  H   H1546     1.0  0.40309  0.39279  0.80661  1.0000
  H   H1547     1.0  0.42780  0.36891  0.79871  1.0000
  S   S261      1.0  0.48665  0.35561  0.51912  1.0000
  S   S262      1.0  0.59973  0.49609  0.52943  1.0000
  C   C1940     1.0  0.52261  0.27907  0.55153  1.0000
  C   C1941     1.0  0.40010  0.39303  0.98607  1.0000
  C   C1942     1.0  0.48644  0.29859  0.54422  1.0000
  C   C1943     1.0  0.52032  0.31917  0.54122  1.0000
  C   C1944     1.0  0.51424  0.32890  0.55972  1.0000
  C   C1945     1.0  0.52154  0.34597  0.56401  1.0000
  C   C1946     1.0  0.53507  0.35339  0.54995  1.0000
  C   C1947     1.0  0.54153  0.34361  0.53178  1.0000
  C   C1948     1.0  0.53433  0.32648  0.52750  1.0000
  C   C1949     1.0  0.52790  0.48453  0.98343  1.0000
  C   C1950     1.0  0.48769  0.40756  0.99828  1.0000
  C   C1951     1.0  0.44897  0.30158  0.55788  1.0000
  C   C1952     1.0  0.46233  0.29495  0.57245  1.0000
  C   C1953     1.0  0.48101  0.29362  0.56575  1.0000
  C   C1954     1.0  0.42891  0.42696  0.64394  1.0000
  H   H1548     1.0  0.63640  0.41792  0.93668  1.0000
  S   S263      1.0  0.34306  0.40246  0.88034  1.0000
  H   H1549     1.0  0.49927  0.47154  0.93945  1.0000
  H   H1550     1.0  0.50379  0.32341  0.57083  1.0000
  H   H1551     1.0  0.51659  0.35354  0.57813  1.0000
  H   H1552     1.0  0.54049  0.36680  0.55304  1.0000
  H   H1553     1.0  0.65501  0.37060  0.84149  1.0000
  H   H1554     1.0  0.66558  0.42498  0.81543  1.0000
  C   C1955     1.0  0.47073  0.38713  0.95019  1.0000
  C   C1956     1.0  0.65352  0.37136  0.78020  1.0000
  H   H1555     1.0  0.43460  0.30331  0.56333  1.0000
  C   C1957     1.0  0.51727  0.45407  0.97613  1.0000
  H   H1556     1.0  0.49116  0.28913  0.57760  1.0000
  H   H1557     1.0  0.56435  0.45354  0.97547  1.0000
  C   C1958     1.0  0.48157  0.47542  0.56309  1.0000
  C   C1959     1.0  0.34763  0.41690  0.90216  1.0000
  H   H1558     1.0  0.55758  0.37139  0.83101  1.0000
  H   H1559     1.0  0.48374  0.27132  0.63733  1.0000
  C   C1960     1.0  0.48458  0.46974  0.94219  1.0000
  C   C1961     1.0  0.42378  0.47671  0.50788  1.0000
  C   C1962     1.0  0.49649  0.49563  0.51804  1.0000
  C   C1963     1.0  0.35883  0.40966  0.91899  1.0000
  C   C1964     1.0  0.60361  0.37635  0.86082  1.0000
  C   C1965     1.0  0.58709  0.36572  0.83014  1.0000
  C   C1966     1.0  0.34360  0.44570  0.92156  1.0000
  C   C1967     1.0  0.38065  0.45795  0.51673  1.0000
  C   C1968     1.0  0.51323  0.47272  0.98103  1.0000
  H   H1560     1.0  0.41341  0.47222  0.64163  1.0000
  C   C1969     1.0  0.48875  0.46325  0.54721  1.0000
  C   C1970     1.0  0.48514  0.44432  0.54930  1.0000
  C   C1971     1.0  0.47419  0.43777  0.56679  1.0000
  C   C1972     1.0  0.46682  0.44998  0.58233  1.0000
  C   C1973     1.0  0.64708  0.47999  0.58249  1.0000
  C   C1974     1.0  0.61236  0.47848  0.88721  1.0000
  H   H1561     1.0  0.61124  0.34038  0.87570  1.0000
  H   H1562     1.0  0.44709  0.45706  0.91497  1.0000
  H   H1563     1.0  0.41098  0.46496  0.60260  1.0000
  H   H1564     1.0  0.62282  0.41770  0.77879  1.0000
  H   H1565     1.0  0.60366  0.38110  0.63110  1.0000
  P   P66       1.0  0.50317  0.47168  0.52486  1.0000
  C   C1975     1.0  0.61650  0.39740  0.94502  1.0000
  H   H1566     1.0  0.45825  0.29151  0.58919  1.0000
  C   C1976     1.0  0.64422  0.42377  0.84082  1.0000
  H   H1567     1.0  0.64702  0.41728  0.74925  1.0000
  H   H1568     1.0  0.55746  0.38820  0.86558  1.0000
  C   C1977     1.0  0.65166  0.37290  0.68498  1.0000
  H   H1569     1.0  0.47138  0.42320  0.56812  1.0000
  H   H1570     1.0  0.45819  0.44489  0.59572  1.0000
  H   H1571     1.0  0.61119  0.46119  0.97751  1.0000
  H   H1572     1.0  0.48094  0.46098  0.90949  1.0000
  H   H1573     1.0  0.44396  0.31274  0.52561  1.0000
  H   H1574     1.0  0.59553  0.46254  0.86711  1.0000
  H   H1575     1.0  0.50621  0.44472  0.97414  1.0000
  H   H1576     1.0  0.39705  0.38272  0.53666  1.0000
  P   P67       1.0  0.48935  0.48102  0.98473  1.0000
  C   C1978     1.0  0.60693  0.38253  0.93777  1.0000
  C   C1979     1.0  0.45427  0.30689  0.53660  1.0000
  C   C1980     1.0  0.42750  0.42264  0.62194  1.0000
  H   H1577     1.0  0.54757  0.29416  0.55482  1.0000
  Fe  Fe136     1.0  0.57603  0.40353  0.00080  1.0000
  H   H1578     1.0  0.42089  0.34761  0.68275  1.0000
  C   C1981     1.0  0.49708  0.26624  0.66790  1.0000
  C   C1982     1.0  0.66360  0.48651  0.69783  1.0000
  H   H1579     1.0  0.62236  0.46668  0.93988  1.0000
  H   H1580     1.0  0.65998  0.30692  0.89056  1.0000
  C   C1983     1.0  0.55048  0.46491  0.55994  1.0000
  H   H1581     1.0  0.41958  0.43380  0.59011  1.0000
  C   C1984     1.0  0.54143  0.47073  0.51630  1.0000
  C   C1985     1.0  0.42377  0.44475  0.65099  1.0000
  C   C1986     1.0  0.58127  0.26548  0.90654  1.0000
  S   S264      1.0  0.50976  0.40558  0.98505  1.0000
  C   C1987     1.0  0.34008  0.43503  0.90347  1.0000
  C   C1988     1.0  0.60587  0.45114  0.91958  1.0000
  C   C1989     1.0  0.59836  0.44979  0.89908  1.0000
  C   C1990     1.0  0.61682  0.46599  0.92384  1.0000
  H   H1582     1.0  0.34270  0.48803  0.75907  1.0000
  C   C1991     1.0  0.53188  0.46679  0.55428  1.0000
  H   H1583     1.0  0.60307  0.44075  0.93234  1.0000
  H   H1584     1.0  0.58987  0.43824  0.89589  1.0000
  H   H1585     1.0  0.41250  0.45547  0.87206  1.0000
  H   H1586     1.0  0.65199  0.46829  0.64148  1.0000
  H   H1587     1.0  0.49749  0.39780  0.94212  1.0000
  C   C1992     1.0  0.62035  0.47971  0.90762  1.0000
  H   H1588     1.0  0.61632  0.36098  0.83415  1.0000
  S   S265      1.0  0.34204  0.41311  0.81821  1.0000
  H   H1589     1.0  0.64746  0.41729  0.62336  1.0000
  C   C1993     1.0  0.45601  0.42104  0.99863  1.0000
  H   H1590     1.0  0.52126  0.46586  0.56703  1.0000
  C   C1994     1.0  0.35903  0.48334  0.50741  1.0000
  H   H1591     1.0  0.57452  0.27726  0.89810  1.0000
  H   H1592     1.0  0.36435  0.39554  0.91826  1.0000
  H   H1593     1.0  0.43433  0.45725  0.55722  1.0000
  C   C1995     1.0  0.48650  0.26133  0.65054  1.0000
  H   H1594     1.0  0.64137  0.40799  0.89882  1.0000
  C   C1996     1.0  0.38318  0.37393  0.96284  1.0000
  C   C1997     1.0  0.39361  0.38026  0.94475  1.0000
  C   C1998     1.0  0.40726  0.39325  0.94715  1.0000
  C   C1999     1.0  0.41049  0.39951  0.96803  1.0000
  P   P68       1.0  0.42056  0.40184  0.92375  1.0000
  C   C2000     1.0  0.44494  0.40061  0.92967  1.0000
  C   C2001     1.0  0.41682  0.38751  0.90089  1.0000
  C   C2002     1.0  0.42922  0.37259  0.89583  1.0000
  C   C2003     1.0  0.42568  0.36111  0.87868  1.0000
  C   C2004     1.0  0.40971  0.36431  0.86665  1.0000
  C   C2005     1.0  0.39728  0.37908  0.87166  1.0000
  C   C2006     1.0  0.40084  0.39068  0.88863  1.0000
  C   C2007     1.0  0.45185  0.38806  0.94575  1.0000
  H   H1595     1.0  0.34043  0.38570  0.97376  1.0000
  C   C2008     1.0  0.48288  0.39849  0.93846  1.0000
  C   C2009     1.0  0.47619  0.41087  0.92232  1.0000
  C   C2010     1.0  0.45730  0.41191  0.91788  1.0000
  C   C2011     1.0  0.41340  0.42553  0.91629  1.0000
  C   C2012     1.0  0.40454  0.43724  0.93156  1.0000
  C   C2013     1.0  0.39875  0.45539  0.92547  1.0000
  C   C2014     1.0  0.57046  0.37325  0.83901  1.0000
  H   H1596     1.0  0.36650  0.47554  0.54021  1.0000
  C   C2015     1.0  0.41647  0.43235  0.89484  1.0000
  H   H1597     1.0  0.61907  0.36382  0.66128  1.0000
  H   H1598     1.0  0.57893  0.46451  0.54816  1.0000
  H   H1599     1.0  0.37258  0.36406  0.96080  1.0000
  H   H1600     1.0  0.39080  0.37503  0.92898  1.0000
  H   H1601     1.0  0.42108  0.40934  0.97046  1.0000
  H   H1602     1.0  0.44149  0.36968  0.90521  1.0000
  H   H1603     1.0  0.43523  0.34959  0.87484  1.0000
  H   H1604     1.0  0.40688  0.35525  0.85359  1.0000
  H   H1605     1.0  0.38470  0.38149  0.86260  1.0000
  H   H1606     1.0  0.39092  0.40195  0.89235  1.0000
  H   H1607     1.0  0.44276  0.37902  0.95501  1.0000
  H   H1608     1.0  0.64938  0.46672  0.57496  1.0000
  C   C2016     1.0  0.33288  0.39916  0.72979  1.0000
  H   H1609     1.0  0.48567  0.41971  0.91338  1.0000
  H   H1610     1.0  0.45244  0.42152  0.90526  1.0000
  H   H1611     1.0  0.40153  0.43238  0.94803  1.0000
  H   H1612     1.0  0.44471  0.43102  0.53394  1.0000
  C   C2017     1.0  0.63134  0.40108  0.90926  1.0000
  C   C2018     1.0  0.47421  0.46383  0.92510  1.0000
  C   C2019     1.0  0.55012  0.45894  0.97679  1.0000
  H   H1613     1.0  0.59773  0.37510  0.94895  1.0000
  H   H1614     1.0  0.34974  0.49479  0.51226  1.0000
  H   H1615     1.0  0.43408  0.41660  0.65568  1.0000
  C   C2020     1.0  0.54065  0.28138  0.55848  1.0000
  C   C2021     1.0  0.60158  0.46346  0.88291  1.0000
  C   C2022     1.0  0.43305  0.45858  0.53977  1.0000
  C   C2023     1.0  0.60107  0.38538  0.64771  1.0000
  C   C2024     1.0  0.60946  0.37696  0.91627  1.0000
  C   C2025     1.0  0.62597  0.33948  0.87855  1.0000
  H   H1616     1.0  0.64099  0.43858  0.84010  1.0000
  H   H1617     1.0  0.43808  0.41280  0.56750  1.0000
  C   C2026     1.0  0.60361  0.36725  0.84099  1.0000
  C   C2027     1.0  0.65729  0.46865  0.69601  1.0000
  C   C2028     1.0  0.62141  0.38641  0.90172  1.0000
  C   C2029     1.0  0.41007  0.37124  0.66405  1.0000
  H   H1618     1.0  0.55406  0.46261  0.57680  1.0000
  H   H1619     1.0  0.34865  0.48881  0.70827  1.0000
  S   S266      1.0  0.65050  0.42922  0.50387  1.0000
  C   C2030     1.0  0.42355  0.35754  0.66951  1.0000
  C   C2031     1.0  0.47290  0.30538  0.52975  1.0000
  H   H1620     1.0  0.58709  0.35815  0.81522  1.0000
  H   H1621     1.0  0.59181  0.40107  0.70701  1.0000
  C   C2032     1.0  0.58693  0.38431  0.86938  1.0000
  C   C2033     1.0  0.41592  0.45433  0.61421  1.0000
  C   C2034     1.0  0.45518  0.46160  0.92815  1.0000
  C   C2035     1.0  0.51421  0.26215  0.55619  1.0000
  C   C2036     1.0  0.41733  0.45844  0.63613  1.0000
  C   C2037     1.0  0.47048  0.46881  0.58046  1.0000
  C   C2038     1.0  0.43677  0.44501  0.50411  1.0000
  H   H1622     1.0  0.56380  0.26907  0.57585  1.0000
  H   H1623     1.0  0.64184  0.33476  0.71689  1.0000
  C   C2039     1.0  0.64924  0.34396  0.70583  1.0000
  C   C2040     1.0  0.65986  0.42908  0.59393  1.0000
  H   H1624     1.0  0.46460  0.47834  0.59235  1.0000
  C   C2041     1.0  0.38641  0.38034  0.98349  1.0000
  H   H1625     1.0  0.57637  0.41800  0.67666  1.0000
  H   H1626     1.0  0.42479  0.44792  0.66801  1.0000
  H   H1627     1.0  0.39151  0.46418  0.93727  1.0000
  C   C2042     1.0  0.53563  0.44719  0.97421  1.0000
  H   H1628     1.0  0.57399  0.27543  0.93846  1.0000
  C   C2043     1.0  0.51306  0.29234  0.50698  1.0000
  C   C2044     1.0  0.64323  0.49212  0.95662  1.0000
  H   H1629     1.0  0.62843  0.49048  0.55810  1.0000
  H   H1630     1.0  0.61748  0.48888  0.99862  1.0000
  H   H1631     1.0  0.65050  0.48612  0.98997  1.0000
  H   H1632     1.0  0.55203  0.34946  0.52093  1.0000
  C   C2045     1.0  0.66317  0.33902  0.75835  1.0000
  H   H1633     1.0  0.50713  0.25836  0.69942  1.0000
  C   C2046     1.0  0.65966  0.42346  0.61613  1.0000
  H   H1634     1.0  0.53968  0.31906  0.51347  1.0000
  C   C2047     1.0  0.66537  0.49983  0.85684  1.0000
  H   H1635     1.0  0.44176  0.25187  0.75041  1.0000
  C   C2048     1.0  0.57777  0.40696  0.51012  1.0000
  C   C2049     1.0  0.66375  0.33636  0.88720  1.0000
  C   C2050     1.0  0.36841  0.47246  0.52312  1.0000
  H   H1636     1.0  0.52530  0.49897  0.98725  1.0000
  H   H1637     1.0  0.43037  0.26017  0.79196  1.0000
  H   H1638     1.0  0.39975  0.26005  0.77478  1.0000
  C   C2051     1.0  0.64132  0.36126  0.69906  1.0000
  C   C2052     1.0  0.63441  0.41225  0.85542  1.0000
  C   C2053     1.0  0.65806  0.41615  0.82694  1.0000
  H   H1639     1.0  0.66325  0.36608  0.88360  1.0000
  H   H1640     1.0  0.57098  0.46969  0.50963  1.0000
  C   C2054     1.0  0.66204  0.39702  0.82756  1.0000
  C   C2055     1.0  0.65422  0.49417  0.87469  1.0000
  P   P69       1.0  0.63360  0.49956  0.91350  1.0000
  C   C2056     1.0  0.55999  0.46885  0.52204  1.0000
  H   H1641     1.0  0.46698  0.49196  0.52329  1.0000
  H   H1642     1.0  0.64607  0.38646  0.67972  1.0000
  H   H1643     1.0  0.34165  0.38671  0.73230  1.0000
  C   C2057     1.0  0.63515  0.49341  0.57298  1.0000
  H   H1644     1.0  0.52378  0.43893  0.50733  1.0000
  H   H1645     1.0  0.59102  0.25243  0.87703  1.0000
  C   C2058     1.0  0.59050  0.25149  0.89468  1.0000
  C   C2059     1.0  0.33369  0.48881  0.70977  1.0000
  H   H1646     1.0  0.33329  0.45967  0.71754  1.0000
  S   S267      1.0  0.33300  0.36606  0.78617  1.0000
  C   C2060     1.0  0.66557  0.49808  0.67927  1.0000
  S   S268      1.0  0.42046  0.49964  0.99920  1.0000
  H   H1647     1.0  0.40270  0.39780  0.00214  1.0000
  H   H1648     1.0  0.54634  0.62880  0.39644  1.0000
  S   S269      1.0  0.61711  0.55009  0.04176  1.0000
  C   C2061     1.0  0.35007  0.70172  0.29188  1.0000
  Fe  Fe137     1.0  0.64766  0.55460  0.03800  1.0000
  S   S270      1.0  0.41064  0.53154  0.50044  1.0000
  H   H1649     1.0  0.34977  0.51828  0.05651  1.0000
  C   C2062     1.0  0.34310  0.62495  0.20957  1.0000
  C   C2063     1.0  0.61325  0.56487  0.44680  1.0000
  S   S271      1.0  0.53875  0.64458  0.46819  1.0000
  Fe  Fe138     1.0  0.55502  0.69493  0.32359  1.0000
  S   S272      1.0  0.57525  0.70923  0.30114  1.0000
  S   S273      1.0  0.52406  0.69198  0.31853  1.0000
  Fe  Fe139     1.0  0.58462  0.68603  0.35773  1.0000
  S   S274      1.0  0.60702  0.69982  0.33707  1.0000
  S   S275      1.0  0.59260  0.67207  0.39030  1.0000
  Fe  Fe140     1.0  0.58516  0.72284  0.33113  1.0000
  H   H1650     1.0  0.34694  0.58048  0.24361  1.0000
  Fe  Fe141     1.0  0.59543  0.68507  0.30888  1.0000
  S   S276      1.0  0.60803  0.66793  0.28038  1.0000
  S   S277      1.0  0.56362  0.70962  0.35320  1.0000
  S   S278      1.0  0.57439  0.67016  0.33007  1.0000
  Fe  Fe142     1.0  0.48900  0.59850  0.03446  1.0000
  H   H1651     1.0  0.41608  0.51814  0.45292  1.0000
  Fe  Fe143     1.0  0.46724  0.62634  0.06337  1.0000
  S   S279      1.0  0.44123  0.62384  0.04497  1.0000
  S   S280      1.0  0.47249  0.64420  0.09222  1.0000
  Fe  Fe144     1.0  0.44823  0.59311  0.04506  1.0000
  S   S281      1.0  0.42816  0.57096  0.05539  1.0000
  C   C2064     1.0  0.49879  0.50174  0.06222  1.0000
  S   S282      1.0  0.47265  0.59563  0.06593  1.0000
  S   S283      1.0  0.48551  0.62973  0.03317  1.0000
  S   S284      1.0  0.36692  0.52895  0.46646  1.0000
  C   C2065     1.0  0.45793  0.51611  0.46361  1.0000
  C   C2066     1.0  0.34906  0.70711  0.26991  1.0000
  Fe  Fe145     1.0  0.41951  0.67939  0.19689  1.0000
  S   S285      1.0  0.39495  0.69349  0.21412  1.0000
  S   S286      1.0  0.41331  0.66104  0.16893  1.0000
  Fe  Fe146     1.0  0.44706  0.69404  0.22800  1.0000
  S   S287      1.0  0.42432  0.70868  0.24769  1.0000
  S   S288      1.0  0.47842  0.69672  0.23093  1.0000
  Fe  Fe147     1.0  0.40826  0.68256  0.24481  1.0000
  S   S289      1.0  0.39101  0.67083  0.27396  1.0000
  Fe  Fe148     1.0  0.41266  0.71842  0.21536  1.0000
  H   H1652     1.0  0.38101  0.58234  0.45993  1.0000
  S   S290      1.0  0.43206  0.66727  0.22751  1.0000
  S   S291      1.0  0.43611  0.70501  0.19572  1.0000
  C   C2067     1.0  0.35660  0.61819  0.28421  1.0000
  C   C2068     1.0  0.36672  0.62134  0.26453  1.0000
  C   C2069     1.0  0.37751  0.63712  0.26123  1.0000
  C   C2070     1.0  0.37823  0.65017  0.27750  1.0000
  C   C2071     1.0  0.36837  0.64683  0.29732  1.0000
  C   C2072     1.0  0.35754  0.63107  0.30063  1.0000
  H   H1653     1.0  0.36617  0.61154  0.25167  1.0000
  H   H1654     1.0  0.38530  0.63921  0.24611  1.0000
  H   H1655     1.0  0.36904  0.65659  0.31020  1.0000
  H   H1656     1.0  0.65241  0.51473  0.07363  1.0000
  C   C2073     1.0  0.35429  0.54279  0.44703  1.0000
  H   H1657     1.0  0.62349  0.64507  0.36754  1.0000
  H   H1658     1.0  0.56268  0.68550  0.47389  1.0000
  C   C2074     1.0  0.34777  0.56093  0.45115  1.0000
  C   C2075     1.0  0.36455  0.64971  0.20928  1.0000
  H   H1659     1.0  0.35020  0.56683  0.46668  1.0000
  C   C2076     1.0  0.45599  0.64803  0.11374  1.0000
  C   C2077     1.0  0.43787  0.64215  0.11290  1.0000
  C   C2078     1.0  0.42493  0.64623  0.12993  1.0000
  C   C2079     1.0  0.42997  0.65627  0.14787  1.0000
  C   C2080     1.0  0.44808  0.66217  0.14868  1.0000
  C   C2081     1.0  0.46102  0.65801  0.13171  1.0000
  H   H1660     1.0  0.43380  0.63454  0.09909  1.0000
  H   H1661     1.0  0.41095  0.64163  0.12918  1.0000
  H   H1662     1.0  0.45211  0.66984  0.16244  1.0000
  H   H1663     1.0  0.47500  0.66256  0.13247  1.0000
  C   C2082     1.0  0.35573  0.50107  0.08489  1.0000
  C   C2083     1.0  0.41303  0.52099  0.03522  1.0000
  C   C2084     1.0  0.41489  0.53693  0.04741  1.0000
  C   C2085     1.0  0.42691  0.55075  0.04015  1.0000
  H   H1664     1.0  0.45157  0.50944  0.47786  1.0000
  C   C2086     1.0  0.59051  0.71995  0.45557  1.0000
  C   C2087     1.0  0.34588  0.51507  0.07336  1.0000
  H   H1665     1.0  0.40683  0.53867  0.06241  1.0000
  C   C2088     1.0  0.35208  0.66016  0.22237  1.0000
  C   C2089     1.0  0.51180  0.69337  0.29387  1.0000
  C   C2090     1.0  0.52024  0.69828  0.27382  1.0000
  C   C2091     1.0  0.50979  0.69944  0.25478  1.0000
  C   C2092     1.0  0.49085  0.69555  0.25549  1.0000
  C   C2093     1.0  0.48245  0.69063  0.27553  1.0000
  C   C2094     1.0  0.49290  0.68945  0.29454  1.0000
  H   H1666     1.0  0.53480  0.70116  0.27301  1.0000
  H   H1667     1.0  0.51640  0.70352  0.23946  1.0000
  H   H1668     1.0  0.46792  0.68759  0.27638  1.0000
  H   H1669     1.0  0.48628  0.68541  0.30989  1.0000
  C   C2095     1.0  0.62945  0.65577  0.27310  1.0000
  C   C2096     1.0  0.64613  0.65881  0.28309  1.0000
  C   C2097     1.0  0.33975  0.53842  0.15140  1.0000
  C   C2098     1.0  0.48003  0.50722  0.06499  1.0000
  C   C2099     1.0  0.64646  0.63368  0.24906  1.0000
  C   C2100     1.0  0.62979  0.64311  0.25605  1.0000
  C   C2101     1.0  0.60764  0.53392  0.43515  1.0000
  C   C2102     1.0  0.63537  0.61155  0.44076  1.0000
  Fe  Fe149     1.0  0.62415  0.52205  0.02772  1.0000
  H   H1670     1.0  0.61705  0.64061  0.24814  1.0000
  H   H1671     1.0  0.50319  0.69333  0.14556  1.0000
  C   C2103     1.0  0.55393  0.65264  0.44697  1.0000
  C   C2104     1.0  0.54645  0.66145  0.42825  1.0000
  C   C2105     1.0  0.55806  0.66764  0.41083  1.0000
  C   C2106     1.0  0.57732  0.66519  0.41206  1.0000
  C   C2107     1.0  0.58479  0.65675  0.43100  1.0000
  C   C2108     1.0  0.57318  0.65046  0.44832  1.0000
  H   H1672     1.0  0.53157  0.66328  0.42708  1.0000
  H   H1673     1.0  0.55211  0.67416  0.39641  1.0000
  H   H1674     1.0  0.59966  0.65499  0.43228  1.0000
  H   H1675     1.0  0.57909  0.64400  0.46276  1.0000
  H   H1676     1.0  0.64641  0.62410  0.23590  1.0000
  H   H1677     1.0  0.58973  0.64402  0.08383  1.0000
  H   H1678     1.0  0.37005  0.62394  0.19325  1.0000
  C   C2109     1.0  0.54133  0.52270  0.09774  1.0000
  H   H1679     1.0  0.61758  0.57364  0.45949  1.0000
  C   C2110     1.0  0.65254  0.55980  0.10229  1.0000
  C   C2111     1.0  0.65258  0.56046  0.12519  1.0000
  H   H1680     1.0  0.64261  0.55168  0.09449  1.0000
  H   H1681     1.0  0.64261  0.55277  0.13487  1.0000
  H   H1682     1.0  0.44676  0.55878  0.01514  1.0000
  H   H1683     1.0  0.52724  0.51885  0.10146  1.0000
  S   S292      1.0  0.34239  0.59851  0.28681  1.0000
  H   H1684     1.0  0.65448  0.51401  0.34733  1.0000
  P   P70       1.0  0.35754  0.54169  0.23429  1.0000
  H   H1685     1.0  0.60941  0.62484  0.49454  1.0000
  C   C2112     1.0  0.33490  0.65316  0.22905  1.0000
  H   H1686     1.0  0.62536  0.57761  0.38641  1.0000
  C   C2113     1.0  0.53600  0.58033  0.02520  1.0000
  H   H1687     1.0  0.55255  0.63086  0.18893  1.0000
  H   H1688     1.0  0.39362  0.72822  0.16793  1.0000
  C   C2114     1.0  0.56454  0.68235  0.22196  1.0000
  C   C2115     1.0  0.57867  0.70807  0.23862  1.0000
  C   C2116     1.0  0.59475  0.65261  0.20452  1.0000
  C   C2117     1.0  0.57990  0.60307  0.42307  1.0000
  H   H1689     1.0  0.49706  0.67394  0.19301  1.0000
  C   C2118     1.0  0.54521  0.74177  0.27130  1.0000
  C   C2119     1.0  0.66547  0.56955  0.08956  1.0000
  C   C2120     1.0  0.42516  0.70610  0.04127  1.0000
  C   C2121     1.0  0.35687  0.50754  0.25721  1.0000
  C   C2122     1.0  0.45754  0.70987  0.11747  1.0000
  S   S293      1.0  0.40017  0.74842  0.21188  1.0000
  C   C2123     1.0  0.65951  0.53381  0.43596  1.0000
  C   C2124     1.0  0.65842  0.54150  0.41484  1.0000
  C   C2125     1.0  0.54952  0.51969  0.07702  1.0000
  C   C2126     1.0  0.53611  0.53014  0.01751  1.0000
  C   C2127     1.0  0.43985  0.73521  0.30537  1.0000
  H   H1690     1.0  0.55483  0.68827  0.18936  1.0000
  S   S294      1.0  0.64538  0.56706  0.00394  1.0000
  H   H1691     1.0  0.49171  0.50804  0.01894  1.0000
  C   C2128     1.0  0.62387  0.63031  0.37167  1.0000
  C   C2129     1.0  0.63238  0.61764  0.35739  1.0000
  C   C2130     1.0  0.61539  0.60493  0.39658  1.0000
  C   C2131     1.0  0.61567  0.62401  0.39128  1.0000
  S   S295      1.0  0.51358  0.57798  0.03675  1.0000
  C   C2132     1.0  0.57815  0.73003  0.44198  1.0000
  C   C2133     1.0  0.56857  0.59486  0.43939  1.0000
  C   C2134     1.0  0.54946  0.59892  0.44021  1.0000
  C   C2135     1.0  0.34091  0.54576  0.41082  1.0000
  H   H1692     1.0  0.59487  0.66747  0.20156  1.0000
  H   H1693     1.0  0.41578  0.58652  0.01451  1.0000
  H   H1694     1.0  0.53932  0.73489  0.23851  1.0000
  C   C2136     1.0  0.63769  0.74105  0.39505  1.0000
  H   H1695     1.0  0.66501  0.51310  0.22445  1.0000
  H   H1696     1.0  0.59060  0.67587  0.09685  1.0000
  H   H1697     1.0  0.34891  0.55271  0.27928  1.0000
  H   H1698     1.0  0.63868  0.62258  0.34213  1.0000
  H   H1699     1.0  0.45621  0.73447  0.21451  1.0000
  H   H1700     1.0  0.57452  0.58552  0.45173  1.0000
  H   H1701     1.0  0.54089  0.59294  0.45314  1.0000
  C   C2137     1.0  0.39102  0.55021  0.25237  1.0000
  H   H1702     1.0  0.49857  0.64827  0.16699  1.0000
  H   H1703     1.0  0.62368  0.61428  0.19914  1.0000
  H   H1704     1.0  0.38594  0.67843  0.13354  1.0000
  H   H1705     1.0  0.57708  0.74181  0.37965  1.0000
  H   H1706     1.0  0.58258  0.68252  0.13546  1.0000
  H   H1707     1.0  0.37700  0.69929  0.16371  1.0000
  H   H1708     1.0  0.59408  0.56632  0.39679  1.0000
  C   C2138     1.0  0.45867  0.70990  0.14023  1.0000
  H   H1709     1.0  0.65948  0.62194  0.45510  1.0000
  C   C2139     1.0  0.45420  0.53502  0.45910  1.0000
  C   C2140     1.0  0.46179  0.54360  0.44019  1.0000
  C   C2141     1.0  0.47377  0.53315  0.42638  1.0000
  P   P71       1.0  0.45677  0.56805  0.43462  1.0000
  C   C2142     1.0  0.43282  0.57288  0.44280  1.0000
  C   C2143     1.0  0.47281  0.58181  0.44841  1.0000
  C   C2144     1.0  0.48601  0.57336  0.46228  1.0000
  C   C2145     1.0  0.49941  0.58394  0.47129  1.0000
  C   C2146     1.0  0.49970  0.60302  0.46659  1.0000
  C   C2147     1.0  0.48661  0.61153  0.45284  1.0000
  C   C2148     1.0  0.47327  0.60098  0.44369  1.0000
  C   C2149     1.0  0.42740  0.58859  0.45470  1.0000
  C   C2150     1.0  0.40875  0.59199  0.46079  1.0000
  C   C2151     1.0  0.39541  0.57979  0.45503  1.0000
  C   C2152     1.0  0.40071  0.56410  0.44324  1.0000
  C   C2153     1.0  0.41932  0.56060  0.43723  1.0000
  C   C2154     1.0  0.45979  0.57370  0.40583  1.0000
  C   C2155     1.0  0.47768  0.57634  0.39692  1.0000
  C   C2156     1.0  0.48022  0.58157  0.37494  1.0000
  C   C2157     1.0  0.46494  0.58424  0.36167  1.0000
  C   C2158     1.0  0.44711  0.58165  0.37036  1.0000
  C   C2159     1.0  0.44450  0.57642  0.39232  1.0000
  C   C2160     1.0  0.33915  0.69676  0.25583  1.0000
  H   H1710     1.0  0.43136  0.68065  0.02427  1.0000
  H   H1711     1.0  0.55043  0.73086  0.42921  1.0000
  H   H1712     1.0  0.44529  0.54294  0.47032  1.0000
  H   H1713     1.0  0.48006  0.53947  0.41192  1.0000
  H   H1714     1.0  0.48611  0.55863  0.46611  1.0000
  C   C2161     1.0  0.33533  0.55426  0.23641  1.0000
  H   H1715     1.0  0.50994  0.61128  0.47380  1.0000
  H   H1716     1.0  0.48685  0.62635  0.44933  1.0000
  H   H1717     1.0  0.46337  0.60775  0.43282  1.0000
  H   H1718     1.0  0.43748  0.59792  0.46002  1.0000
  H   H1719     1.0  0.50651  0.74518  0.24144  1.0000
  C   C2162     1.0  0.36940  0.54732  0.20868  1.0000
  H   H1720     1.0  0.39037  0.55459  0.43888  1.0000
  H   H1721     1.0  0.42313  0.54836  0.42810  1.0000
  H   H1722     1.0  0.48967  0.57459  0.40703  1.0000
  H   H1723     1.0  0.49403  0.58379  0.36825  1.0000
  H   H1724     1.0  0.46688  0.58852  0.34470  1.0000
  H   H1725     1.0  0.43522  0.58396  0.36012  1.0000
  H   H1726     1.0  0.43050  0.57491  0.39860  1.0000
  H   H1727     1.0  0.47294  0.70427  0.08732  1.0000
  H   H1728     1.0  0.52676  0.61484  0.42593  1.0000
  C   C2163     1.0  0.52420  0.66721  0.20531  1.0000
  H   H1729     1.0  0.59247  0.61101  0.46564  1.0000
  H   H1730     1.0  0.59454  0.69616  0.47740  1.0000
  C   C2164     1.0  0.50936  0.66475  0.19184  1.0000
  H   H1731     1.0  0.58088  0.64461  0.25958  1.0000
  C   C2165     1.0  0.60002  0.56065  0.41168  1.0000
  H   H1732     1.0  0.54086  0.70286  0.44977  1.0000
  C   C2166     1.0  0.33442  0.57321  0.24116  1.0000
  H   H1733     1.0  0.55964  0.73708  0.26996  1.0000
  H   H1734     1.0  0.59644  0.59941  0.21648  1.0000
  C   C2167     1.0  0.38777  0.70310  0.15195  1.0000
  H   H1735     1.0  0.39960  0.52808  0.17093  1.0000
  C   C2168     1.0  0.33768  0.55605  0.16015  1.0000
  C   C2169     1.0  0.33435  0.56390  0.41494  1.0000
  H   H1736     1.0  0.44507  0.66415  0.05634  1.0000
  H   H1737     1.0  0.39770  0.54642  0.23705  1.0000
  C   C2170     1.0  0.55255  0.65159  0.25051  1.0000
  C   C2171     1.0  0.55052  0.56897  0.03360  1.0000
  H   H1738     1.0  0.40472  0.60382  0.47057  1.0000
  H   H1739     1.0  0.37870  0.58454  0.17496  1.0000
  C   C2172     1.0  0.43532  0.53255  0.00845  1.0000
  C   C2173     1.0  0.57067  0.51576  0.00278  1.0000
  H   H1740     1.0  0.47570  0.70383  0.16793  1.0000
  C   C2174     1.0  0.57161  0.61504  0.40730  1.0000
  H   H1741     1.0  0.39792  0.56039  0.15591  1.0000
  Fe  Fe150     1.0  0.54801  0.62851  0.49888  1.0000
  H   H1742     1.0  0.35635  0.71906  0.26368  1.0000
  C   C2175     1.0  0.62241  0.74911  0.40634  1.0000
  C   C2176     1.0  0.54530  0.51600  0.02979  1.0000
  H   H1743     1.0  0.64854  0.71717  0.37783  1.0000
  C   C2177     1.0  0.53379  0.74065  0.25354  1.0000
  C   C2178     1.0  0.51233  0.51515  0.06056  1.0000
  C   C2179     1.0  0.50681  0.53393  0.06267  1.0000
  C   C2180     1.0  0.48806  0.53935  0.06522  1.0000
  C   C2181     1.0  0.47464  0.52603  0.06616  1.0000
  C   C2182     1.0  0.62057  0.71365  0.38981  1.0000
  C   C2183     1.0  0.43631  0.74232  0.09933  1.0000
  H   H1744     1.0  0.36799  0.51110  0.15520  1.0000
  C   C2184     1.0  0.42307  0.51890  0.01556  1.0000
  C   C2185     1.0  0.47833  0.73392  0.30941  1.0000
  C   C2186     1.0  0.37901  0.57031  0.18123  1.0000
  C   C2187     1.0  0.51508  0.74642  0.25535  1.0000
  H   H1745     1.0  0.41894  0.71322  0.02735  1.0000
  C   C2188     1.0  0.43735  0.54835  0.02078  1.0000
  H   H1746     1.0  0.58301  0.61260  0.02606  1.0000
  C   C2189     1.0  0.36014  0.63206  0.20304  1.0000
  S   S296      1.0  0.46466  0.59424  0.01355  1.0000
  H   H1747     1.0  0.51702  0.54444  0.06195  1.0000
  H   H1748     1.0  0.48393  0.55396  0.06614  1.0000
  H   H1749     1.0  0.46007  0.53033  0.06782  1.0000
  S   S297      1.0  0.55023  0.59724  0.49984  1.0000
  H   H1750     1.0  0.50935  0.57746  0.48234  1.0000
  C   C2190     1.0  0.57153  0.57983  0.00490  1.0000
  C   C2191     1.0  0.61365  0.54566  0.45082  1.0000
  H   H1751     1.0  0.54799  0.55981  0.04753  1.0000
  H   H1752     1.0  0.57489  0.52227  0.05730  1.0000
  H   H1753     1.0  0.57772  0.54062  0.12237  1.0000
  C   C2192     1.0  0.60522  0.72167  0.40098  1.0000
  C   C2193     1.0  0.38072  0.53381  0.19805  1.0000
  H   H1754     1.0  0.36077  0.57649  0.20840  1.0000
  C   C2194     1.0  0.56976  0.53504  0.10971  1.0000
  H   H1755     1.0  0.60931  0.63410  0.40221  1.0000
  H   H1756     1.0  0.34210  0.68169  0.31679  1.0000
  H   H1757     1.0  0.59282  0.71382  0.40321  1.0000
  H   H1758     1.0  0.49321  0.73258  0.31079  1.0000
  C   C2195     1.0  0.35444  0.51699  0.23707  1.0000
  C   C2196     1.0  0.52980  0.65003  0.28050  1.0000
  C   C2197     1.0  0.54376  0.64447  0.29479  1.0000
  C   C2198     1.0  0.56206  0.64214  0.28698  1.0000
  C   C2199     1.0  0.56646  0.64572  0.26498  1.0000
  H   H1759     1.0  0.51568  0.65228  0.28668  1.0000
  H   H1760     1.0  0.54046  0.64247  0.31202  1.0000
  H   H1761     1.0  0.57302  0.63824  0.29808  1.0000
  H   H1762     1.0  0.37787  0.65514  0.20436  1.0000
  C   C2200     1.0  0.52431  0.60777  0.10509  1.0000
  C   C2201     1.0  0.52162  0.59063  0.09603  1.0000
  C   C2202     1.0  0.53682  0.57873  0.09097  1.0000
  C   C2203     1.0  0.55478  0.58402  0.09466  1.0000
  C   C2204     1.0  0.55766  0.60119  0.10384  1.0000
  C   C2205     1.0  0.54226  0.61305  0.10905  1.0000
  P   P72       1.0  0.58106  0.60845  0.10649  1.0000
  C   C2206     1.0  0.59349  0.59500  0.12707  1.0000
  C   C2207     1.0  0.59241  0.60632  0.07996  1.0000
  C   C2208     1.0  0.61093  0.59962  0.07767  1.0000
  C   C2209     1.0  0.59084  0.60920  0.04051  1.0000
  C   C2210     1.0  0.58243  0.61107  0.06118  1.0000
  C   C2211     1.0  0.61033  0.60127  0.13412  1.0000
  C   C2212     1.0  0.62003  0.59140  0.15035  1.0000
  C   C2213     1.0  0.61307  0.57515  0.15969  1.0000
  C   C2214     1.0  0.59619  0.56892  0.15302  1.0000
  C   C2215     1.0  0.58633  0.57887  0.13685  1.0000
  C   C2216     1.0  0.58089  0.63214  0.11513  1.0000
  C   C2217     1.0  0.57633  0.63603  0.13697  1.0000
  C   C2218     1.0  0.57687  0.65415  0.14425  1.0000
  C   C2219     1.0  0.58199  0.66851  0.12979  1.0000
  C   C2220     1.0  0.58651  0.66476  0.10803  1.0000
  C   C2221     1.0  0.58597  0.64664  0.10068  1.0000
  H   H1763     1.0  0.51245  0.61715  0.10845  1.0000
  H   H1764     1.0  0.50776  0.58676  0.09241  1.0000
  H   H1765     1.0  0.53469  0.56567  0.08349  1.0000
  H   H1766     1.0  0.56646  0.57496  0.08974  1.0000
  H   H1767     1.0  0.54398  0.62660  0.11549  1.0000
  H   H1768     1.0  0.61903  0.59552  0.09164  1.0000
  H   H1769     1.0  0.36048  0.51483  0.27146  1.0000
  H   H1770     1.0  0.56806  0.61605  0.06241  1.0000
  H   H1771     1.0  0.61611  0.61373  0.12691  1.0000
  H   H1772     1.0  0.44686  0.71423  0.15032  1.0000
  H   H1773     1.0  0.62096  0.56736  0.17193  1.0000
  H   H1774     1.0  0.59082  0.55634  0.16038  1.0000
  H   H1775     1.0  0.57319  0.57399  0.13214  1.0000
  H   H1776     1.0  0.57254  0.62500  0.14842  1.0000
  H   H1777     1.0  0.57349  0.65702  0.16115  1.0000
  C   C2222     1.0  0.56820  0.56871  0.02352  1.0000
  H   H1778     1.0  0.52307  0.65841  0.24803  1.0000
  H   H1779     1.0  0.42093  0.72942  0.06194  1.0000
  C   C2223     1.0  0.46867  0.74672  0.24148  1.0000
  C   C2224     1.0  0.46743  0.72199  0.32219  1.0000
  C   C2225     1.0  0.60924  0.60257  0.03839  1.0000
  C   C2226     1.0  0.46981  0.50579  0.44976  1.0000
  C   C2227     1.0  0.54144  0.61113  0.42476  1.0000
  C   C2228     1.0  0.56795  0.52456  0.07288  1.0000
  H   H1780     1.0  0.62277  0.64826  0.19185  1.0000
  H   H1781     1.0  0.61564  0.60084  0.02232  1.0000
  C   C2229     1.0  0.40731  0.69574  0.12030  1.0000
  C   C2230     1.0  0.62448  0.59230  0.38243  1.0000
  H   H1782     1.0  0.36806  0.56465  0.30753  1.0000
  H   H1783     1.0  0.61837  0.53986  0.46627  1.0000
  C   C2231     1.0  0.55459  0.70790  0.45168  1.0000
  C   C2232     1.0  0.56123  0.69370  0.20334  1.0000
  H   H1784     1.0  0.59578  0.53232  0.40364  1.0000
  H   H1785     1.0  0.65622  0.53251  0.31273  1.0000
  H   H1786     1.0  0.61990  0.69984  0.38358  1.0000
  C   C2233     1.0  0.57993  0.62504  0.21858  1.0000
  H   H1787     1.0  0.40359  0.51051  0.04083  1.0000
  C   C2234     1.0  0.35077  0.53527  0.42682  1.0000
  C   C2235     1.0  0.39078  0.53849  0.17896  1.0000
  C   C2236     1.0  0.66226  0.51371  0.08659  1.0000
  H   H1788     1.0  0.48705  0.50631  0.42052  1.0000
  H   H1789     1.0  0.35612  0.67356  0.22736  1.0000
  H   H1790     1.0  0.43986  0.71293  0.32959  1.0000
  C   C2237     1.0  0.63284  0.59866  0.36286  1.0000
  P   P73       1.0  0.55883  0.65820  0.22266  1.0000
  C   C2238     1.0  0.34104  0.68606  0.29982  1.0000
  C   C2239     1.0  0.57332  0.68969  0.23958  1.0000
  C   C2240     1.0  0.36368  0.55369  0.27606  1.0000
  H   H1791     1.0  0.35574  0.52127  0.42351  1.0000
  H   H1792     1.0  0.34987  0.62893  0.31585  1.0000
  H   H1793     1.0  0.44653  0.67983  0.09107  1.0000
  H   H1794     1.0  0.44967  0.73235  0.01466  1.0000
  C   C2241     1.0  0.42632  0.71522  0.06093  1.0000
  C   C2242     1.0  0.36878  0.56565  0.20019  1.0000
  C   C2243     1.0  0.66285  0.64963  0.27584  1.0000
  C   C2244     1.0  0.39720  0.71932  0.15437  1.0000
  C   C2245     1.0  0.60667  0.57252  0.42700  1.0000
  H   H1795     1.0  0.47206  0.73337  0.24933  1.0000
  C   C2246     1.0  0.53996  0.65505  0.20462  1.0000
  H   H1796     1.0  0.57967  0.62160  0.39439  1.0000
  C   C2247     1.0  0.60597  0.73953  0.40930  1.0000
  H   H1797     1.0  0.41140  0.68602  0.10781  1.0000
  H   H1798     1.0  0.57942  0.73356  0.21946  1.0000
  C   C2248     1.0  0.61658  0.62140  0.47937  1.0000
  Fe  Fe151     1.0  0.37990  0.53777  0.49772  1.0000
  P   P74       1.0  0.53671  0.50871  0.05656  1.0000
  H   H1799     1.0  0.52325  0.67853  0.21646  1.0000
  C   C2249     1.0  0.54068  0.64049  0.18992  1.0000
  C   C2250     1.0  0.41161  0.72381  0.13969  1.0000
  C   C2251     1.0  0.66322  0.63699  0.25877  1.0000
  C   C2252     1.0  0.34847  0.50723  0.21937  1.0000
  C   C2253     1.0  0.53413  0.65359  0.25845  1.0000
  C   C2254     1.0  0.55139  0.53043  0.11396  1.0000
  H   H1800     1.0  0.35078  0.53580  0.13938  1.0000
  H   H1801     1.0  0.65022  0.74863  0.39261  1.0000
  C   C2255     1.0  0.61119  0.62259  0.20308  1.0000
  H   H1802     1.0  0.46195  0.60421  0.50027  1.0000
  H   H1803     1.0  0.63968  0.58891  0.35186  1.0000
  C   C2256     1.0  0.55249  0.61904  0.40820  1.0000
  C   C2257     1.0  0.60701  0.61346  0.46288  1.0000
  C   C2258     1.0  0.57924  0.64432  0.21440  1.0000
  C   C2259     1.0  0.56241  0.50852  0.02190  1.0000
  H   H1804     1.0  0.54501  0.53262  0.12992  1.0000
  C   C2260     1.0  0.41675  0.71212  0.12246  1.0000
  H   H1805     1.0  0.43671  0.50975  0.42125  1.0000
  C   C2261     1.0  0.38990  0.55671  0.17053  1.0000
  C   C2262     1.0  0.63676  0.72336  0.38671  1.0000
  C   C2263     1.0  0.61928  0.59786  0.05694  1.0000
  H   H1806     1.0  0.42499  0.73540  0.30341  1.0000
  H   H1807     1.0  0.35818  0.70943  0.30266  1.0000
  H   H1808     1.0  0.56827  0.61841  0.22657  1.0000
  Fe  Fe152     1.0  0.45966  0.62540  0.01452  1.0000
  C   C2264     1.0  0.56012  0.72383  0.44007  1.0000
  C   C2265     1.0  0.43430  0.70595  0.07902  1.0000
  H   H1809     1.0  0.64625  0.66856  0.29606  1.0000
  H   H1810     1.0  0.52319  0.53659  0.02326  1.0000
  C   C2266     1.0  0.49059  0.69820  0.13771  1.0000
  H   H1811     1.0  0.57640  0.68123  0.25400  1.0000
  H   H1812     1.0  0.38219  0.51977  0.20474  1.0000
  H   H1813     1.0  0.41657  0.55808  0.26583  1.0000
  C   C2267     1.0  0.39274  0.69140  0.13484  1.0000
  Fe  Fe153     1.0  0.61545  0.55983  0.00670  1.0000
  C   C2268     1.0  0.47330  0.70428  0.10491  1.0000
  C   C2269     1.0  0.57517  0.71934  0.22015  1.0000
  H   H1814     1.0  0.33830  0.53979  0.39536  1.0000
  H   H1815     1.0  0.34713  0.56669  0.15501  1.0000
  C   C2270     1.0  0.37453  0.56031  0.29227  1.0000
  C   C2271     1.0  0.37179  0.54891  0.25581  1.0000
  C   C2272     1.0  0.39355  0.56195  0.28857  1.0000
  H   H1816     1.0  0.56379  0.72088  0.18818  1.0000
  C   C2273     1.0  0.57798  0.53219  0.08915  1.0000
  C   C2274     1.0  0.60079  0.54142  0.41560  1.0000
  H   H1817     1.0  0.58579  0.71342  0.25217  1.0000
  H   H1818     1.0  0.52643  0.62687  0.16504  1.0000
  C   C2275     1.0  0.47510  0.70407  0.15030  1.0000
  H   H1819     1.0  0.46617  0.74318  0.09567  1.0000
  C   C2276     1.0  0.53939  0.59189  0.00693  1.0000
  C   C2277     1.0  0.45066  0.74734  0.29278  1.0000
  C   C2278     1.0  0.61064  0.64176  0.19891  1.0000
  C   C2279     1.0  0.40182  0.55675  0.26869  1.0000
  C   C2280     1.0  0.44069  0.68738  0.07724  1.0000
  H   H1820     1.0  0.63354  0.59260  0.05522  1.0000
  H   H1821     1.0  0.59229  0.53561  0.08580  1.0000
  C   C2281     1.0  0.64483  0.61959  0.45726  1.0000
  H   H1822     1.0  0.40179  0.56743  0.30106  1.0000
  C   C2282     1.0  0.43975  0.67839  0.05756  1.0000
  H   H1823     1.0  0.40643  0.74660  0.10177  1.0000
  C   C2283     1.0  0.41472  0.50511  0.44498  1.0000
  C   C2284     1.0  0.52588  0.63818  0.17626  1.0000
  S   S298      1.0  0.65493  0.52585  0.02633  1.0000
  H   H1824     1.0  0.47400  0.71192  0.33330  1.0000
  C   C2285     1.0  0.59583  0.61423  0.21289  1.0000
  C   C2286     1.0  0.48968  0.69831  0.11502  1.0000
  H   H1825     1.0  0.48871  0.54232  0.01877  1.0000
  H   H1826     1.0  0.64295  0.60762  0.42602  1.0000
  H   H1827     1.0  0.50156  0.69345  0.10524  1.0000
  H   H1828     1.0  0.63318  0.59617  0.15542  1.0000
  C   C2287     1.0  0.51019  0.65025  0.17728  1.0000
  H   H1829     1.0  0.60801  0.51904  0.43836  1.0000
  H   H1830     1.0  0.64275  0.63060  0.48946  1.0000
  C   C2288     1.0  0.44822  0.72254  0.32009  1.0000
  C   C2289     1.0  0.56640  0.71217  0.20254  1.0000
  H   H1831     1.0  0.33970  0.61124  0.20482  1.0000
  P   P75       1.0  0.60459  0.59739  0.42221  1.0000
  C   C2290     1.0  0.47777  0.51432  0.43120  1.0000
  H   H1832     1.0  0.57910  0.55953  0.02985  1.0000
  P   P76       1.0  0.43624  0.71749  0.10448  1.0000
  C   C2291     1.0  0.61633  0.60854  0.44338  1.0000
  C   C2292     1.0  0.58488  0.70407  0.46722  1.0000
  H   H1833     1.0  0.41900  0.73624  0.14202  1.0000
  C   C2293     1.0  0.43203  0.68773  0.03953  1.0000
  C   C2294     1.0  0.63544  0.62451  0.47658  1.0000
  H   H1834     1.0  0.60465  0.72409  0.45669  1.0000
  H   H1835     1.0  0.65210  0.55529  0.41227  1.0000
  C   C2295     1.0  0.44332  0.74626  0.01350  1.0000
  C   C2296     1.0  0.56694  0.69804  0.46525  1.0000
  H   H1836     1.0  0.65510  0.53393  0.19368  1.0000
  H   H1837     1.0  0.34564  0.51437  0.20398  1.0000
  H   H1838     1.0  0.40255  0.61877  0.01430  1.0000
  C   C2297     1.0  0.48947  0.51563  0.00377  1.0000
  H   H1839     1.0  0.33867  0.70110  0.23882  1.0000
  H   H1840     1.0  0.65410  0.54160  0.44973  1.0000
  C   C2298     1.0  0.33783  0.57138  0.43520  1.0000
  C   C2299     1.0  0.33605  0.50660  0.11702  1.0000
  C   C2300     1.0  0.65721  0.50569  0.10678  1.0000
  P   P77       1.0  0.58640  0.74911  0.42501  1.0000
  C   C2301     1.0  0.45961  0.74730  0.22175  1.0000
  C   C2302     1.0  0.66541  0.53142  0.39705  1.0000
  H   H1841     1.0  0.66446  0.53769  0.38088  1.0000
  C   C2303     1.0  0.66546  0.57092  0.13560  1.0000
  S   S299      1.0  0.66446  0.57176  0.16444  1.0000
  H   H1842     1.0  0.33477  0.50522  0.01098  1.0000
  S   S300      1.0  0.33336  0.56048  0.33363  1.0000
  C   C2304     1.0  0.47002  0.74679  0.29466  1.0000
  C   C2305     1.0  0.53795  0.74859  0.29095  1.0000
  H   H1843     1.0  0.54678  0.74902  0.30486  1.0000
  C   C2306     1.0  0.48790  0.53503  0.00371  1.0000
  C   C2307     1.0  0.59490  0.71486  0.59282  1.0000
  S   S301      1.0  0.43190  0.58028  0.50789  1.0000
  C   C2308     1.0  0.56756  0.70184  0.57880  1.0000
  H   H1844     1.0  0.33494  0.57773  0.78393  1.0000
  C   C2309     1.0  0.54973  0.74126  0.77218  1.0000
  C   C2310     1.0  0.65310  0.50093  0.61133  1.0000
  Fe  Fe154     1.0  0.56981  0.67970  0.73231  1.0000
  S   S302      1.0  0.58942  0.69832  0.74759  1.0000
  S   S303      1.0  0.54550  0.66662  0.75134  1.0000
  Fe  Fe155     1.0  0.59534  0.67574  0.69141  1.0000
  S   S304      1.0  0.61679  0.69404  0.70452  1.0000
  S   S305      1.0  0.60240  0.66092  0.65955  1.0000
  Fe  Fe156     1.0  0.61236  0.67807  0.73644  1.0000
  S   S306      1.0  0.63385  0.66872  0.76196  1.0000
  Fe  Fe157     1.0  0.59234  0.71282  0.71445  1.0000
  C   C2311     1.0  0.58730  0.53283  0.92760  1.0000
  S   S307      1.0  0.59262  0.65880  0.72273  1.0000
  S   S308      1.0  0.57102  0.69517  0.69972  1.0000
  Fe  Fe158     1.0  0.55608  0.63086  0.54775  1.0000
  S   S309      1.0  0.52968  0.62975  0.52929  1.0000
  S   S310      1.0  0.55420  0.65145  0.57551  1.0000
  C   C2312     1.0  0.45409  0.57983  0.51892  1.0000
  H   H1845     1.0  0.38476  0.58800  0.60524  1.0000
  Fe  Fe159     1.0  0.53399  0.59882  0.53160  1.0000
  S   S311      1.0  0.51321  0.57786  0.54365  1.0000
  H   H1846     1.0  0.45791  0.52468  0.51472  1.0000
  S   S312      1.0  0.55919  0.59979  0.55185  1.0000
  H   H1847     1.0  0.49366  0.60403  0.51465  1.0000
  S   S313      1.0  0.44700  0.64549  0.98873  1.0000
  H   H1848     1.0  0.45830  0.62590  0.69886  1.0000
  Fe  Fe160     1.0  0.41845  0.71092  0.84553  1.0000
  S   S314      1.0  0.44931  0.70599  0.84798  1.0000
  H   H1849     1.0  0.45366  0.52208  0.92854  1.0000
  Fe  Fe161     1.0  0.41363  0.67181  0.82619  1.0000
  S   S315      1.0  0.44428  0.66488  0.82784  1.0000
  S   S316      1.0  0.39563  0.64786  0.81615  1.0000
  Fe  Fe162     1.0  0.44276  0.67726  0.86111  1.0000
  S   S317      1.0  0.46041  0.66088  0.88624  1.0000
  Fe  Fe163     1.0  0.44857  0.69369  0.81475  1.0000
  S   S318      1.0  0.46778  0.70205  0.78609  1.0000
  S   S319      1.0  0.41181  0.68261  0.86050  1.0000
  S   S320      1.0  0.41795  0.70031  0.81133  1.0000
  H   H1850     1.0  0.63859  0.52798  0.60833  1.0000
  S   S321      1.0  0.40632  0.54652  0.55079  1.0000
  C   C2313     1.0  0.41524  0.54298  0.61035  1.0000
  H   H1851     1.0  0.52513  0.67522  0.81952  1.0000
  S   S322      1.0  0.37273  0.52388  0.53020  1.0000
  Fe  Fe164     1.0  0.37601  0.55179  0.54464  1.0000
  S   S323      1.0  0.35545  0.56701  0.56764  1.0000
  Fe  Fe165     1.0  0.40357  0.51963  0.53366  1.0000
  C   C2314     1.0  0.65125  0.52593  0.88641  1.0000
  C   C2315     1.0  0.54122  0.74048  0.79295  1.0000
  C   C2316     1.0  0.34604  0.55364  0.64083  1.0000
  C   C2317     1.0  0.35676  0.54134  0.62776  1.0000
  C   C2318     1.0  0.36000  0.54535  0.60541  1.0000
  C   C2319     1.0  0.35230  0.56164  0.59583  1.0000
  H   H1852     1.0  0.55972  0.60033  0.98244  1.0000
  H   H1853     1.0  0.36262  0.52864  0.63500  1.0000
  H   H1854     1.0  0.36831  0.53578  0.59556  1.0000
  C   C2320     1.0  0.41194  0.53725  0.94992  1.0000
  C   C2321     1.0  0.36220  0.62742  0.75870  1.0000
  C   C2322     1.0  0.36877  0.64556  0.75807  1.0000
  C   C2323     1.0  0.37934  0.65197  0.77510  1.0000
  C   C2324     1.0  0.38346  0.64036  0.79319  1.0000
  C   C2325     1.0  0.37719  0.62213  0.79360  1.0000
  C   C2326     1.0  0.36682  0.61566  0.77648  1.0000
  C   C2327     1.0  0.63972  0.55394  0.65598  1.0000
  H   H1855     1.0  0.38388  0.66605  0.77448  1.0000
  H   H1856     1.0  0.38032  0.61292  0.80736  1.0000
  H   H1857     1.0  0.36236  0.60155  0.77714  1.0000
  C   C2328     1.0  0.45088  0.64911  0.96014  1.0000
  C   C2329     1.0  0.43797  0.66034  0.94840  1.0000
  C   C2330     1.0  0.44061  0.66410  0.92584  1.0000
  C   C2331     1.0  0.45637  0.65682  0.91473  1.0000
  C   C2332     1.0  0.46927  0.64554  0.92646  1.0000
  C   C2333     1.0  0.46653  0.64164  0.94898  1.0000
  H   H1858     1.0  0.42584  0.66625  0.95684  1.0000
  H   H1859     1.0  0.43053  0.67274  0.91709  1.0000
  H   H1860     1.0  0.48153  0.63987  0.91807  1.0000
  H   H1861     1.0  0.47669  0.63320  0.95780  1.0000
  C   C2334     1.0  0.49019  0.57951  0.53494  1.0000
  C   C2335     1.0  0.47774  0.56616  0.54243  1.0000
  C   C2336     1.0  0.45971  0.56629  0.53443  1.0000
  H   H1862     1.0  0.44314  0.74440  0.81639  1.0000
  C   C2337     1.0  0.37055  0.59264  0.66553  1.0000
  C   C2338     1.0  0.47241  0.52008  0.51376  1.0000
  H   H1863     1.0  0.48222  0.55538  0.55401  1.0000
  H   H1864     1.0  0.45028  0.55580  0.54001  1.0000
  S   S324      1.0  0.40147  0.73815  0.85292  1.0000
  P   P78       1.0  0.59413  0.74435  0.62125  1.0000
  C   C2339     1.0  0.60092  0.52032  0.52468  1.0000
  C   C2340     1.0  0.58554  0.53182  0.53081  1.0000
  C   C2341     1.0  0.58568  0.55117  0.52727  1.0000
  C   C2342     1.0  0.59904  0.51842  0.91966  1.0000
  C   C2343     1.0  0.40716  0.60343  0.66161  1.0000
  C   C2344     1.0  0.52449  0.67714  0.76193  1.0000
  C   C2345     1.0  0.51277  0.66648  0.77562  1.0000
  C   C2346     1.0  0.49563  0.67402  0.78377  1.0000
  C   C2347     1.0  0.48984  0.69222  0.77789  1.0000
  C   C2348     1.0  0.50146  0.70278  0.76404  1.0000
  C   C2349     1.0  0.51881  0.69543  0.75637  1.0000
  H   H1865     1.0  0.51696  0.65228  0.77989  1.0000
  H   H1866     1.0  0.48677  0.66569  0.79424  1.0000
  H   H1867     1.0  0.49694  0.71671  0.75908  1.0000
  H   H1868     1.0  0.52757  0.70375  0.74575  1.0000
  C   C2350     1.0  0.58872  0.65867  0.63634  1.0000
  C   C2351     1.0  0.57029  0.66541  0.63560  1.0000
  C   C2352     1.0  0.55997  0.66307  0.61686  1.0000
  C   C2353     1.0  0.56789  0.65391  0.59870  1.0000
  C   C2354     1.0  0.58644  0.64756  0.59927  1.0000
  C   C2355     1.0  0.59673  0.64978  0.61804  1.0000
  H   H1869     1.0  0.56398  0.67241  0.64947  1.0000
  H   H1870     1.0  0.54573  0.66836  0.61646  1.0000
  H   H1871     1.0  0.59300  0.64137  0.58508  1.0000
  H   H1872     1.0  0.61106  0.64478  0.61829  1.0000
  C   C2356     1.0  0.50991  0.50858  0.51233  1.0000
  H   H1873     1.0  0.39963  0.53195  0.95804  1.0000
  H   H1874     1.0  0.62644  0.55789  0.66357  1.0000
  C   C2357     1.0  0.64925  0.64873  0.76474  1.0000
  C   C2358     1.0  0.34145  0.57390  0.60887  1.0000
  H   H1875     1.0  0.48913  0.72524  0.85770  1.0000
  C   C2359     1.0  0.60133  0.55924  0.51777  1.0000
  H   H1876     1.0  0.64435  0.63743  0.73362  1.0000
  C   C2360     1.0  0.55641  0.71531  0.58939  1.0000
  S   S325      1.0  0.34862  0.62022  0.73671  1.0000
  C   C2361     1.0  0.48791  0.50615  0.98439  1.0000
  H   H1877     1.0  0.57254  0.53281  0.92512  1.0000
  C   C2362     1.0  0.48415  0.53586  0.96477  1.0000
  C   C2363     1.0  0.39463  0.61231  0.67614  1.0000
  H   H1878     1.0  0.64652  0.53626  0.89791  1.0000
  H   H1879     1.0  0.50650  0.65843  0.69209  1.0000
  H   H1880     1.0  0.57363  0.55983  0.53179  1.0000
  C   C2364     1.0  0.44421  0.55084  0.93014  1.0000
  C   C2365     1.0  0.42995  0.56335  0.93717  1.0000
  C   C2366     1.0  0.41352  0.55637  0.94636  1.0000
  P   P79       1.0  0.43309  0.58811  0.93583  1.0000
  C   C2367     1.0  0.42309  0.59787  0.96061  1.0000
  C   C2368     1.0  0.45770  0.59187  0.93504  1.0000
  C   C2369     1.0  0.46752  0.59087  0.95436  1.0000
  C   C2370     1.0  0.48650  0.59391  0.95402  1.0000
  C   C2371     1.0  0.49586  0.59784  0.93429  1.0000
  C   C2372     1.0  0.48630  0.59844  0.91486  1.0000
  C   C2373     1.0  0.46733  0.59532  0.91518  1.0000
  C   C2374     1.0  0.41535  0.61609  0.96064  1.0000
  C   C2375     1.0  0.40781  0.62350  0.97990  1.0000
  H   H1881     1.0  0.56129  0.69141  0.56949  1.0000
  C   C2376     1.0  0.51759  0.68621  0.82814  1.0000
  C   C2377     1.0  0.42322  0.58728  0.98027  1.0000
  C   C2378     1.0  0.42267  0.59933  0.91216  1.0000
  C   C2379     1.0  0.42771  0.61724  0.90542  1.0000
  C   C2380     1.0  0.42011  0.62602  0.88695  1.0000
  C   C2381     1.0  0.40729  0.61701  0.87504  1.0000
  C   C2382     1.0  0.40206  0.59920  0.88168  1.0000
  C   C2383     1.0  0.40971  0.59036  0.90018  1.0000
  H   H1882     1.0  0.45683  0.55584  0.92257  1.0000
  H   H1883     1.0  0.40222  0.56573  0.95164  1.0000
  H   H1884     1.0  0.46045  0.58796  0.96970  1.0000
  H   H1885     1.0  0.49383  0.59368  0.96915  1.0000
  H   H1886     1.0  0.51046  0.60067  0.93411  1.0000
  H   H1887     1.0  0.49349  0.60175  0.89958  1.0000
  H   H1888     1.0  0.46022  0.59588  0.89994  1.0000
  H   H1889     1.0  0.41545  0.62487  0.94607  1.0000
  H   H1890     1.0  0.54149  0.71534  0.58813  1.0000
  C   C2384     1.0  0.66462  0.62030  0.75137  1.0000
  C   C2385     1.0  0.61689  0.54781  0.51202  1.0000
  H   H1891     1.0  0.42942  0.57334  0.98097  1.0000
  H   H1892     1.0  0.43761  0.62444  0.91446  1.0000
  H   H1893     1.0  0.42421  0.63984  0.88190  1.0000
  H   H1894     1.0  0.40141  0.62389  0.86070  1.0000
  H   H1895     1.0  0.39207  0.59228  0.87244  1.0000
  H   H1896     1.0  0.40550  0.57659  0.90504  1.0000
  H   H1897     1.0  0.40274  0.55054  0.66345  1.0000
  C   C2386     1.0  0.44086  0.57917  0.63949  1.0000
  H   H1898     1.0  0.50405  0.66753  0.85102  1.0000
  C   C2387     1.0  0.45013  0.59565  0.63510  1.0000
  C   C2388     1.0  0.46813  0.59741  0.64220  1.0000
  C   C2389     1.0  0.47697  0.58281  0.65390  1.0000
  C   C2390     1.0  0.46778  0.56645  0.65856  1.0000
  C   C2391     1.0  0.44980  0.56462  0.65141  1.0000
  H   H1899     1.0  0.64964  0.59800  0.79803  1.0000
  H   H1900     1.0  0.48634  0.63494  0.67793  1.0000
  H   H1901     1.0  0.44344  0.60713  0.62610  1.0000
  H   H1902     1.0  0.47529  0.61006  0.63846  1.0000
  H   H1903     1.0  0.49098  0.58415  0.65925  1.0000
  H   H1904     1.0  0.47466  0.55511  0.66758  1.0000
  C   C2392     1.0  0.49743  0.71453  0.84952  1.0000
  C   C2393     1.0  0.40265  0.51555  0.62782  1.0000
  C   C2394     1.0  0.61357  0.54716  0.94224  1.0000
  S   S326      1.0  0.33721  0.56584  0.72806  1.0000
  H   H1905     1.0  0.33557  0.58661  0.60164  1.0000
  C   C2395     1.0  0.64513  0.61880  0.84021  1.0000
  C   C2396     1.0  0.64082  0.63794  0.84140  1.0000
  P   P80       1.0  0.62696  0.60280  0.83760  1.0000
  C   C2397     1.0  0.63590  0.58235  0.82396  1.0000
  C   C2398     1.0  0.61935  0.59763  0.86535  1.0000
  C   C2399     1.0  0.63054  0.58598  0.87880  1.0000
  C   C2400     1.0  0.62524  0.58251  0.90059  1.0000
  C   C2401     1.0  0.60905  0.59105  0.90933  1.0000
  C   C2402     1.0  0.59816  0.60313  0.89628  1.0000
  C   C2403     1.0  0.60337  0.60657  0.87442  1.0000
  C   C2404     1.0  0.63171  0.56446  0.83181  1.0000
  C   C2405     1.0  0.63864  0.54881  0.82079  1.0000
  C   C2406     1.0  0.64941  0.55093  0.80163  1.0000
  H   H1906     1.0  0.60984  0.71445  0.59399  1.0000
  C   C2407     1.0  0.64647  0.58434  0.80454  1.0000
  C   C2408     1.0  0.60912  0.61267  0.82015  1.0000
  C   C2409     1.0  0.61366  0.62540  0.80323  1.0000
  C   C2410     1.0  0.60000  0.63301  0.78960  1.0000
  C   C2411     1.0  0.58173  0.62767  0.79238  1.0000
  C   C2412     1.0  0.57720  0.61443  0.80860  1.0000
  C   C2413     1.0  0.59088  0.60679  0.82230  1.0000
  H   H1907     1.0  0.56449  0.73807  0.77005  1.0000
  C   C2414     1.0  0.49574  0.69602  0.85655  1.0000
  C   C2415     1.0  0.33610  0.67725  0.80053  1.0000
  H   H1908     1.0  0.55467  0.56231  0.59841  1.0000
  H   H1909     1.0  0.62674  0.64342  0.83946  1.0000
  H   H1910     1.0  0.64356  0.57983  0.87258  1.0000
  H   H1911     1.0  0.63394  0.57351  0.91083  1.0000
  H   H1912     1.0  0.60519  0.58865  0.92637  1.0000
  H   H1913     1.0  0.58588  0.61013  0.90326  1.0000
  H   H1914     1.0  0.59516  0.61655  0.86486  1.0000
  H   H1915     1.0  0.62311  0.56250  0.84636  1.0000
  H   H1916     1.0  0.63576  0.53503  0.82716  1.0000
  C   C2416     1.0  0.58680  0.70166  0.58045  1.0000
  C   C2417     1.0  0.40023  0.52491  0.64733  1.0000
  S   S327      1.0  0.34379  0.54855  0.66919  1.0000
  H   H1917     1.0  0.62777  0.62948  0.80043  1.0000
  H   H1918     1.0  0.60362  0.64309  0.77681  1.0000
  H   H1919     1.0  0.57116  0.63375  0.78181  1.0000
  H   H1920     1.0  0.56308  0.61009  0.81047  1.0000
  H   H1921     1.0  0.58724  0.59628  0.83447  1.0000
  H   H1922     1.0  0.59182  0.55331  0.65317  1.0000
  H   H1923     1.0  0.64350  0.57305  0.56863  1.0000
  H   H1924     1.0  0.52826  0.60066  0.00033  1.0000
  H   H1925     1.0  0.57332  0.52570  0.53808  1.0000
  C   C2418     1.0  0.59457  0.54717  0.93893  1.0000
  H   H1926     1.0  0.58430  0.51045  0.99749  1.0000
  S   S328      1.0  0.58860  0.74491  0.71185  1.0000
  H   H1927     1.0  0.43992  0.59630  0.55639  1.0000
  H   H1928     1.0  0.58843  0.51753  0.58587  1.0000
  H   H1929     1.0  0.61921  0.55812  0.95134  1.0000
  P   P81       1.0  0.51123  0.74310  0.82265  1.0000
  H   H1930     1.0  0.39908  0.62335  0.68599  1.0000
  C   C2419     1.0  0.55777  0.74215  0.67379  1.0000
  H   H1931     1.0  0.44417  0.58468  0.59397  1.0000
  C   C2420     1.0  0.48541  0.51642  0.96481  1.0000
  C   C2421     1.0  0.64698  0.50719  0.88962  1.0000
  C   C2422     1.0  0.65189  0.63561  0.74851  1.0000
  H   H1932     1.0  0.39394  0.51810  0.66152  1.0000
  C   C2423     1.0  0.52205  0.74434  0.79569  1.0000
  C   C2424     1.0  0.41022  0.59844  0.55950  1.0000
  C   C2425     1.0  0.56157  0.53002  0.99085  1.0000
  S   S329      1.0  0.57407  0.63195  0.51703  1.0000
  C   C2426     1.0  0.64100  0.51441  0.60160  1.0000
  C   C2427     1.0  0.59171  0.51613  0.62067  1.0000
  H   H1933     1.0  0.53731  0.54845  0.98916  1.0000
  C   C2428     1.0  0.58861  0.55509  0.61824  1.0000
  C   C2429     1.0  0.42649  0.52493  0.94371  1.0000
  H   H1934     1.0  0.58617  0.55169  0.58349  1.0000
  H   H1935     1.0  0.59292  0.50109  0.62154  1.0000
  C   C2430     1.0  0.62528  0.53270  0.93453  1.0000
  C   C2431     1.0  0.63046  0.74165  0.63635  1.0000
  S   S330      1.0  0.62049  0.53153  0.99300  1.0000
  H   H1936     1.0  0.40847  0.60263  0.54255  1.0000
  C   C2432     1.0  0.65254  0.56748  0.65100  1.0000
  H   H1937     1.0  0.65821  0.73967  0.64819  1.0000
  C   C2433     1.0  0.46632  0.59355  0.51206  1.0000
  H   H1938     1.0  0.44319  0.53094  0.99329  1.0000
  H   H1939     1.0  0.64918  0.58186  0.65474  1.0000
  C   C2434     1.0  0.61667  0.52837  0.51534  1.0000
  C   C2435     1.0  0.58789  0.54475  0.59930  1.0000
  C   C2436     1.0  0.34879  0.66916  0.81508  1.0000
  H   H1940     1.0  0.42539  0.51015  0.94709  1.0000
  H   H1941     1.0  0.36058  0.67673  0.81976  1.0000
  C   C2437     1.0  0.41032  0.52452  0.60939  1.0000
  H   H1942     1.0  0.52452  0.50467  0.51205  1.0000
  P   P82       1.0  0.41753  0.57694  0.63040  1.0000
  H   H1943     1.0  0.48221  0.54378  0.94968  1.0000
  H   H1944     1.0  0.63989  0.53269  0.93767  1.0000
  C   C2438     1.0  0.65470  0.65022  0.84510  1.0000
  C   C2439     1.0  0.40510  0.54340  0.64832  1.0000
  H   H1945     1.0  0.42123  0.60785  0.66051  1.0000
  H   H1946     1.0  0.66163  0.57043  0.77864  1.0000
  H   H1947     1.0  0.47021  0.66451  0.74821  1.0000
  H   H1948     1.0  0.49811  0.67333  0.72698  1.0000
  C   C2440     1.0  0.63084  0.58123  0.57192  1.0000
  C   C2441     1.0  0.62589  0.59623  0.55802  1.0000
  C   C2442     1.0  0.60954  0.60678  0.56217  1.0000
  C   C2443     1.0  0.59792  0.60211  0.57994  1.0000
  C   C2444     1.0  0.60242  0.58668  0.59349  1.0000
  C   C2445     1.0  0.61925  0.57657  0.58975  1.0000
  P   P83       1.0  0.58716  0.58017  0.61602  1.0000
  C   C2446     1.0  0.59374  0.59120  0.64040  1.0000
  C   C2447     1.0  0.56358  0.58826  0.61068  1.0000
  C   C2448     1.0  0.55087  0.57653  0.60201  1.0000
  C   C2449     1.0  0.53300  0.58334  0.59710  1.0000
  C   C2450     1.0  0.52766  0.60185  0.60072  1.0000
  C   C2451     1.0  0.54005  0.61350  0.60973  1.0000
  C   C2452     1.0  0.55790  0.60675  0.61476  1.0000
  C   C2453     1.0  0.60940  0.60205  0.64023  1.0000
  C   C2454     1.0  0.61314  0.61225  0.65840  1.0000
  C   C2455     1.0  0.60135  0.61170  0.67685  1.0000
  C   C2456     1.0  0.58585  0.60080  0.67725  1.0000
  C   C2457     1.0  0.58200  0.59064  0.65907  1.0000
  H   H1949     1.0  0.52350  0.57444  0.58962  1.0000
  C   C2458     1.0  0.55716  0.59159  0.99676  1.0000
  C   C2459     1.0  0.50575  0.68187  0.84581  1.0000
  C   C2460     1.0  0.47766  0.50156  0.51870  1.0000
  H   H1950     1.0  0.57765  0.72359  0.65838  1.0000
  C   C2461     1.0  0.58921  0.52537  0.60057  1.0000
  C   C2462     1.0  0.53921  0.74597  0.75400  1.0000
  H   H1951     1.0  0.63451  0.59951  0.54377  1.0000
  H   H1952     1.0  0.60561  0.61831  0.55128  1.0000
  H   H1953     1.0  0.58527  0.61036  0.58277  1.0000
  H   H1954     1.0  0.62328  0.56491  0.60036  1.0000
  C   C2463     1.0  0.59265  0.52629  0.63956  1.0000
  S   S331      1.0  0.60173  0.58351  0.51282  1.0000
  H   H1955     1.0  0.51409  0.60728  0.59598  1.0000
  H   H1956     1.0  0.53608  0.62800  0.61207  1.0000
  H   H1957     1.0  0.56741  0.61620  0.62122  1.0000
  H   H1958     1.0  0.61833  0.60339  0.62584  1.0000
  C   C2464     1.0  0.51934  0.70469  0.82106  1.0000
  H   H1959     1.0  0.60392  0.62025  0.69054  1.0000
  H   H1960     1.0  0.57650  0.60080  0.69141  1.0000
  H   H1961     1.0  0.56951  0.58289  0.65926  1.0000
  H   H1962     1.0  0.42096  0.54972  0.59581  1.0000
  H   H1963     1.0  0.47462  0.72974  0.81433  1.0000
  H   H1964     1.0  0.40252  0.63779  0.97995  1.0000
  C   C2465     1.0  0.59106  0.54572  0.63838  1.0000
  C   C2466     1.0  0.40255  0.60128  0.72841  1.0000
  C   C2467     1.0  0.41281  0.58579  0.72083  1.0000
  C   C2468     1.0  0.43217  0.58577  0.71987  1.0000
  C   C2469     1.0  0.44127  0.60135  0.72620  1.0000
  C   C2470     1.0  0.43103  0.61734  0.73273  1.0000
  C   C2471     1.0  0.41159  0.61693  0.73445  1.0000
  P   P84       1.0  0.44264  0.63713  0.74207  1.0000
  C   C2472     1.0  0.42720  0.65740  0.73993  1.0000
  C   C2473     1.0  0.44825  0.63141  0.76999  1.0000
  C   C2474     1.0  0.43395  0.62726  0.78509  1.0000
  C   C2475     1.0  0.43795  0.62197  0.80657  1.0000
  C   C2476     1.0  0.45628  0.62091  0.81321  1.0000
  C   C2477     1.0  0.47064  0.62491  0.79826  1.0000
  C   C2478     1.0  0.46670  0.62992  0.77666  1.0000
  C   C2479     1.0  0.41756  0.66099  0.72066  1.0000
  C   C2480     1.0  0.40600  0.67696  0.71831  1.0000
  C   C2481     1.0  0.40433  0.68967  0.73498  1.0000
  C   C2482     1.0  0.41424  0.68641  0.75395  1.0000
  C   C2483     1.0  0.42561  0.67030  0.75655  1.0000
  C   C2484     1.0  0.46278  0.64362  0.72585  1.0000
  C   C2485     1.0  0.47374  0.65763  0.73309  1.0000
  C   C2486     1.0  0.48950  0.66280  0.72101  1.0000
  C   C2487     1.0  0.49419  0.65441  0.70132  1.0000
  C   C2488     1.0  0.48289  0.64108  0.69346  1.0000
  C   C2489     1.0  0.46711  0.63582  0.70556  1.0000
  H   H1965     1.0  0.38753  0.60116  0.72973  1.0000
  H   H1966     1.0  0.40570  0.57372  0.71610  1.0000
  H   H1967     1.0  0.44012  0.57355  0.71458  1.0000
  H   H1968     1.0  0.45627  0.60086  0.72622  1.0000
  H   H1969     1.0  0.40332  0.62856  0.74081  1.0000
  H   H1970     1.0  0.41965  0.62820  0.78030  1.0000
  H   H1971     1.0  0.42674  0.61922  0.81822  1.0000
  H   H1972     1.0  0.45927  0.61740  0.83004  1.0000
  H   H1973     1.0  0.48484  0.62432  0.80345  1.0000
  H   H1974     1.0  0.47815  0.63255  0.76540  1.0000
  H   H1975     1.0  0.41902  0.65145  0.70742  1.0000
  H   H1976     1.0  0.39847  0.67959  0.70350  1.0000
  H   H1977     1.0  0.65642  0.70663  0.66041  1.0000
  H   H1978     1.0  0.41318  0.69649  0.76659  1.0000
  H   H1979     1.0  0.43328  0.66813  0.77135  1.0000
  C   C2490     1.0  0.41555  0.59472  0.99943  1.0000
  H   H1980     1.0  0.36551  0.65483  0.74441  1.0000
  H   H1981     1.0  0.44297  0.55181  0.65515  1.0000
  C   C2491     1.0  0.65314  0.56871  0.79339  1.0000
  H   H1982     1.0  0.62330  0.52118  0.57450  1.0000
  C   C2492     1.0  0.44248  0.53169  0.93348  1.0000
  H   H1983     1.0  0.63402  0.52500  0.65522  1.0000
  H   H1984     1.0  0.62334  0.74695  0.68517  1.0000
  H   H1985     1.0  0.39550  0.70214  0.73315  1.0000
  C   C2493     1.0  0.38295  0.58391  0.65079  1.0000
  H   H1986     1.0  0.65506  0.53885  0.79325  1.0000
  C   C2494     1.0  0.37636  0.60680  0.67826  1.0000
  C   C2495     1.0  0.48428  0.59347  0.52015  1.0000
  C   C2496     1.0  0.64469  0.71380  0.65282  1.0000
  H   H1987     1.0  0.36670  0.61344  0.68982  1.0000
  Fe  Fe166     1.0  0.65066  0.53812  0.99252  1.0000
  H   H1988     1.0  0.41207  0.51732  0.59416  1.0000
  C   C2497     1.0  0.40144  0.58903  0.64886  1.0000
  C   C2498     1.0  0.41234  0.55268  0.62970  1.0000
  C   C2499     1.0  0.66238  0.53152  0.86854  1.0000
  H   H1989     1.0  0.58553  0.55823  0.94543  1.0000
  H   H1990     1.0  0.48439  0.50948  0.94960  1.0000
  C   C2500     1.0  0.39475  0.59614  0.57338  1.0000
  C   C2501     1.0  0.50937  0.71907  0.83181  1.0000
  C   C2502     1.0  0.66330  0.61207  0.84392  1.0000
  S   S332      1.0  0.38097  0.56598  0.51180  1.0000
  H   H1991     1.0  0.59537  0.69104  0.57243  1.0000
  C   C2503     1.0  0.56444  0.72844  0.60193  1.0000
  H   H1992     1.0  0.55390  0.73201  0.68629  1.0000
  H   H1993     1.0  0.35652  0.64484  0.83443  1.0000
  C   C2504     1.0  0.33826  0.56992  0.63124  1.0000
  C   C2505     1.0  0.62848  0.70449  0.65006  1.0000
  C   C2506     1.0  0.57145  0.73751  0.65803  1.0000
  C   C2507     1.0  0.47288  0.74418  0.81840  1.0000
  H   H1994     1.0  0.48413  0.56015  0.98437  1.0000
  H   H1995     1.0  0.56826  0.53602  0.97643  1.0000
  H   H1996     1.0  0.37813  0.57301  0.64105  1.0000
  S   S333      1.0  0.59344  0.57902  0.99143  1.0000
  H   H1997     1.0  0.48633  0.69257  0.87005  1.0000
  H   H1998     1.0  0.65135  0.66500  0.84546  1.0000
  H   H1999     1.0  0.60070  0.70619  0.63897  1.0000
  C   C2508     1.0  0.48527  0.54513  0.98424  1.0000
  C   C2509     1.0  0.61391  0.73254  0.63391  1.0000
  C   C2510     1.0  0.58374  0.72806  0.60411  1.0000
  H   H2000     1.0  0.62774  0.69006  0.65531  1.0000
  C   C2511     1.0  0.41484  0.58666  0.60312  1.0000
  H   H2001     1.0  0.38093  0.59842  0.56715  1.0000
  H   H2002     1.0  0.66598  0.54593  0.86644  1.0000
  C   C2512     1.0  0.42797  0.59474  0.56729  1.0000
  C   C2513     1.0  0.43031  0.58848  0.58882  1.0000
  C   C2514     1.0  0.34650  0.65111  0.82334  1.0000
  Fe  Fe167     1.0  0.41111  0.55868  0.51717  1.0000
  H   H2003     1.0  0.52817  0.70748  0.80691  1.0000
  H   H2004     1.0  0.59310  0.50741  0.91106  1.0000
  C   C2515     1.0  0.61817  0.51824  0.92311  1.0000
  C   C2516     1.0  0.64411  0.53536  0.65135  1.0000
  C   C2517     1.0  0.63223  0.51067  0.58237  1.0000
  H   H2005     1.0  0.65928  0.56830  0.95225  1.0000
  C   C2518     1.0  0.61311  0.71380  0.64083  1.0000
  C   C2519     1.0  0.65929  0.64607  0.78395  1.0000
  C   C2520     1.0  0.39701  0.59026  0.59508  1.0000
  Fe  Fe168     1.0  0.57513  0.60056  0.51992  1.0000
  H   H2006     1.0  0.35642  0.58827  0.66715  1.0000
  H   H2007     1.0  0.65742  0.65612  0.79659  1.0000
  C   C2521     1.0  0.64569  0.73236  0.64592  1.0000
  H   H2008     1.0  0.59454  0.51909  0.65513  1.0000
  H   H2009     1.0  0.51497  0.53708  0.50317  1.0000
  H   H2010     1.0  0.54956  0.73663  0.80685  1.0000
  H   H2011     1.0  0.62467  0.62137  0.65788  1.0000
  H   H2012     1.0  0.55555  0.73864  0.61019  1.0000
  H   H2013     1.0  0.51633  0.73939  0.87018  1.0000
  C   C2522     1.0  0.54414  0.53697  0.99801  1.0000
  H   H2014     1.0  0.62864  0.51965  0.51072  1.0000
  H   H2015     1.0  0.43396  0.74313  0.98094  1.0000
  H   H2016     1.0  0.62907  0.55400  0.50479  1.0000
  C   C2523     1.0  0.48584  0.53272  0.50765  1.0000
  C   C2524     1.0  0.66137  0.53019  0.64161  1.0000
  H   H2017     1.0  0.48176  0.54704  0.50371  1.0000
  H   H2018     1.0  0.54591  0.74646  0.73792  1.0000
  C   C2525     1.0  0.50456  0.52704  0.50716  1.0000
  H   H2019     1.0  0.33793  0.69125  0.79416  1.0000
  H   H2020     1.0  0.39823  0.50148  0.62680  1.0000
  C   C2526     1.0  0.52014  0.74985  0.75658  1.0000
  C   C2527     1.0  0.51155  0.74900  0.77734  1.0000
  C   C2528     1.0  0.40795  0.61285  0.99929  1.0000
  C   C2529     1.0  0.52456  0.75051  0.86364  1.0000
  Fe  Fe169     1.0  0.62723  0.84501  0.39374  1.0000
  S   S334      1.0  0.60276  0.85843  0.41162  1.0000
  S   S335      1.0  0.62952  0.81495  0.38163  1.0000
  Fe  Fe170     1.0  0.65077  0.87919  0.39860  1.0000
  S   S336      1.0  0.62725  0.89459  0.41685  1.0000
  Fe  Fe171     1.0  0.62309  0.86774  0.43603  1.0000
  S   S337      1.0  0.61409  0.86500  0.47283  1.0000
  Fe  Fe172     1.0  0.60869  0.88442  0.39129  1.0000
  S   S338      1.0  0.58361  0.90201  0.37769  1.0000
  S   S339      1.0  0.64745  0.85286  0.41909  1.0000
  S   S340      1.0  0.63229  0.87046  0.37214  1.0000
  Fe  Fe173     1.0  0.36775  0.88366  0.14842  1.0000
  S   S341      1.0  0.38809  0.90421  0.13426  1.0000
  C   C2530     1.0  0.34129  0.83858  0.09281  1.0000
  Fe  Fe174     1.0  0.39760  0.85149  0.14714  1.0000
  S   S342      1.0  0.41911  0.87054  0.13277  1.0000
  S   S343      1.0  0.40685  0.82030  0.14745  1.0000
  Fe  Fe175     1.0  0.40884  0.89123  0.15784  1.0000
  S   S344      1.0  0.43155  0.90788  0.17421  1.0000
  Fe  Fe176     1.0  0.39714  0.88222  0.11022  1.0000
  S   S345      1.0  0.40421  0.89010  0.07386  1.0000
  S   S346      1.0  0.38803  0.87159  0.17336  1.0000
  S   S347      1.0  0.37621  0.86231  0.12330  1.0000
  Fe  Fe177     1.0  0.49520  0.97514  0.25577  1.0000
  S   S348      1.0  0.50026  0.97321  0.29201  1.0000
  S   S349      1.0  0.47133  0.95706  0.24456  1.0000
  Fe  Fe178     1.0  0.53073  0.97411  0.28352  1.0000
  S   S350      1.0  0.55522  0.95590  0.29806  1.0000
  S   S351      1.0  0.52601  0.97460  0.24706  1.0000
  C   C2531     1.0  0.44277  0.92102  0.19425  1.0000
  C   C2532     1.0  0.43428  0.92519  0.21449  1.0000
  C   C2533     1.0  0.44329  0.93591  0.22959  1.0000
  C   C2534     1.0  0.46104  0.94272  0.22497  1.0000
  C   C2535     1.0  0.46967  0.93834  0.20486  1.0000
  C   C2536     1.0  0.46060  0.92768  0.18969  1.0000
  H   H2021     1.0  0.42069  0.92019  0.21853  1.0000
  H   H2022     1.0  0.43632  0.93906  0.24496  1.0000
  H   H2023     1.0  0.48326  0.94338  0.20083  1.0000
  H   H2024     1.0  0.46746  0.92465  0.17423  1.0000
  C   C2537     1.0  0.40510  0.80068  0.16600  1.0000
  C   C2538     1.0  0.41494  0.78392  0.16102  1.0000
  C   C2539     1.0  0.41381  0.76794  0.17491  1.0000
  C   C2540     1.0  0.40261  0.76833  0.19393  1.0000
  C   C2541     1.0  0.39279  0.78508  0.19892  1.0000
  C   C2542     1.0  0.39407  0.80115  0.18516  1.0000
  H   H2025     1.0  0.42358  0.78333  0.14633  1.0000
  H   H2026     1.0  0.55510  0.77539  0.43218  1.0000
  H   H2027     1.0  0.38409  0.78565  0.21356  1.0000
  H   H2028     1.0  0.38639  0.81383  0.18930  1.0000
  H   H2029     1.0  0.40106  0.81404  0.08515  1.0000
  C   C2543     1.0  0.40708  0.89440  0.02878  1.0000
  C   C2544     1.0  0.39859  0.88468  0.04644  1.0000
  C   C2545     1.0  0.38643  0.87088  0.04167  1.0000
  H   H2030     1.0  0.54959  0.89720  0.32319  1.0000
  H   H2031     1.0  0.41658  0.90504  0.03204  1.0000
  H   H2032     1.0  0.37988  0.86306  0.05488  1.0000
  C   C2546     1.0  0.39150  0.93812  0.17995  1.0000
  C   C2547     1.0  0.57617  0.91677  0.35518  1.0000
  C   C2548     1.0  0.55774  0.92408  0.35531  1.0000
  C   C2549     1.0  0.55109  0.93591  0.33816  1.0000
  C   C2550     1.0  0.56276  0.94082  0.32041  1.0000
  C   C2551     1.0  0.58115  0.93329  0.32015  1.0000
  C   C2552     1.0  0.58781  0.92142  0.33732  1.0000
  H   H2033     1.0  0.54847  0.92051  0.36883  1.0000
  H   H2034     1.0  0.53689  0.94104  0.33870  1.0000
  H   H2035     1.0  0.59034  0.93671  0.30655  1.0000
  H   H2036     1.0  0.60194  0.91590  0.33673  1.0000
  H   H2037     1.0  0.63588  0.90632  0.33808  1.0000
  H   H2038     1.0  0.57157  0.80733  0.26752  1.0000
  C   C2553     1.0  0.59804  0.78318  0.47462  1.0000
  C   C2554     1.0  0.50576  0.98114  0.35982  1.0000
  C   C2555     1.0  0.59682  0.77083  0.34725  1.0000
  C   C2556     1.0  0.58834  0.78833  0.35191  1.0000
  C   C2557     1.0  0.59784  0.80184  0.36282  1.0000
  C   C2558     1.0  0.61623  0.79824  0.36880  1.0000
  C   C2559     1.0  0.62462  0.78070  0.36431  1.0000
  C   C2560     1.0  0.61499  0.76705  0.35386  1.0000
  H   H2039     1.0  0.57429  0.79145  0.34710  1.0000
  H   H2040     1.0  0.59101  0.81508  0.36645  1.0000
  H   H2041     1.0  0.63883  0.77770  0.36875  1.0000
  H   H2042     1.0  0.37397  0.85588  0.01643  1.0000
  C   C2561     1.0  0.50768  0.75345  0.27498  1.0000
  C   C2562     1.0  0.35602  0.93603  0.16372  1.0000
  H   H2043     1.0  0.56061  0.86841  0.39784  1.0000
  C   C2563     1.0  0.55947  0.86326  0.36365  1.0000
  H   H2044     1.0  0.57132  0.83972  0.27939  1.0000
  H   H2045     1.0  0.34996  0.91977  0.11642  1.0000
  C   C2564     1.0  0.66582  0.92835  0.27169  1.0000
  C   C2565     1.0  0.46851  0.97554  0.37892  1.0000
  C   C2566     1.0  0.52124  0.86100  0.37112  1.0000
  H   H2046     1.0  0.45906  0.97187  0.33475  1.0000
  C   C2567     1.0  0.53265  0.86428  0.38838  1.0000
  C   C2568     1.0  0.53666  0.86953  0.28296  1.0000
  C   C2569     1.0  0.59290  0.76864  0.44035  1.0000
  C   C2570     1.0  0.49774  0.79690  0.28171  1.0000
  C   C2571     1.0  0.49778  0.81478  0.28983  1.0000
  C   C2572     1.0  0.48383  0.82078  0.30459  1.0000
  P   P85       1.0  0.41763  0.80585  0.00713  1.0000
  C   C2573     1.0  0.65612  0.93659  0.25429  1.0000
  H   H2047     1.0  0.49700  0.99926  0.38606  1.0000
  C   C2574     1.0  0.41721  0.81813  0.03233  1.0000
  H   H2048     1.0  0.62101  0.91652  0.37261  1.0000
  H   H2049     1.0  0.45501  0.81992  0.00624  1.0000
  C   C2575     1.0  0.43636  0.77629  0.02916  1.0000
  C   C2576     1.0  0.45972  0.96799  0.39770  1.0000
  H   H2050     1.0  0.62291  0.84019  0.33371  1.0000
  H   H2051     1.0  0.55725  0.78307  0.29111  1.0000
  C   C2577     1.0  0.52713  0.88301  0.27015  1.0000
  C   C2578     1.0  0.63778  0.94318  0.25748  1.0000
  C   C2579     1.0  0.40865  0.81034  0.05115  1.0000
  H   H2052     1.0  0.52707  0.77523  0.37175  1.0000
  H   H2053     1.0  0.59832  0.78245  0.49224  1.0000
  C   C2580     1.0  0.51618  0.94864  0.39364  1.0000
  H   H2054     1.0  0.50850  0.79255  0.27003  1.0000
  H   H2055     1.0  0.50855  0.82402  0.28452  1.0000
  H   H2056     1.0  0.48374  0.83471  0.31070  1.0000
  C   C2581     1.0  0.47304  0.76322  0.25120  1.0000
  H   H2057     1.0  0.34598  0.86769  0.09204  1.0000
  H   H2058     1.0  0.57426  0.86457  0.36121  1.0000
  H   H2059     1.0  0.54206  0.79130  0.32634  1.0000
  C   C2582     1.0  0.50679  0.99681  0.37265  1.0000
  C   C2583     1.0  0.51930  0.75459  0.29274  1.0000
  C   C2584     1.0  0.62122  0.86654  0.50062  1.0000
  C   C2585     1.0  0.42153  0.93989  0.12634  1.0000
  C   C2586     1.0  0.38575  0.95053  0.16319  1.0000
  C   C2587     1.0  0.48225  0.95271  0.34209  1.0000
  C   C2588     1.0  0.37956  0.92489  0.18865  1.0000
  C   C2589     1.0  0.33647  0.90004  0.07021  1.0000
  C   C2590     1.0  0.42425  0.83590  0.03317  1.0000
  C   C2591     1.0  0.62914  0.94157  0.27808  1.0000
  H   H2060     1.0  0.53735  0.85533  0.27783  1.0000
  H   H2061     1.0  0.44731  0.76474  0.19656  1.0000
  H   H2062     1.0  0.37605  0.92059  0.05264  1.0000
  H   H2063     1.0  0.34485  0.86869  0.03009  1.0000
  H   H2064     1.0  0.52077  0.87917  0.25532  1.0000
  C   C2592     1.0  0.54336  0.89307  0.30841  1.0000
  C   C2593     1.0  0.54509  0.87453  0.30206  1.0000
  H   H2065     1.0  0.52934  0.78666  0.40922  1.0000
  H   H2066     1.0  0.58954  0.83492  0.33335  1.0000
  H   H2067     1.0  0.60573  0.81334  0.43183  1.0000
  C   C2594     1.0  0.48379  0.78483  0.28842  1.0000
  C   C2595     1.0  0.52892  0.85892  0.35010  1.0000
  C   C2596     1.0  0.62028  0.86744  0.31823  1.0000
  C   C2597     1.0  0.39110  0.98919  0.14538  1.0000
  C   C2598     1.0  0.49841  0.91528  0.40114  1.0000
  H   H2068     1.0  0.42929  0.85887  0.05342  1.0000
  H   H2069     1.0  0.33370  0.81023  0.09057  1.0000
  H   H2070     1.0  0.50474  0.93175  0.34332  1.0000
  H   H2071     1.0  0.36358  0.95804  0.14127  1.0000
  C   C2599     1.0  0.63827  0.92426  0.50095  1.0000
  C   C2600     1.0  0.47291  0.93542  0.30384  1.0000
  H   H2072     1.0  0.35268  0.91333  0.18695  1.0000
  C   C2601     1.0  0.56438  0.82940  0.28949  1.0000
  C   C2602     1.0  0.41977  0.77242  0.09701  1.0000
  C   C2603     1.0  0.43657  0.78114  0.09407  1.0000
  C   C2604     1.0  0.45321  0.77049  0.09324  1.0000
  H   H2073     1.0  0.63683  0.93769  0.39593  1.0000
  P   P86       1.0  0.40170  0.96642  0.15047  1.0000
  P   P87       1.0  0.48379  0.76194  0.27735  1.0000
  H   H2074     1.0  0.47689  0.92739  0.38117  1.0000
  C   C2605     1.0  0.41778  0.97394  0.18956  1.0000
  H   H2075     1.0  0.47106  0.79332  0.24809  1.0000
  C   C2606     1.0  0.37482  0.99503  0.15677  1.0000
  C   C2607     1.0  0.56459  0.81107  0.28273  1.0000
  H   H2076     1.0  0.41478  0.84474  0.08657  1.0000
  C   C2608     1.0  0.52595  0.90152  0.27630  1.0000
  C   C2609     1.0  0.40626  0.95138  0.08668  1.0000
  C   C2610     1.0  0.36435  0.92172  0.08525  1.0000
  C   C2611     1.0  0.36180  0.92389  0.18060  1.0000
  C   C2612     1.0  0.43244  0.97828  0.20250  1.0000
  H   H2077     1.0  0.59681  0.78642  0.41156  1.0000
  C   C2613     1.0  0.36464  0.91672  0.06348  1.0000
  H   H2078     1.0  0.40689  0.78070  0.09811  1.0000
  H   H2079     1.0  0.43670  0.79617  0.09280  1.0000
  H   H2080     1.0  0.46623  0.77729  0.09107  1.0000
  C   C2614     1.0  0.38305  0.86686  0.01973  1.0000
  H   H2081     1.0  0.51993  0.85655  0.33681  1.0000
  C   C2615     1.0  0.58910  0.87837  0.30963  1.0000
  C   C2616     1.0  0.54812  0.85989  0.34625  1.0000
  C   C2617     1.0  0.59712  0.78532  0.42920  1.0000
  C   C2618     1.0  0.58217  0.86164  0.31810  1.0000
  C   C2619     1.0  0.42384  0.84515  0.05283  1.0000
  C   C2620     1.0  0.52449  0.93433  0.40636  1.0000
  H   H2082     1.0  0.50644  0.86016  0.37404  1.0000
  H   H2083     1.0  0.49621  0.91658  0.30999  1.0000
  C   C2621     1.0  0.55444  0.77049  0.41576  1.0000
  C   C2622     1.0  0.51564  0.91766  0.41009  1.0000
  C   C2623     1.0  0.61352  0.85077  0.32668  1.0000
  C   C2624     1.0  0.64273  0.91607  0.34773  1.0000
  C   C2625     1.0  0.44423  0.75822  0.03083  1.0000
  H   H2084     1.0  0.39122  0.97249  0.10462  1.0000
  H   H2085     1.0  0.43009  0.98049  0.21974  1.0000
  C   C2626     1.0  0.54783  0.80209  0.31583  1.0000
  H   H2086     1.0  0.63024  0.94957  0.24402  1.0000
  C   C2627     1.0  0.59455  0.84787  0.32658  1.0000
  H   H2087     1.0  0.58962  0.75523  0.47226  1.0000
  H   H2088     1.0  0.46960  0.92916  0.28872  1.0000
  C   C2628     1.0  0.46710  0.95960  0.32999  1.0000
  H   H2089     1.0  0.61494  0.94681  0.28055  1.0000
  C   C2629     1.0  0.45892  0.78086  0.22118  1.0000
  H   H2090     1.0  0.51880  0.91203  0.26622  1.0000
  H   H2091     1.0  0.44390  0.75691  0.28127  1.0000
  H   H2092     1.0  0.40398  0.97335  0.19686  1.0000
  H   H2093     1.0  0.37551  0.92937  0.09130  1.0000
  H   H2094     1.0  0.53325  0.92093  0.30005  1.0000
  C   C2630     1.0  0.55173  0.86547  0.38460  1.0000
  H   H2095     1.0  0.42729  0.93506  0.14164  1.0000
  P   P88       1.0  0.55767  0.85756  0.31892  1.0000
  C   C2631     1.0  0.60811  0.88121  0.30967  1.0000
  C   C2632     1.0  0.46246  0.95093  0.31100  1.0000
  C   C2633     1.0  0.54762  0.82041  0.32269  1.0000
  C   C2634     1.0  0.63430  0.92174  0.36733  1.0000
  C   C2635     1.0  0.53404  0.90653  0.29543  1.0000
  H   H2096     1.0  0.54333  0.98812  0.32607  1.0000
  H   H2097     1.0  0.45129  0.75356  0.04544  1.0000
  H   H2098     1.0  0.63174  0.93249  0.31125  1.0000
  C   C2636     1.0  0.55583  0.83425  0.30949  1.0000
  C   C2637     1.0  0.41557  0.83721  0.07153  1.0000
  C   C2638     1.0  0.45360  0.97598  0.17128  1.0000
  C   C2639     1.0  0.53303  0.99069  0.33896  1.0000
  H   H2099     1.0  0.40013  0.95557  0.07134  1.0000
  C   C2640     1.0  0.40916  0.95544  0.12552  1.0000
  H   H2100     1.0  0.40247  0.79698  0.05067  1.0000
  C   C2641     1.0  0.46815  0.78035  0.24088  1.0000
  C   C2642     1.0  0.45032  0.97935  0.19336  1.0000
  H   H2101     1.0  0.52677  0.86601  0.40466  1.0000
  C   C2643     1.0  0.55642  0.79740  0.29595  1.0000
  C   C2644     1.0  0.60210  0.80066  0.44064  1.0000
  H   H2102     1.0  0.61337  0.89419  0.30332  1.0000
  C   C2645     1.0  0.49891  0.94634  0.38447  1.0000
  H   H2103     1.0  0.54168  0.82348  0.33861  1.0000
  H   H2104     1.0  0.35172  0.90188  0.03916  1.0000
  C   C2646     1.0  0.49009  0.92953  0.38832  1.0000
  C   C2647     1.0  0.36801  0.94919  0.15488  1.0000
  C   C2648     1.0  0.42100  0.97022  0.16743  1.0000
  C   C2649     1.0  0.40137  0.96103  0.10557  1.0000
  H   H2105     1.0  0.42169  0.75535  0.17103  1.0000
  H   H2106     1.0  0.40541  0.93818  0.18584  1.0000
  H   H2107     1.0  0.63490  0.86980  0.31866  1.0000
  C   C2650     1.0  0.46988  0.80887  0.31131  1.0000
  C   C2651     1.0  0.49275  0.93713  0.33466  1.0000
  H   H2108     1.0  0.52223  0.90657  0.41981  1.0000
  H   H2109     1.0  0.58003  0.88933  0.30307  1.0000
  C   C2652     1.0  0.63879  0.93333  0.29552  1.0000
  H   H2110     1.0  0.49159  0.90234  0.40400  1.0000
  H   H2111     1.0  0.45900  0.81356  0.32267  1.0000
  S   S352      1.0  0.58483  0.75497  0.33145  1.0000
  H   H2112     1.0  0.52348  0.96129  0.39077  1.0000
  C   C2653     1.0  0.41849  0.93581  0.08772  1.0000
  C   C2654     1.0  0.42612  0.93008  0.10754  1.0000
  H   H2113     1.0  0.38433  0.91504  0.20117  1.0000
  H   H2114     1.0  0.45479  0.79405  0.21340  1.0000
  H   H2115     1.0  0.42173  0.92787  0.07329  1.0000
  C   C2655     1.0  0.59320  0.76773  0.46320  1.0000
  C   C2656     1.0  0.43898  0.97159  0.15829  1.0000
  H   H2116     1.0  0.38933  0.77733  0.00910  1.0000
  H   H2117     1.0  0.61929  0.90821  0.48380  1.0000
  H   H2118     1.0  0.60641  0.81157  0.47216  1.0000
  P   P89       1.0  0.48877  0.96405  0.36639  1.0000
  H   H2119     1.0  0.46480  0.95506  0.40517  1.0000
  C   C2657     1.0  0.35081  0.90586  0.05595  1.0000
  C   C2658     1.0  0.64317  0.93380  0.38043  1.0000
  H   H2120     1.0  0.62363  0.76279  0.41258  1.0000
  C   C2659     1.0  0.40782  0.81989  0.07066  1.0000
  S   S353      1.0  0.33632  0.89258  0.14967  1.0000
  C   C2660     1.0  0.60255  0.79961  0.46335  1.0000
  C   C2661     1.0  0.65987  0.92291  0.34069  1.0000
  H   H2121     1.0  0.64756  0.92601  0.48692  1.0000
  H   H2122     1.0  0.53797  0.93606  0.41307  1.0000
  H   H2123     1.0  0.51388  0.75992  0.30806  1.0000
  H   H2124     1.0  0.35205  0.83523  0.10435  1.0000
  H   H2125     1.0  0.64905  0.87458  0.49317  1.0000
  C   C2662     1.0  0.45465  0.76434  0.21165  1.0000
  H   H2126     1.0  0.43520  0.91770  0.10850  1.0000
  H   H2127     1.0  0.42965  0.84295  0.01866  1.0000
  C   C2663     1.0  0.53848  0.77044  0.38176  1.0000
  C   C2664     1.0  0.53976  0.77685  0.40283  1.0000
  H   H2128     1.0  0.34243  0.93475  0.15710  1.0000
  C   C2665     1.0  0.46984  0.79095  0.30328  1.0000
  C   C2666     1.0  0.48799  0.92847  0.31573  1.0000
  H   H2129     1.0  0.36812  0.98583  0.16854  1.0000
  H   H2130     1.0  0.43752  0.97145  0.42175  1.0000
  H   H2131     1.0  0.51853  0.96633  0.33286  1.0000
  C   C2667     1.0  0.62229  0.91434  0.49911  1.0000
  H   H2132     1.0  0.46820  0.99872  0.35558  1.0000
  C   C2668     1.0  0.51899  0.97822  0.34295  1.0000
  C   C2669     1.0  0.65723  0.92656  0.29246  1.0000
  H   H2133     1.0  0.46754  0.97652  0.16436  1.0000
  H   H2134     1.0  0.41294  0.99773  0.12282  1.0000
  H   H2135     1.0  0.46172  0.98230  0.20357  1.0000
  H   H2136     1.0  0.45113  0.95663  0.30135  1.0000
  C   C2670     1.0  0.40352  0.89053  0.00686  1.0000
  C   C2671     1.0  0.55191  0.75772  0.37363  1.0000
  H   H2137     1.0  0.44180  0.96925  0.14119  1.0000
  C   C2672     1.0  0.43744  0.99419  0.39816  1.0000
  H   H2138     1.0  0.43775  0.78548  0.04250  1.0000
  H   H2139     1.0  0.45886  0.78199  0.30861  1.0000
  C   C2673     1.0  0.33361  0.87529  0.02106  1.0000
  C   C2674     1.0  0.44422  0.97728  0.40723  1.0000
  C   C2675     1.0  0.42722  0.78239  0.01022  1.0000
  C   C2676     1.0  0.46159  0.99255  0.36998  1.0000
  H   H2140     1.0  0.55095  0.75270  0.35731  1.0000
  C   C2677     1.0  0.33775  0.85703  0.08581  1.0000
  C   C2678     1.0  0.66046  0.94028  0.37386  1.0000
  C   C2679     1.0  0.33616  0.90538  0.09200  1.0000
  C   C2680     1.0  0.56808  0.75779  0.40762  1.0000
  H   H2141     1.0  0.66282  0.93787  0.23832  1.0000
  C   C2681     1.0  0.35003  0.91619  0.09943  1.0000
  C   C2682     1.0  0.56674  0.75148  0.38643  1.0000
  H   H2142     1.0  0.62184  0.75380  0.35029  1.0000
  C   C2683     1.0  0.41960  0.75308  0.09935  1.0000
  C   C2684     1.0  0.45311  0.75115  0.09591  1.0000
  Fe  Fe179     1.0  0.62850  0.84429  0.65230  1.0000
  S   S354      1.0  0.60731  0.86113  0.63240  1.0000
  S   S355      1.0  0.62862  0.81253  0.66041  1.0000
  Fe  Fe180     1.0  0.65584  0.87644  0.65156  1.0000
  S   S356      1.0  0.63597  0.89446  0.63178  1.0000
  Fe  Fe181     1.0  0.61302  0.88480  0.65471  1.0000
  S   S357      1.0  0.59203  0.90868  0.66570  1.0000
  Fe  Fe182     1.0  0.63166  0.87003  0.61085  1.0000
  S   S358      1.0  0.63708  0.87309  0.57315  1.0000
  S   S359      1.0  0.63312  0.86756  0.67541  1.0000
  S   S360      1.0  0.65256  0.85238  0.62975  1.0000
  Fe  Fe183     1.0  0.36534  0.87627  0.89605  1.0000
  S   S361      1.0  0.38092  0.89762  0.91359  1.0000
  C   C2685     1.0  0.65505  0.92578  0.57755  1.0000
  Fe  Fe184     1.0  0.39867  0.84724  0.89751  1.0000
  S   S362      1.0  0.41573  0.86690  0.91555  1.0000
  S   S363      1.0  0.41404  0.81887  0.89092  1.0000
  Fe  Fe185     1.0  0.39026  0.87395  0.93660  1.0000
  S   S364      1.0  0.38614  0.87127  0.97452  1.0000
  Fe  Fe186     1.0  0.40573  0.88931  0.89135  1.0000
  S   S365      1.0  0.42898  0.90628  0.87344  1.0000
  S   S366      1.0  0.37389  0.85300  0.91979  1.0000
  S   S367      1.0  0.38947  0.86925  0.87258  1.0000
  Fe  Fe187     1.0  0.49606  0.98060  0.79434  1.0000
  S   S368      1.0  0.49609  0.97874  0.75765  1.0000
  S   S369      1.0  0.47084  0.96919  0.81476  1.0000
  Fe  Fe188     1.0  0.52753  0.97472  0.75880  1.0000
  S   S370      1.0  0.54601  0.95024  0.74421  1.0000
  S   S371      1.0  0.52718  0.97528  0.79579  1.0000
  C   C2686     1.0  0.44072  0.92424  0.85786  1.0000
  C   C2687     1.0  0.45955  0.92146  0.85142  1.0000
  C   C2688     1.0  0.46895  0.93485  0.83825  1.0000
  C   C2689     1.0  0.45977  0.95152  0.83146  1.0000
  C   C2690     1.0  0.44099  0.95436  0.83804  1.0000
  C   C2691     1.0  0.43156  0.94091  0.85099  1.0000
  H   H2143     1.0  0.46690  0.90871  0.85642  1.0000
  H   H2144     1.0  0.48331  0.93222  0.83333  1.0000
  H   H2145     1.0  0.43363  0.96710  0.83302  1.0000
  H   H2146     1.0  0.41713  0.94344  0.85566  1.0000
  H   H2147     1.0  0.61906  0.90806  0.58835  1.0000
  H   H2148     1.0  0.46852  0.98194  0.71574  1.0000
  C   C2692     1.0  0.41021  0.79665  0.87990  1.0000
  C   C2693     1.0  0.42509  0.78329  0.87863  1.0000
  C   C2694     1.0  0.42278  0.76545  0.87041  1.0000
  C   C2695     1.0  0.40549  0.76060  0.86325  1.0000
  C   C2696     1.0  0.39068  0.77402  0.86436  1.0000
  C   C2697     1.0  0.39299  0.79187  0.87256  1.0000
  H   H2149     1.0  0.43851  0.78673  0.88419  1.0000
  C   C2698     1.0  0.46772  0.78147  0.82897  1.0000
  H   H2150     1.0  0.37723  0.77056  0.85890  1.0000
  H   H2151     1.0  0.38138  0.80187  0.87335  1.0000
  C   C2699     1.0  0.57988  0.92020  0.68808  1.0000
  C   C2700     1.0  0.57132  0.93799  0.68446  1.0000
  C   C2701     1.0  0.56114  0.94741  0.70128  1.0000
  C   C2702     1.0  0.55917  0.93920  0.72221  1.0000
  C   C2703     1.0  0.56788  0.92148  0.72588  1.0000
  C   C2704     1.0  0.57810  0.91209  0.70906  1.0000
  H   H2152     1.0  0.57248  0.94457  0.66845  1.0000
  H   H2153     1.0  0.55464  0.96097  0.69796  1.0000
  H   H2154     1.0  0.56646  0.91480  0.74181  1.0000
  H   H2155     1.0  0.58424  0.89836  0.71217  1.0000
  C   C2705     1.0  0.63057  0.87007  0.54540  1.0000
  C   C2706     1.0  0.64348  0.87355  0.52814  1.0000
  C   C2707     1.0  0.61679  0.93799  0.58416  1.0000
  C   C2708     1.0  0.61298  0.86458  0.54000  1.0000
  H   H2156     1.0  0.39332  0.83476  0.98872  1.0000
  H   H2157     1.0  0.60282  0.86180  0.55287  1.0000
  C   C2709     1.0  0.59977  0.76337  0.69688  1.0000
  C   C2710     1.0  0.61670  0.76068  0.68541  1.0000
  C   C2711     1.0  0.62528  0.77586  0.67463  1.0000
  C   C2712     1.0  0.61708  0.79400  0.67484  1.0000
  C   C2713     1.0  0.60002  0.79665  0.68607  1.0000
  C   C2714     1.0  0.59152  0.78149  0.69704  1.0000
  H   H2158     1.0  0.45777  0.98243  0.67781  1.0000
  H   H2159     1.0  0.63850  0.77356  0.66616  1.0000
  H   H2160     1.0  0.59340  0.81039  0.68641  1.0000
  H   H2161     1.0  0.57845  0.78386  0.70579  1.0000
  H   H2162     1.0  0.39898  0.88446  0.72123  1.0000
  H   H2163     1.0  0.44837  0.88967  0.82997  1.0000
  C   C2715     1.0  0.50487  0.97111  0.85567  1.0000
  C   C2716     1.0  0.52352  0.96580  0.85845  1.0000
  C   C2717     1.0  0.53711  0.97912  0.85668  1.0000
  H   H2164     1.0  0.60623  0.78164  0.55336  1.0000
  P   P90       1.0  0.56129  0.97205  0.85857  1.0000
  H   H2165     1.0  0.59889  0.98288  0.84500  1.0000
  C   C2718     1.0  0.56471  0.95512  0.88046  1.0000
  C   C2719     1.0  0.55240  0.95478  0.89862  1.0000
  C   C2720     1.0  0.58040  0.94292  0.88011  1.0000
  C   C2721     1.0  0.42484  0.85029  0.74692  1.0000
  H   H2166     1.0  0.61673  0.80797  0.61316  1.0000
  H   H2167     1.0  0.36253  0.96250  0.78178  1.0000
  H   H2168     1.0  0.34277  0.80724  0.98096  1.0000
  C   C2722     1.0  0.38548  0.82237  0.99063  1.0000
  C   C2723     1.0  0.56784  0.96277  0.83238  1.0000
  H   H2169     1.0  0.43142  0.83674  0.74406  1.0000
  H   H2170     1.0  0.49725  0.78142  0.83124  1.0000
  C   C2724     1.0  0.63254  0.93212  0.67738  1.0000
  H   H2171     1.0  0.55293  0.78287  0.88133  1.0000
  S   S372      1.0  0.33344  0.87738  0.89145  1.0000
  C   C2725     1.0  0.42561  0.81806  0.96419  1.0000
  H   H2172     1.0  0.63898  0.98405  0.66170  1.0000
  H   H2173     1.0  0.49439  0.96082  0.85679  1.0000
  H   H2174     1.0  0.52733  0.95130  0.86160  1.0000
  H   H2175     1.0  0.53594  0.77411  0.81646  1.0000
  H   H2176     1.0  0.54056  0.96453  0.89961  1.0000
  H   H2177     1.0  0.59038  0.94342  0.86658  1.0000
  C   C2726     1.0  0.62415  0.97942  0.76742  1.0000
  H   H2178     1.0  0.38128  0.88258  0.78714  1.0000
  H   H2179     1.0  0.59548  0.92063  0.89695  1.0000
  C   C2727     1.0  0.60727  0.95428  0.59115  1.0000
  H   H2180     1.0  0.45714  0.86884  0.86068  1.0000
  H   H2181     1.0  0.63039  0.91764  0.68148  1.0000
  C   C2728     1.0  0.56611  0.94385  0.82858  1.0000
  H   H2182     1.0  0.44232  0.83868  0.86660  1.0000
  C   C2729     1.0  0.53564  0.76996  0.83355  1.0000
  C   C2730     1.0  0.55539  0.94191  0.91581  1.0000
  C   C2731     1.0  0.41475  0.85954  0.73052  1.0000
  C   C2732     1.0  0.60838  0.86287  0.51789  1.0000
  C   C2733     1.0  0.37586  0.98814  0.78621  1.0000
  H   H2183     1.0  0.41344  0.85313  0.71497  1.0000
  C   C2734     1.0  0.56973  0.93702  0.80774  1.0000
  H   H2184     1.0  0.46269  0.83824  0.93946  1.0000
  H   H2185     1.0  0.54577  0.94163  0.92970  1.0000
  H   H2186     1.0  0.40224  0.89929  0.75650  1.0000
  H   H2187     1.0  0.41802  0.92838  0.79118  1.0000
  H   H2188     1.0  0.62124  0.93040  0.64558  1.0000
  H   H2189     1.0  0.41804  0.82979  0.84204  1.0000
  C   C2735     1.0  0.63455  0.99227  0.54047  1.0000
  H   H2190     1.0  0.36110  0.83555  0.97683  1.0000
  C   C2736     1.0  0.39615  0.99848  0.75631  1.0000
  H   H2191     1.0  0.54893  0.78733  0.65875  1.0000
  H   H2192     1.0  0.62550  0.96339  0.63544  1.0000
  C   C2737     1.0  0.60640  0.78121  0.57098  1.0000
  H   H2193     1.0  0.46061  0.88453  0.78660  1.0000
  C   C2738     1.0  0.62023  0.96148  0.73543  1.0000
  C   C2739     1.0  0.60100  0.76531  0.58279  1.0000
  C   C2740     1.0  0.43675  0.82595  0.94768  1.0000
  C   C2741     1.0  0.61174  0.92079  0.59326  1.0000
  C   C2742     1.0  0.37186  0.97254  0.77465  1.0000
  C   C2743     1.0  0.42651  0.77033  0.99282  1.0000
  C   C2744     1.0  0.63033  0.97385  0.54545  1.0000
  C   C2745     1.0  0.63892  0.87173  0.50603  1.0000
  H   H2194     1.0  0.42712  0.99559  0.78348  1.0000
  H   H2195     1.0  0.61798  0.96840  0.53899  1.0000
  C   C2746     1.0  0.57084  0.92952  0.91514  1.0000
  C   C2747     1.0  0.64841  0.95724  0.75569  1.0000
  H   H2196     1.0  0.43435  0.75541  0.86973  1.0000
  H   H2197     1.0  0.44155  0.95150  0.78316  1.0000
  H   H2198     1.0  0.43490  0.85136  0.77923  1.0000
  H   H2199     1.0  0.35697  0.77823  0.99732  1.0000
  H   H2200     1.0  0.38413  0.92687  0.84686  1.0000
  H   H2201     1.0  0.59994  0.98162  0.74773  1.0000
  H   H2202     1.0  0.57901  0.97749  0.78056  1.0000
  C   C2748     1.0  0.61206  0.79659  0.58188  1.0000
  C   C2749     1.0  0.44385  0.99617  0.72841  1.0000
  H   H2203     1.0  0.56801  0.92251  0.80471  1.0000
  C   C2750     1.0  0.57475  0.94908  0.79051  1.0000
  H   H2204     1.0  0.41298  0.91284  0.83098  1.0000
  H   H2205     1.0  0.47436  0.94151  0.77666  1.0000
  C   C2751     1.0  0.59307  0.99286  0.85637  1.0000
  H   H2206     1.0  0.65214  0.94072  0.60756  1.0000
  P   P91       1.0  0.63615  0.93878  0.56482  1.0000
  H   H2207     1.0  0.56143  0.93446  0.84149  1.0000
  H   H2208     1.0  0.34612  0.86824  0.98992  1.0000
  H   H2209     1.0  0.43852  0.77740  0.82608  1.0000
  C   C2752     1.0  0.38214  0.89274  0.79957  1.0000
  H   H2210     1.0  0.47439  0.83425  0.97696  1.0000
  C   C2753     1.0  0.61861  0.91320  0.73881  1.0000
  C   C2754     1.0  0.43178  0.81633  0.98566  1.0000
  H   H2211     1.0  0.58564  0.96580  0.61246  1.0000
  C   C2755     1.0  0.64239  0.93158  0.52093  1.0000
  C   C2756     1.0  0.61349  0.97485  0.74999  1.0000
  C   C2757     1.0  0.36573  0.90075  0.80858  1.0000
  H   H2212     1.0  0.61120  0.92591  0.74336  1.0000
  C   C2758     1.0  0.63530  0.91347  0.72641  1.0000
  H   H2213     1.0  0.41226  0.81330  0.95994  1.0000
  C   C2759     1.0  0.53184  0.99756  0.85106  1.0000
  H   H2214     1.0  0.46564  0.79589  0.83319  1.0000
  H   H2215     1.0  0.41996  0.77494  0.97783  1.0000
  H   H2216     1.0  0.57316  0.91959  0.92850  1.0000
  H   H2217     1.0  0.60536  0.91618  0.55112  1.0000
  C   C2760     1.0  0.58338  0.93008  0.89735  1.0000
  H   H2218     1.0  0.43177  0.82741  0.93122  1.0000
  C   C2761     1.0  0.64192  0.96255  0.55875  1.0000
  H   H2219     1.0  0.59363  0.90649  0.61607  1.0000
  H   H2220     1.0  0.61886  0.98978  0.77871  1.0000
  H   H2221     1.0  0.57704  0.93517  0.62833  1.0000
  C   C2762     1.0  0.61229  0.79610  0.60460  1.0000
  C   C2763     1.0  0.39198  0.98282  0.74474  1.0000
  H   H2222     1.0  0.60702  0.78024  0.63404  1.0000
  C   C2764     1.0  0.62742  0.93929  0.65689  1.0000
  C   C2765     1.0  0.43165  0.99667  0.68568  1.0000
  C   C2766     1.0  0.42664  0.85857  0.76696  1.0000
  C   C2767     1.0  0.39140  0.87673  0.00205  1.0000
  C   C2768     1.0  0.46075  0.82974  0.97345  1.0000
  H   H2223     1.0  0.40880  0.85072  0.81117  1.0000
  C   C2769     1.0  0.64412  0.89657  0.72033  1.0000
  C   C2770     1.0  0.63056  0.92897  0.53927  1.0000
  C   C2771     1.0  0.63779  0.95263  0.73809  1.0000
  C   C2772     1.0  0.62013  0.87957  0.73954  1.0000
  C   C2773     1.0  0.40657  0.87717  0.73406  1.0000
  C   C2774     1.0  0.54572  0.77985  0.84795  1.0000
  H   H2224     1.0  0.59809  0.89621  0.75461  1.0000
  H   H2225     1.0  0.59466  0.85882  0.51414  1.0000
  C   C2775     1.0  0.61111  0.89630  0.74536  1.0000
  C   C2776     1.0  0.60684  0.78029  0.61642  1.0000
  C   C2777     1.0  0.45495  0.98801  0.71198  1.0000
  H   H2226     1.0  0.53405  0.75691  0.89527  1.0000
  H   H2227     1.0  0.37675  0.95783  0.74493  1.0000
  H   H2228     1.0  0.59841  0.90343  0.51595  1.0000
  C   C2778     1.0  0.44891  0.98832  0.69061  1.0000
  H   H2229     1.0  0.48385  0.90805  0.77810  1.0000
  C   C2779     1.0  0.57613  0.96797  0.79410  1.0000
  C   C2780     1.0  0.44967  0.82176  0.99001  1.0000
  H   H2230     1.0  0.57686  0.94393  0.77419  1.0000
  H   H2231     1.0  0.61097  0.96778  0.58474  1.0000
  C   C2781     1.0  0.63668  0.87972  0.72717  1.0000
  C   C2782     1.0  0.57269  0.97479  0.81492  1.0000
  H   H2232     1.0  0.65718  0.87762  0.53189  1.0000
  H   H2233     1.0  0.63177  0.75597  0.63118  1.0000
  C   C2783     1.0  0.62974  0.95794  0.65121  1.0000
  H   H2234     1.0  0.55386  0.79126  0.84187  1.0000
  P   P92       1.0  0.64600  0.93510  0.71928  1.0000
  C   C2784     1.0  0.48562  0.77316  0.82793  1.0000
  C   C2785     1.0  0.43229  0.92363  0.78848  1.0000
  H   H2235     1.0  0.39806  0.98050  0.72868  1.0000
  C   C2786     1.0  0.35691  0.80690  0.98633  1.0000
  H   H2236     1.0  0.44912  0.99617  0.74469  1.0000
  C   C2787     1.0  0.36645  0.91337  0.82528  1.0000
  C   C2788     1.0  0.38351  0.91765  0.83335  1.0000
  H   H2237     1.0  0.57178  0.77908  0.62997  1.0000
  C   C2789     1.0  0.41807  0.87607  0.77083  1.0000
  H   H2238     1.0  0.61628  0.80891  0.57277  1.0000
  C   C2790     1.0  0.60118  0.76473  0.60565  1.0000
  C   C2791     1.0  0.39987  0.90969  0.82435  1.0000
  C   C2792     1.0  0.59732  0.91983  0.60891  1.0000
  C   C2793     1.0  0.58796  0.93604  0.61582  1.0000
  C   C2794     1.0  0.59290  0.95326  0.60693  1.0000
  H   H2239     1.0  0.35242  0.89694  0.80293  1.0000
  H   H2240     1.0  0.65488  0.93915  0.52213  1.0000
  H   H2241     1.0  0.35379  0.91958  0.83227  1.0000
  C   C2795     1.0  0.37988  0.96990  0.75391  1.0000
  C   C2796     1.0  0.57507  0.99119  0.86536  1.0000
  C   C2797     1.0  0.49971  0.98962  0.85062  1.0000
  C   C2798     1.0  0.65795  0.96988  0.56673  1.0000
  C   C2799     1.0  0.61460  0.91882  0.53732  1.0000
  C   C2800     1.0  0.40835  0.88548  0.75408  1.0000
  C   C2801     1.0  0.42510  0.84259  0.83874  1.0000
  C   C2802     1.0  0.43877  0.84760  0.85268  1.0000
  C   C2803     1.0  0.44725  0.86449  0.84923  1.0000
  C   C2804     1.0  0.44225  0.87629  0.83170  1.0000
  C   C2805     1.0  0.42881  0.87121  0.81734  1.0000
  C   C2806     1.0  0.41996  0.85444  0.82127  1.0000
  P   P93       1.0  0.42081  0.88731  0.79622  1.0000
  C   C2807     1.0  0.39936  0.89758  0.80705  1.0000
  C   C2808     1.0  0.43763  0.90466  0.79003  1.0000
  C   C2809     1.0  0.45625  0.89909  0.78584  1.0000
  C   C2810     1.0  0.46943  0.91233  0.78094  1.0000
  C   C2811     1.0  0.46408  0.93119  0.77994  1.0000
  C   C2812     1.0  0.44552  0.93682  0.78359  1.0000
  C   C2813     1.0  0.45242  0.77110  0.82488  1.0000
  C   C2814     1.0  0.54519  0.77513  0.87018  1.0000
  H   H2242     1.0  0.64809  0.97166  0.69789  1.0000
  C   C2815     1.0  0.63997  0.94372  0.69239  1.0000
  H   H2243     1.0  0.61417  0.86648  0.74433  1.0000
  C   C2816     1.0  0.43446  0.75232  0.99451  1.0000
  H   H2244     1.0  0.57317  0.98956  0.81721  1.0000
  H   H2245     1.0  0.61164  0.95794  0.72217  1.0000
  H   H2246     1.0  0.51196  0.75325  0.74243  1.0000
  C   C2817     1.0  0.64159  0.97062  0.77026  1.0000
  H   H2247     1.0  0.41020  0.89824  0.99365  1.0000
  C   C2818     1.0  0.61049  0.91164  0.51728  1.0000
  H   H2248     1.0  0.64360  0.86673  0.72249  1.0000
  C   C2819     1.0  0.63729  0.96954  0.66601  1.0000
  H   H2249     1.0  0.65676  0.89637  0.71030  1.0000
  H   H2250     1.0  0.48530  0.99358  0.84789  1.0000
  C   C2820     1.0  0.36716  0.82283  0.98401  1.0000
  C   C2821     1.0  0.45422  0.83196  0.95232  1.0000
  C   C2822     1.0  0.56838  0.76865  0.64227  1.0000
  C   C2823     1.0  0.64238  0.96247  0.68652  1.0000
  C   C2824     1.0  0.55504  0.77335  0.65839  1.0000
  H   H2251     1.0  0.36965  0.99020  0.80229  1.0000
  C   C2825     1.0  0.65974  0.92987  0.59881  1.0000
  C   C2826     1.0  0.48829  0.75430  0.82305  1.0000
  H   H2252     1.0  0.64986  0.97420  0.78376  1.0000
  C   C2827     1.0  0.33427  0.87487  0.99835  1.0000
  C   C2828     1.0  0.53459  0.76049  0.87801  1.0000
  C   C2829     1.0  0.52507  0.75509  0.84124  1.0000
  H   H2253     1.0  0.59669  0.75356  0.57405  1.0000
  C   C2830     1.0  0.66212  0.98832  0.56173  1.0000
  C   C2831     1.0  0.36496  0.79056  0.99547  1.0000
  H   H2254     1.0  0.53975  0.76384  0.68697  1.0000
  C   C2832     1.0  0.54980  0.76013  0.67421  1.0000
  H   H2255     1.0  0.42715  0.99728  0.66903  1.0000
  H   H2256     1.0  0.66194  0.95064  0.75819  1.0000
  C   C2833     1.0  0.39386  0.80590  0.99910  1.0000
  C   C2834     1.0  0.57707  0.75078  0.64225  1.0000
  C   C2835     1.0  0.66451  0.91099  0.56706  1.0000
  H   H2257     1.0  0.49671  0.75168  0.77894  1.0000
  H   H2258     1.0  0.66056  0.90689  0.55117  1.0000
  C   C2836     1.0  0.38336  0.79006  0.00199  1.0000
  C   C2837     1.0  0.45502  0.75249  0.81947  1.0000
  C   C2838     1.0  0.65042  0.99951  0.54865  1.0000
  S   S373      1.0  0.90998  0.04814  0.03754  1.0000
  C   C2839     1.0  0.93760  0.05306  0.50063  1.0000
  Fe  Fe189     1.0  0.88026  0.05086  0.02826  1.0000
  S   S374      1.0  0.85561  0.05623  0.05202  1.0000
  C   C2840     1.0  0.68868  0.07757  0.09654  1.0000
  H   H2259     1.0  0.74364  0.03849  0.15398  1.0000
  C   C2841     1.0  0.73220  0.15589  0.09977  1.0000
  S   S375      1.0  0.96818  0.15506  0.47349  1.0000
  Fe  Fe190     1.0  0.93396  0.18007  0.35166  1.0000
  S   S376      1.0  0.90643  0.19123  0.33926  1.0000
  S   S377      1.0  0.93487  0.15727  0.37847  1.0000
  Fe  Fe191     1.0  0.95570  0.20292  0.31753  1.0000
  S   S378      1.0  0.92963  0.21567  0.30297  1.0000
  S   S379      1.0  0.98485  0.21269  0.30923  1.0000
  Fe  Fe192     1.0  0.91933  0.21941  0.33774  1.0000
  C   C2842     1.0  0.96607  0.01373  0.00634  1.0000
  Fe  Fe193     1.0  0.91878  0.18648  0.30557  1.0000
  S   S380      1.0  0.90581  0.17401  0.27548  1.0000
  S   S381      1.0  0.94591  0.20817  0.35218  1.0000
  S   S382      1.0  0.94577  0.17382  0.31811  1.0000
  Fe  Fe194     1.0  0.83371  0.09641  0.22709  1.0000
  S   S383      1.0  0.84782  0.07043  0.21415  1.0000
  S   S384      1.0  0.84642  0.11303  0.25431  1.0000
  Fe  Fe195     1.0  0.79768  0.08856  0.20282  1.0000
  S   S385      1.0  0.81001  0.06201  0.18841  1.0000
  S   S386      1.0  0.76817  0.10232  0.20020  1.0000
  Fe  Fe196     1.0  0.82144  0.05579  0.22190  1.0000
  S   S387      1.0  0.82728  0.02678  0.23760  1.0000
  Fe  Fe197     1.0  0.83566  0.07826  0.18160  1.0000
  S   S388      1.0  0.85697  0.07557  0.15300  1.0000
  S   S389      1.0  0.80774  0.08123  0.23670  1.0000
  S   S390      1.0  0.82284  0.10534  0.19406  1.0000
  S   S391      1.0  0.69041  0.09464  0.15368  1.0000
  C   C2843     1.0  0.74665  0.09982  0.18710  1.0000
  C   C2844     1.0  0.74421  0.08609  0.17205  1.0000
  C   C2845     1.0  0.72698  0.08480  0.16205  1.0000
  C   C2846     1.0  0.71185  0.09719  0.16688  1.0000
  C   C2847     1.0  0.71427  0.11096  0.18191  1.0000
  C   C2848     1.0  0.73152  0.11223  0.19192  1.0000
  H   H2260     1.0  0.75570  0.07659  0.16795  1.0000
  H   H2261     1.0  0.72534  0.07408  0.15050  1.0000
  H   H2262     1.0  0.70286  0.12061  0.18589  1.0000
  H   H2263     1.0  0.73316  0.12292  0.20353  1.0000
  C   C2849     1.0  0.90253  0.20295  0.47255  1.0000
  C   C2850     1.0  0.76043  0.11520  0.13119  1.0000
  P   P94       1.0  0.93605  0.24810  0.42566  1.0000
  C   C2851     1.0  0.87054  0.00276  0.06203  1.0000
  C   C2852     1.0  0.88951  0.15667  0.27009  1.0000
  C   C2853     1.0  0.88684  0.15187  0.24836  1.0000
  C   C2854     1.0  0.87395  0.13855  0.24318  1.0000
  C   C2855     1.0  0.86332  0.12980  0.25968  1.0000
  C   C2856     1.0  0.86604  0.13458  0.28140  1.0000
  C   C2857     1.0  0.87902  0.14779  0.28659  1.0000
  H   H2264     1.0  0.89476  0.15856  0.23537  1.0000
  H   H2265     1.0  0.87211  0.13516  0.22641  1.0000
  H   H2266     1.0  0.85798  0.12802  0.29437  1.0000
  H   H2267     1.0  0.88077  0.15123  0.30336  1.0000
  C   C2858     1.0  0.95980  0.15494  0.44668  1.0000
  C   C2859     1.0  0.95134  0.13961  0.43876  1.0000
  C   C2860     1.0  0.94379  0.14060  0.41786  1.0000
  C   C2861     1.0  0.94476  0.15681  0.40457  1.0000
  C   C2862     1.0  0.95370  0.17194  0.41226  1.0000
  C   C2863     1.0  0.96104  0.17104  0.43326  1.0000
  H   H2268     1.0  0.95027  0.12712  0.44888  1.0000
  H   H2269     1.0  0.93706  0.12873  0.41198  1.0000
  H   H2270     1.0  0.95504  0.18425  0.40195  1.0000
  H   H2271     1.0  0.96775  0.18287  0.43916  1.0000
  C   C2864     1.0  0.85614  0.06979  0.12506  1.0000
  C   C2865     1.0  0.83958  0.06629  0.11510  1.0000
  C   C2866     1.0  0.83969  0.06213  0.09278  1.0000
  C   C2867     1.0  0.85633  0.06130  0.08016  1.0000
  C   C2868     1.0  0.87292  0.06454  0.09020  1.0000
  C   C2869     1.0  0.87279  0.06880  0.11247  1.0000
  H   H2272     1.0  0.82669  0.06695  0.12454  1.0000
  H   H2273     1.0  0.82680  0.05961  0.08520  1.0000
  H   H2274     1.0  0.88580  0.06404  0.08073  1.0000
  H   H2275     1.0  0.88568  0.07153  0.11997  1.0000
  C   C2870     1.0  0.95794  0.08449  0.01092  1.0000
  C   C2871     1.0  0.68613  0.09592  0.08891  1.0000
  C   C2872     1.0  0.81479  0.01145  0.25535  1.0000
  H   H2276     1.0  0.97420  0.15291  0.09774  1.0000
  C   C2873     1.0  0.99658  0.19585  0.40885  1.0000
  C   C2874     1.0  0.91873  0.23374  0.41519  1.0000
  H   H2277     1.0  0.90686  0.19145  0.44072  1.0000
  C   C2875     1.0  0.97825  0.15734  0.11351  1.0000
  C   C2876     1.0  0.70279  0.22976  0.13649  1.0000
  H   H2278     1.0  0.75104  0.07283  0.22850  1.0000
  H   H2279     1.0  0.78821  0.02580  0.25263  1.0000
  H   H2280     1.0  0.76047  0.03748  0.23160  1.0000
  H   H2281     1.0  0.74203  0.15735  0.08625  1.0000
  C   C2877     1.0  0.96210  0.19223  0.23183  1.0000
  C   C2878     1.0  0.78383  0.08726  0.11334  1.0000
  H   H2282     1.0  0.94070  0.20892  0.44182  1.0000
  C   C2879     1.0  0.72747  0.03086  0.27199  1.0000
  C   C2880     1.0  0.93798  0.10028  0.15869  1.0000
  C   C2881     1.0  0.92909  0.08562  0.16935  1.0000
  C   C2882     1.0  0.92587  0.06962  0.15813  1.0000
  C   C2883     1.0  0.93153  0.06823  0.13623  1.0000
  C   C2884     1.0  0.94053  0.08288  0.12537  1.0000
  C   C2885     1.0  0.94354  0.09900  0.13675  1.0000
  P   P95       1.0  0.94537  0.08258  0.09632  1.0000
  C   C2886     1.0  0.92522  0.09236  0.08263  1.0000
  C   C2887     1.0  0.96588  0.09551  0.09019  1.0000
  C   C2888     1.0  0.98103  0.09336  0.10397  1.0000
  C   C2889     1.0  0.83474  0.03101  0.00536  1.0000
  C   C2890     1.0  0.98343  0.11671  0.06692  1.0000
  C   C2891     1.0  0.96722  0.10723  0.07156  1.0000
  C   C2892     1.0  0.91033  0.10090  0.09443  1.0000
  C   C2893     1.0  0.89420  0.10702  0.08391  1.0000
  C   C2894     1.0  0.89280  0.10477  0.06156  1.0000
  C   C2895     1.0  0.90759  0.09652  0.04969  1.0000
  C   C2896     1.0  0.92369  0.09023  0.06016  1.0000
  C   C2897     1.0  0.94942  0.05907  0.08719  1.0000
  C   C2898     1.0  0.93438  0.04763  0.08530  1.0000
  C   C2899     1.0  0.93717  0.02975  0.07729  1.0000
  H   H2283     1.0  0.70786  0.05693  0.10999  1.0000
  H   H2284     1.0  0.69848  0.12208  0.08293  1.0000
  C   C2900     1.0  0.96727  0.05232  0.08075  1.0000
  H   H2285     1.0  0.94014  0.11282  0.16730  1.0000
  H   H2286     1.0  0.92434  0.08680  0.18620  1.0000
  H   H2287     1.0  0.91852  0.05847  0.16630  1.0000
  H   H2288     1.0  0.92843  0.05591  0.12781  1.0000
  H   H2289     1.0  0.94975  0.11081  0.12854  1.0000
  H   H2290     1.0  0.98046  0.08413  0.11821  1.0000
  H   H2291     1.0  0.73530  0.01904  0.30321  1.0000
  H   H2292     1.0  0.95600  0.10890  0.06036  1.0000
  H   H2293     1.0  0.91079  0.10250  0.11183  1.0000
  H   H2294     1.0  0.88256  0.11307  0.09321  1.0000
  H   H2295     1.0  0.88014  0.10913  0.05349  1.0000
  H   H2296     1.0  0.90643  0.09469  0.03236  1.0000
  H   H2297     1.0  0.93481  0.08340  0.05076  1.0000
  H   H2298     1.0  0.92040  0.05270  0.08948  1.0000
  H   H2299     1.0  0.92547  0.02116  0.07530  1.0000
  C   C2901     1.0  0.70086  0.10779  0.08851  1.0000
  H   H2300     1.0  0.97912  0.06090  0.08130  1.0000
  C   C2902     1.0  0.67638  0.17372  0.18014  1.0000
  C   C2903     1.0  0.87678  0.01350  0.07856  1.0000
  H   H2301     1.0  0.76661  0.13074  0.00978  1.0000
  H   H2302     1.0  0.68935  0.02111  0.23506  1.0000
  H   H2303     1.0  0.98369  0.02955  0.06721  1.0000
  C   C2904     1.0  0.77634  0.10879  0.14198  1.0000
  C   C2905     1.0  0.93630  0.03546  0.49175  1.0000
  C   C2906     1.0  0.72587  0.00900  0.24308  1.0000
  H   H2304     1.0  0.93731  0.24753  0.37792  1.0000
  C   C2907     1.0  0.70653  0.15288  0.13466  1.0000
  H   H2305     1.0  0.95555  0.05625  0.02268  1.0000
  C   C2908     1.0  0.90833  0.18914  0.45810  1.0000
  C   C2909     1.0  0.91616  0.17232  0.46603  1.0000
  H   H2306     1.0  0.95275  0.19479  0.47550  1.0000
  C   C2910     1.0  0.72414  0.17190  0.10912  1.0000
  H   H2307     1.0  0.70486  0.18274  0.13367  1.0000
  H   H2308     1.0  0.75157  0.12589  0.13859  1.0000
  H   H2309     1.0  0.96346  0.15513  0.18755  1.0000
  S   S392      1.0  0.92215  0.00119  0.48811  1.0000
  C   C2911     1.0  0.75624  0.10784  0.11116  1.0000
  H   H2310     1.0  0.78445  0.03081  0.20321  1.0000
  C   C2912     1.0  0.73352  0.04190  0.18704  1.0000
  C   C2913     1.0  0.68598  0.24035  0.13698  1.0000
  C   C2914     1.0  0.68601  0.18771  0.18931  1.0000
  H   H2311     1.0  0.93797  0.15621  0.21541  1.0000
  C   C2915     1.0  0.68530  0.03301  0.22488  1.0000
  H   H2312     1.0  0.97195  0.09901  0.34285  1.0000
  H   H2313     1.0  0.66939  0.07570  0.18891  1.0000
  H   H2314     1.0  0.92070  0.16165  0.45479  1.0000
  C   C2916     1.0  0.95490  0.02323  0.07076  1.0000
  H   H2315     1.0  0.71070  0.12348  0.13188  1.0000
  H   H2316     1.0  0.67847  0.15941  0.18583  1.0000
  P   P96       1.0  0.73695  0.11730  0.09568  1.0000
  C   C2917     1.0  0.96314  0.16575  0.19960  1.0000
  H   H2317     1.0  0.69649  0.06868  0.25871  1.0000
  C   C2918     1.0  0.71837  0.10137  0.09561  1.0000
  H   H2318     1.0  0.98455  0.12549  0.05234  1.0000
  C   C2919     1.0  0.71105  0.09300  0.26548  1.0000
  C   C2920     1.0  0.98761  0.09809  0.01684  1.0000
  C   C2921     1.0  0.97119  0.17391  0.14668  1.0000
  C   C2922     1.0  0.74588  0.12201  0.06832  1.0000
  C   C2923     1.0  0.76350  0.12932  0.06519  1.0000
  C   C2924     1.0  0.77091  0.13249  0.04416  1.0000
  C   C2925     1.0  0.76079  0.12842  0.02608  1.0000
  C   C2926     1.0  0.74323  0.12121  0.02902  1.0000
  C   C2927     1.0  0.73579  0.11798  0.05005  1.0000
  C   C2928     1.0  0.76806  0.09380  0.10233  1.0000
  H   H2319     1.0  0.75418  0.10261  0.24565  1.0000
  H   H2320     1.0  0.77151  0.00229  0.27517  1.0000
  S   S393      1.0  0.96858  0.10001  0.49115  1.0000
  H   H2321     1.0  0.77159  0.13244  0.07904  1.0000
  H   H2322     1.0  0.78458  0.13794  0.04189  1.0000
  H   H2323     1.0  0.99408  0.14260  0.20596  1.0000
  C   C2929     1.0  0.66767  0.24949  0.17948  1.0000
  H   H2324     1.0  0.72228  0.11218  0.05183  1.0000
  C   C2930     1.0  0.89223  0.21130  0.39837  1.0000
  H   H2325     1.0  0.76520  0.08806  0.08679  1.0000
  C   C2931     1.0  0.72088  0.08286  0.10311  1.0000
  C   C2932     1.0  0.97278  0.12254  0.36329  1.0000
  C   C2933     1.0  0.70918  0.07593  0.25584  1.0000
  C   C2934     1.0  0.73815  0.04183  0.20905  1.0000
  H   H2326     1.0  0.67706  0.06858  0.09731  1.0000
  H   H2327     1.0  0.72991  0.22605  0.12116  1.0000
  C   C2935     1.0  0.71443  0.24928  0.10672  1.0000
  C   C2936     1.0  0.73227  0.01621  0.28652  1.0000
  H   H2328     1.0  0.97749  0.14514  0.38380  1.0000
  H   H2329     1.0  0.67262  0.10104  0.08366  1.0000
  H   H2330     1.0  0.91539  0.19323  0.38874  1.0000
  C   C2937     1.0  0.78798  0.09479  0.13315  1.0000
  H   H2331     1.0  0.98289  0.21720  0.38907  1.0000
  C   C2938     1.0  0.89167  0.00933  0.39441  1.0000
  C   C2939     1.0  0.71125  0.17039  0.12652  1.0000
  H   H2332     1.0  0.88210  0.20281  0.39142  1.0000
  H   H2333     1.0  0.77959  0.11461  0.15736  1.0000
  C   C2940     1.0  0.67381  0.06378  0.19900  1.0000
  S   S394      1.0  0.88165  0.02401  0.01045  1.0000
  H   H2334     1.0  0.94608  0.03108  0.47902  1.0000
  C   C2941     1.0  0.85128  0.01056  0.31160  1.0000
  C   C2942     1.0  0.79571  0.01381  0.25953  1.0000
  H   H2335     1.0  0.79299  0.07654  0.10640  1.0000
  C   C2943     1.0  0.94823  0.17941  0.23154  1.0000
  C   C2944     1.0  0.66730  0.03437  0.21699  1.0000
  C   C2945     1.0  0.88107  0.00781  0.37594  1.0000
  C   C2946     1.0  0.84832  0.02660  0.29852  1.0000
  C   C2947     1.0  0.84610  0.04392  0.30800  1.0000
  C   C2948     1.0  0.84658  0.04519  0.33062  1.0000
  C   C2949     1.0  0.84941  0.02916  0.34378  1.0000
  C   C2950     1.0  0.92422  0.21723  0.40483  1.0000
  H   H2336     1.0  0.70104  0.07359  0.20287  1.0000
  C   C2951     1.0  0.72739  0.13826  0.10782  1.0000
  H   H2337     1.0  0.83276  0.02229  0.03899  1.0000
  H   H2338     1.0  0.69652  0.15153  0.14805  1.0000
  C   C2952     1.0  0.97713  0.17866  0.19967  1.0000
  H   H2339     1.0  0.69570  0.18423  0.20207  1.0000
  C   C2953     1.0  0.94560  0.21792  0.45382  1.0000
  C   C2954     1.0  0.91102  0.20597  0.39671  1.0000
  C   C2955     1.0  0.71459  0.13692  0.12541  1.0000
  C   C2956     1.0  0.94873  0.16620  0.21541  1.0000
  C   C2957     1.0  0.73981  0.07805  0.23898  1.0000
  H   H2340     1.0  0.70508  0.21811  0.14774  1.0000
  H   H2341     1.0  0.99210  0.12248  0.41815  1.0000
  H   H2342     1.0  0.84735  0.02564  0.28102  1.0000
  H   H2343     1.0  0.84367  0.05632  0.29781  1.0000
  H   H2344     1.0  0.84450  0.05862  0.33794  1.0000
  H   H2345     1.0  0.84915  0.03032  0.36131  1.0000
  C   C2958     1.0  0.92258  0.02344  0.49934  1.0000
  C   C2959     1.0  0.88662  0.22784  0.40838  1.0000
  H   H2346     1.0  0.98704  0.20190  0.21691  1.0000
  C   C2960     1.0  0.71694  0.23422  0.12140  1.0000
  C   C2961     1.0  0.72357  0.06830  0.24252  1.0000
  C   C2962     1.0  0.84671  0.24761  0.31153  1.0000
  C   C2963     1.0  0.94516  0.23730  0.45040  1.0000
  C   C2964     1.0  0.96996  0.03446  0.07262  1.0000
  H   H2347     1.0  0.72396  0.00607  0.22614  1.0000
  H   H2348     1.0  0.96442  0.24866  0.49790  1.0000
  H   H2349     1.0  0.95792  0.12551  0.36320  1.0000
  H   H2350     1.0  0.88216  0.01819  0.36291  1.0000
  Fe  Fe198     1.0  0.96941  0.13040  0.49788  1.0000
  H   H2351     1.0  0.98770  0.05333  0.03580  1.0000
  C   C2965     1.0  0.95250  0.20977  0.47304  1.0000
  H   H2352     1.0  0.73405  0.07764  0.10917  1.0000
  C   C2966     1.0  0.96445  0.06790  0.02093  1.0000
  C   C2967     1.0  0.98259  0.06632  0.02850  1.0000
  C   C2968     1.0  0.76557  0.03413  0.17675  1.0000
  H   H2353     1.0  0.71948  0.04510  0.18212  1.0000
  C   C2969     1.0  0.72729  0.10259  0.26190  1.0000
  H   H2354     1.0  0.87020  0.02550  0.10967  1.0000
  H   H2355     1.0  0.93716  0.17963  0.24394  1.0000
  H   H2356     1.0  0.72691  0.04488  0.27777  1.0000
  H   H2357     1.0  0.87209  0.23220  0.40908  1.0000
  H   H2358     1.0  0.88989  0.02012  0.07641  1.0000
  H   H2359     1.0  0.93875  0.21317  0.40281  1.0000
  C   C2970     1.0  0.70605  0.07103  0.10360  1.0000
  C   C2971     1.0  0.98070  0.10762  0.35184  1.0000
  C   C2972     1.0  0.74721  0.03804  0.17097  1.0000
  H   H2360     1.0  0.84617  0.23291  0.30858  1.0000
  Fe  Fe199     1.0  0.91162  0.02205  0.01827  1.0000
  H   H2361     1.0  0.95199  0.01806  0.01102  1.0000
  C   C2973     1.0  0.69176  0.06250  0.20688  1.0000
  H   H2362     1.0  0.98398  0.18424  0.27616  1.0000
  C   C2974     1.0  0.69771  0.04705  0.21976  1.0000
  C   C2975     1.0  0.98395  0.13373  0.37491  1.0000
  C   C2976     1.0  0.77022  0.03381  0.19864  1.0000
  C   C2977     1.0  0.98887  0.16882  0.15434  1.0000
  H   H2363     1.0  0.80026  0.08986  0.14169  1.0000
  C   C2978     1.0  0.68304  0.20619  0.18219  1.0000
  C   C2979     1.0  0.75659  0.03764  0.21471  1.0000
  C   C2980     1.0  0.74164  0.09509  0.24870  1.0000
  P   P97       1.0  0.72080  0.04620  0.23033  1.0000
  C   C2981     1.0  0.95917  0.22083  0.48897  1.0000
  C   C2982     1.0  0.89979  0.23903  0.41680  1.0000
  H   H2364     1.0  0.69987  0.09887  0.27563  1.0000
  H   H2365     1.0  0.95684  0.00964  0.06377  1.0000
  C   C2983     1.0  0.96951  0.09962  0.00900  1.0000
  C   C2984     1.0  0.67033  0.21087  0.16585  1.0000
  H   H2366     1.0  0.72876  0.11588  0.26922  1.0000
  H   H2367     1.0  0.88116  0.01757  0.25510  1.0000
  H   H2368     1.0  0.96183  0.20232  0.24457  1.0000
  H   H2369     1.0  0.89659  0.21604  0.46630  1.0000
  H   H2370     1.0  0.92436  0.15602  0.49417  1.0000
  H   H2371     1.0  0.95214  0.17186  0.12069  1.0000
  C   C2985     1.0  0.98989  0.20364  0.38936  1.0000
  H   H2372     1.0  0.99478  0.20343  0.42374  1.0000
  H   H2373     1.0  0.73543  0.11795  0.01499  1.0000
  H   H2374     1.0  0.72780  0.18548  0.10280  1.0000
  C   C2986     1.0  0.99605  0.15272  0.12074  1.0000
  C   C2987     1.0  0.99707  0.19092  0.27447  1.0000
  H   H2375     1.0  0.96161  0.18259  0.15625  1.0000
  P   P98       1.0  0.66746  0.23480  0.15624  1.0000
  C   C2988     1.0  0.85228  0.01177  0.33432  1.0000
  H   H2376     1.0  0.69064  0.21686  0.18947  1.0000
  C   C2989     1.0  0.83616  0.01790  0.02258  1.0000
  H   H2377     1.0  0.77624  0.03151  0.16429  1.0000
  C   C2990     1.0  0.72428  0.02736  0.25011  1.0000
  C   C2991     1.0  0.96584  0.16798  0.12646  1.0000
  C   C2992     1.0  0.97646  0.19191  0.21599  1.0000
  S   S395      1.0  0.90295  0.24430  0.35323  1.0000
  C   C2993     1.0  0.99416  0.08140  0.02661  1.0000
  H   H2378     1.0  0.86672  0.01668  0.21928  1.0000
  C   C2994     1.0  0.95907  0.24009  0.48562  1.0000
  C   C2995     1.0  0.84834  0.00878  0.09942  1.0000
  H   H2379     1.0  0.98679  0.19980  0.35508  1.0000
  C   C2996     1.0  0.87733  0.00440  0.24898  1.0000
  P   P99       1.0  0.99628  0.17737  0.17981  1.0000
  H   H2380     1.0  0.90052  0.02094  0.39569  1.0000
  C   C2997     1.0  0.91812  0.16917  0.48841  1.0000
  C   C2998     1.0  0.90429  0.19980  0.49501  1.0000
  C   C2999     1.0  0.99191  0.19374  0.37024  1.0000
  H   H2381     1.0  0.99645  0.10978  0.01540  1.0000
  C   C3000     1.0  0.86930  0.00388  0.22870  1.0000
  H   H2382     1.0  0.83954  0.01169  0.11363  1.0000
  H   H2383     1.0  0.94832  0.06210  0.49476  1.0000
  C   C3001     1.0  0.86568  0.01655  0.09724  1.0000
  H   H2384     1.0  0.87531  0.24555  0.32048  1.0000
  Fe  Fe200     1.0  0.91625  0.06284  0.00552  1.0000
  C   C3002     1.0  0.95218  0.24830  0.46640  1.0000
  H   H2385     1.0  0.83051  0.04529  0.00862  1.0000
  H   H2386     1.0  0.99451  0.10917  0.45533  1.0000
  C   C3003     1.0  0.99722  0.10280  0.09921  1.0000
  C   C3004     1.0  0.99844  0.11443  0.08066  1.0000
  H   H2387     1.0  0.99732  0.20363  0.14168  1.0000
  C   C3005     1.0  0.95474  0.25013  0.40558  1.0000
  C   C3006     1.0  0.95114  0.24966  0.38329  1.0000
  H   H2388     1.0  0.87919  0.00090  0.04750  1.0000
  H   H2389     1.0  0.99265  0.09317  0.97187  1.0000
  S   S396      1.0  0.93555  0.08664  0.00040  1.0000
  S   S397      1.0  0.88007  0.03348  0.94670  1.0000
  H   H2390     1.0  0.69384  0.13468  0.88172  1.0000
  H   H2391     1.0  0.91715  0.02600  0.85660  1.0000
  H   H2392     1.0  0.84260  0.04157  0.75691  1.0000
  H   H2393     1.0  0.97944  0.07769  0.74010  1.0000
  H   H2394     1.0  0.67428  0.13439  0.79978  1.0000
  Fe  Fe201     1.0  0.93420  0.21870  0.71082  1.0000
  S   S398      1.0  0.95829  0.20383  0.69329  1.0000
  C   C3007     1.0  0.97315  0.18014  0.55521  1.0000
  Fe  Fe202     1.0  0.92149  0.18200  0.73419  1.0000
  S   S399      1.0  0.94473  0.16514  0.71818  1.0000
  S   S400      1.0  0.90229  0.17050  0.76188  1.0000
  Fe  Fe203     1.0  0.96328  0.18843  0.72545  1.0000
  H   H2395     1.0  0.78882  0.21080  0.64912  1.0000
  Fe  Fe204     1.0  0.93819  0.18162  0.68735  1.0000
  S   S401      1.0  0.93207  0.16713  0.65587  1.0000
  S   S402      1.0  0.94047  0.20438  0.74332  1.0000
  S   S403      1.0  0.91373  0.19748  0.70301  1.0000
  Fe  Fe205     1.0  0.81217  0.05292  0.80875  1.0000
  S   S404      1.0  0.79939  0.07689  0.78943  1.0000
  S   S405      1.0  0.81900  0.02318  0.79752  1.0000
  Fe  Fe206     1.0  0.81988  0.07801  0.84689  1.0000
  S   S406      1.0  0.80743  0.10357  0.82947  1.0000
  S   S407      1.0  0.83079  0.08340  0.88055  1.0000
  Fe  Fe207     1.0  0.78446  0.08507  0.82106  1.0000
  S   S408      1.0  0.75344  0.09483  0.82048  1.0000
  Fe  Fe208     1.0  0.82341  0.09337  0.79974  1.0000
  S   S409      1.0  0.84014  0.10934  0.77300  1.0000
  S   S410      1.0  0.79612  0.06013  0.83994  1.0000
  S   S411      1.0  0.83684  0.06882  0.81761  1.0000
  Fe  Fe209     1.0  0.97675  0.12300  0.54676  1.0000
  H   H2396     1.0  0.88892  0.15280  0.51073  1.0000
  S   S412      1.0  0.98489  0.13667  0.57802  1.0000
  H   H2397     1.0  0.98989  0.05139  0.59762  1.0000
  S   S413      1.0  0.99250  0.17991  0.73719  1.0000
  C   C3008     1.0  0.97732  0.02596  0.99463  1.0000
  S   S414      1.0  0.97691  0.09198  0.54339  1.0000
  C   C3009     1.0  0.72662  0.15868  0.84451  1.0000
  H   H2398     1.0  0.93590  0.05747  0.78684  1.0000
  C   C3010     1.0  0.73431  0.09546  0.83999  1.0000
  C   C3011     1.0  0.71687  0.10294  0.83354  1.0000
  C   C3012     1.0  0.70129  0.10349  0.84819  1.0000
  C   C3013     1.0  0.70285  0.09655  0.86965  1.0000
  C   C3014     1.0  0.72034  0.08925  0.87614  1.0000
  C   C3015     1.0  0.73591  0.08868  0.86150  1.0000
  H   H2399     1.0  0.71537  0.10826  0.81701  1.0000
  H   H2400     1.0  0.68803  0.10912  0.84283  1.0000
  H   H2401     1.0  0.72184  0.08387  0.89266  1.0000
  H   H2402     1.0  0.74912  0.08288  0.86686  1.0000
  H   H2403     1.0  0.89690  0.05108  0.84111  1.0000
  H   H2404     1.0  0.95231  0.00661  0.52301  1.0000
  H   H2405     1.0  0.96002  0.11125  0.88517  1.0000
  H   H2406     1.0  0.98065  0.04973  0.92934  1.0000
  C   C3016     1.0  0.94717  0.15860  0.63460  1.0000
  C   C3017     1.0  0.96627  0.16105  0.63414  1.0000
  C   C3018     1.0  0.97761  0.15417  0.61678  1.0000
  C   C3019     1.0  0.97005  0.14473  0.59972  1.0000
  C   C3020     1.0  0.95100  0.14213  0.60028  1.0000
  C   C3021     1.0  0.93962  0.14912  0.61754  1.0000
  H   H2407     1.0  0.97229  0.16830  0.64711  1.0000
  C   C3022     1.0  0.88071  0.21532  0.73953  1.0000
  H   H2408     1.0  0.94511  0.13465  0.58745  1.0000
  H   H2409     1.0  0.92489  0.14707  0.61774  1.0000
  C   C3023     1.0  0.85797  0.12588  0.77077  1.0000
  C   C3024     1.0  0.86214  0.13719  0.78787  1.0000
  C   C3025     1.0  0.87571  0.15065  0.78482  1.0000
  C   C3026     1.0  0.88545  0.15300  0.76472  1.0000
  C   C3027     1.0  0.88162  0.14136  0.74783  1.0000
  C   C3028     1.0  0.86787  0.12809  0.75077  1.0000
  H   H2410     1.0  0.85460  0.13589  0.80328  1.0000
  H   H2411     1.0  0.87854  0.15946  0.79809  1.0000
  H   H2412     1.0  0.88931  0.14247  0.73253  1.0000
  H   H2413     1.0  0.86488  0.11945  0.73739  1.0000
  C   C3029     1.0  0.86667  0.04775  0.92836  1.0000
  C   C3030     1.0  0.85881  0.06502  0.93420  1.0000
  C   C3031     1.0  0.84793  0.07570  0.91932  1.0000
  C   C3032     1.0  0.84479  0.06931  0.89842  1.0000
  C   C3033     1.0  0.85289  0.05216  0.89244  1.0000
  C   C3034     1.0  0.86366  0.04140  0.90738  1.0000
  H   H2414     1.0  0.86097  0.07010  0.95024  1.0000
  H   H2415     1.0  0.84179  0.08897  0.92409  1.0000
  H   H2416     1.0  0.85088  0.04724  0.87632  1.0000
  H   H2417     1.0  0.86972  0.02808  0.90268  1.0000
  P   P100      1.0  0.91316  0.17803  0.53222  1.0000
  H   H2418     1.0  0.79400  0.02971  0.76073  1.0000
  H   H2419     1.0  0.85538  0.19752  0.57234  1.0000
  C   C3035     1.0  0.71930  0.20303  0.85337  1.0000
  C   C3036     1.0  0.66912  0.20773  0.90651  1.0000
  C   C3037     1.0  0.81792  0.20368  0.65232  1.0000
  H   H2420     1.0  0.91209  0.08402  0.84536  1.0000
  H   H2421     1.0  0.88904  0.21339  0.75386  1.0000
  H   H2422     1.0  0.82142  0.03173  0.87248  1.0000
  H   H2423     1.0  0.69358  0.12614  0.92072  1.0000
  H   H2424     1.0  0.92129  0.15179  0.56859  1.0000
  C   C3038     1.0  0.86503  0.14464  0.66433  1.0000
  C   C3039     1.0  0.88383  0.14282  0.66902  1.0000
  C   C3040     1.0  0.89072  0.15304  0.68560  1.0000
  C   C3041     1.0  0.87895  0.16534  0.69720  1.0000
  C   C3042     1.0  0.86025  0.16790  0.69200  1.0000
  C   C3043     1.0  0.85324  0.15704  0.67585  1.0000
  P   P101      1.0  0.84528  0.18445  0.70647  1.0000
  C   C3044     1.0  0.83451  0.17274  0.72968  1.0000
  C   C3045     1.0  0.85901  0.20328  0.71467  1.0000
  H   H2425     1.0  0.70002  0.24644  0.84405  1.0000
  H   H2426     1.0  0.67176  0.22845  0.84285  1.0000
  C   C3046     1.0  0.97856  0.09243  0.74307  1.0000
  C   C3047     1.0  0.86022  0.21968  0.70177  1.0000
  C   C3048     1.0  0.86938  0.20126  0.73360  1.0000
  C   C3049     1.0  0.83061  0.18203  0.74916  1.0000
  C   C3050     1.0  0.82210  0.17284  0.76695  1.0000
  C   C3051     1.0  0.81690  0.15456  0.76518  1.0000
  C   C3052     1.0  0.82005  0.14552  0.74558  1.0000
  C   C3053     1.0  0.82900  0.15446  0.72797  1.0000
  C   C3054     1.0  0.82743  0.19332  0.68848  1.0000
  H   H2427     1.0  0.99499  0.08687  0.86096  1.0000
  C   C3055     1.0  0.88191  0.23151  0.72655  1.0000
  C   C3056     1.0  0.70474  0.15184  0.93016  1.0000
  C   C3057     1.0  0.83180  0.19741  0.66645  1.0000
  H   H2428     1.0  0.85965  0.13648  0.65169  1.0000
  H   H2429     1.0  0.89312  0.13352  0.65988  1.0000
  H   H2430     1.0  0.90529  0.15157  0.68933  1.0000
  H   H2431     1.0  0.88453  0.17275  0.71028  1.0000
  H   H2432     1.0  0.83870  0.15818  0.67208  1.0000
  C   C3058     1.0  0.68502  0.22130  0.84587  1.0000
  C   C3059     1.0  0.74118  0.04476  0.83008  1.0000
  H   H2433     1.0  0.84596  0.19569  0.66020  1.0000
  H   H2434     1.0  0.98716  0.17928  0.56103  1.0000
  H   H2435     1.0  0.86912  0.18858  0.74353  1.0000
  H   H2436     1.0  0.83420  0.19631  0.75074  1.0000
  H   H2437     1.0  0.81070  0.14721  0.77905  1.0000
  H   H2438     1.0  0.81615  0.13128  0.74431  1.0000
  H   H2439     1.0  0.83167  0.14698  0.71316  1.0000
  C   C3060     1.0  0.83967  0.02594  0.98413  1.0000
  C   C3061     1.0  0.87310  0.07371  0.77003  1.0000
  H   H2440     1.0  0.80525  0.19285  0.71312  1.0000
  H   H2441     1.0  0.95142  0.03750  0.53964  1.0000
  H   H2442     1.0  0.97453  0.13414  0.71574  1.0000
  S   S415      1.0  0.92664  0.08068  0.52913  1.0000
  C   C3062     1.0  0.85902  0.06563  0.75908  1.0000
  C   C3063     1.0  0.91344  0.10898  0.78702  1.0000
  C   C3064     1.0  0.92165  0.12090  0.77149  1.0000
  C   C3065     1.0  0.92809  0.11425  0.75144  1.0000
  C   C3066     1.0  0.92631  0.09561  0.74681  1.0000
  H   H2443     1.0  0.87650  0.08783  0.76557  1.0000
  H   H2444     1.0  0.85165  0.07358  0.74655  1.0000
  C   C3067     1.0  0.88042  0.18907  0.55463  1.0000
  H   H2445     1.0  0.90794  0.11472  0.80207  1.0000
  H   H2446     1.0  0.92238  0.13555  0.77457  1.0000
  H   H2447     1.0  0.93398  0.12371  0.73930  1.0000
  H   H2448     1.0  0.93086  0.09060  0.73101  1.0000
  C   C3068     1.0  0.95178  0.17673  0.52626  1.0000
  H   H2449     1.0  0.96075  0.18569  0.58679  1.0000
  H   H2450     1.0  0.72527  0.17730  0.81615  1.0000
  C   C3069     1.0  0.84597  0.00774  0.98010  1.0000
  H   H2451     1.0  0.73194  0.13736  0.86964  1.0000
  Fe  Fe210     1.0  0.99352  0.09654  0.51226  1.0000
  H   H2452     1.0  0.98823  0.08482  0.60576  1.0000
  C   C3070     1.0  0.97645  0.10518  0.72561  1.0000
  C   C3071     1.0  0.91006  0.02920  0.51587  1.0000
  C   C3072     1.0  0.82035  0.01975  0.86248  1.0000
  H   H2453     1.0  0.97826  0.04789  0.55830  1.0000
  C   C3073     1.0  0.99500  0.02246  0.55342  1.0000
  C   C3074     1.0  0.75328  0.13689  0.84474  1.0000
  H   H2454     1.0  0.99059  0.11493  0.90085  1.0000
  C   C3075     1.0  0.97984  0.09868  0.76426  1.0000
  H   H2455     1.0  0.95570  0.03207  0.80236  1.0000
  C   C3076     1.0  0.87491  0.21923  0.57046  1.0000
  H   H2456     1.0  0.85865  0.02394  0.78638  1.0000
  C   C3077     1.0  0.91172  0.09015  0.78258  1.0000
  H   H2457     1.0  0.87556  0.17543  0.55168  1.0000
  C   C3078     1.0  0.80900  0.19581  0.69620  1.0000
  H   H2458     1.0  0.70107  0.14799  0.81577  1.0000
  H   H2459     1.0  0.66722  0.23725  0.89981  1.0000
  C   C3079     1.0  0.81282  0.00941  0.77548  1.0000
  H   H2460     1.0  0.78589  0.00933  0.73090  1.0000
  H   H2461     1.0  0.71629  0.17839  0.93445  1.0000
  C   C3080     1.0  0.98894  0.10404  0.83244  1.0000
  C   C3081     1.0  0.96800  0.12314  0.88033  1.0000
  C   C3082     1.0  0.96992  0.17674  0.53346  1.0000
  C   C3083     1.0  0.96941  0.07991  0.84704  1.0000
  H   H2462     1.0  0.96445  0.11252  0.00140  1.0000
  C   C3084     1.0  0.88922  0.08828  0.82349  1.0000
  C   C3085     1.0  0.93668  0.17996  0.54081  1.0000
  C   C3086     1.0  0.92133  0.03308  0.84149  1.0000
  C   C3087     1.0  0.74946  0.15891  0.81452  1.0000
  H   H2463     1.0  0.94758  0.13457  0.85825  1.0000
  S   S416      1.0  0.88616  0.06783  0.99742  1.0000
  H   H2464     1.0  0.94462  0.07613  0.82976  1.0000
  C   C3088     1.0  0.97571  0.12418  0.72931  1.0000
  H   H2465     1.0  0.94293  0.13020  0.81465  1.0000
  Fe  Fe211     1.0  0.95210  0.09765  0.52269  1.0000
  C   C3089     1.0  0.69844  0.13959  0.91523  1.0000
  C   C3090     1.0  0.89450  0.14571  0.52503  1.0000
  H   H2466     1.0  0.98303  0.16559  0.78319  1.0000
  H   H2467     1.0  0.96654  0.06914  0.85925  1.0000
  C   C3091     1.0  0.68617  0.20198  0.84895  1.0000
  C   C3092     1.0  0.71122  0.16900  0.92287  1.0000
  C   C3093     1.0  0.74733  0.01461  0.84763  1.0000
  H   H2468     1.0  0.89589  0.09979  0.87605  1.0000
  C   C3094     1.0  0.96494  0.14579  0.79895  1.0000
  H   H2469     1.0  0.68239  0.20576  0.89802  1.0000
  H   H2470     1.0  0.84878  0.11211  0.83660  1.0000
  H   H2471     1.0  0.89421  0.10322  0.55085  1.0000
  H   H2472     1.0  0.96026  0.19192  0.78517  1.0000
  H   H2473     1.0  0.81970  0.17982  0.78218  1.0000
  C   C3095     1.0  0.95707  0.08380  0.83033  1.0000
  H   H2474     1.0  0.87289  0.24616  0.69751  1.0000
  C   C3096     1.0  0.88927  0.09916  0.86055  1.0000
  H   H2475     1.0  0.78096  0.02447  0.80935  1.0000
  H   H2476     1.0  0.88161  0.12016  0.51852  1.0000
  H   H2477     1.0  0.91602  0.06942  0.75801  1.0000
  H   H2478     1.0  0.94656  0.01633  0.83734  1.0000
  C   C3097     1.0  0.86270  0.10613  0.83836  1.0000
  C   C3098     1.0  0.90994  0.04741  0.83271  1.0000
  H   H2479     1.0  0.86604  0.22887  0.57967  1.0000
  C   C3099     1.0  0.87166  0.09698  0.82101  1.0000
  H   H2480     1.0  0.95123  0.10013  0.80130  1.0000
  H   H2481     1.0  0.92875  0.18552  0.57443  1.0000
  C   C3100     1.0  0.79515  0.20207  0.68202  1.0000
  C   C3101     1.0  0.89008  0.12727  0.52951  1.0000
  C   C3102     1.0  0.96959  0.16346  0.79091  1.0000
  C   C3103     1.0  0.96098  0.13626  0.86514  1.0000
  C   C3104     1.0  0.68780  0.14891  0.82442  1.0000
  H   H2482     1.0  0.97635  0.14529  0.75280  1.0000
  C   C3105     1.0  0.95824  0.18369  0.56975  1.0000
  C   C3106     1.0  0.91801  0.08364  0.76221  1.0000
  H   H2483     1.0  0.99040  0.13128  0.96870  1.0000
  H   H2484     1.0  0.90151  0.05130  0.53739  1.0000
  C   C3107     1.0  0.85390  0.04767  0.76492  1.0000
  C   C3108     1.0  0.86295  0.03773  0.78163  1.0000
  C   C3109     1.0  0.91514  0.05670  0.81312  1.0000
  C   C3110     1.0  0.67259  0.14117  0.81523  1.0000
  H   H2485     1.0  0.89705  0.23811  0.56604  1.0000
  H   H2486     1.0  0.86401  0.11337  0.87192  1.0000
  C   C3111     1.0  0.98527  0.12535  0.88929  1.0000
  C   C3112     1.0  0.87136  0.10696  0.85824  1.0000
  C   C3113     1.0  0.71809  0.22234  0.85030  1.0000
  C   C3114     1.0  0.70096  0.23147  0.84654  1.0000
  C   C3115     1.0  0.88210  0.06394  0.78709  1.0000
  H   H2487     1.0  0.97565  0.10040  0.70914  1.0000
  C   C3116     1.0  0.89829  0.09006  0.84316  1.0000
  S   S417      1.0  0.68368  0.09671  0.88910  1.0000
  P   P102      1.0  0.89982  0.07480  0.80169  1.0000
  C   C3117     1.0  0.93165  0.05092  0.80212  1.0000
  H   H2488     1.0  0.86461  0.09630  0.80586  1.0000
  C   C3118     1.0  0.94008  0.18355  0.56263  1.0000
  C   C3119     1.0  0.91257  0.14517  0.55753  1.0000
  C   C3120     1.0  0.87690  0.04583  0.79278  1.0000
  H   H2489     1.0  0.88320  0.03796  0.80604  1.0000
  C   C3121     1.0  0.68583  0.15723  0.84476  1.0000
  C   C3122     1.0  0.71135  0.17393  0.90064  1.0000
  P   P103      1.0  0.98120  0.12617  0.79530  1.0000
  H   H2490     1.0  0.94970  0.17348  0.50954  1.0000
  H   H2491     1.0  0.84985  0.01504  0.85829  1.0000
  C   C3123     1.0  0.86892  0.20157  0.56634  1.0000
  H   H2492     1.0  0.91363  0.11927  0.57610  1.0000
  C   C3124     1.0  0.90809  0.12675  0.56200  1.0000
  H   H2493     1.0  0.99235  0.15623  0.61655  1.0000
  H   H2494     1.0  0.96456  0.21442  0.50381  1.0000
  C   C3125     1.0  0.70486  0.16174  0.88558  1.0000
  H   H2495     1.0  0.85265  0.22166  0.68697  1.0000
  C   C3126     1.0  0.96372  0.02840  0.54079  1.0000
  C   C3127     1.0  0.69853  0.14449  0.89305  1.0000
  C   C3128     1.0  0.87165  0.23369  0.70770  1.0000
  C   C3129     1.0  0.98839  0.15400  0.86804  1.0000
  H   H2496     1.0  0.91834  0.00188  0.55870  1.0000
  H   H2497     1.0  0.83926  0.03624  0.97085  1.0000
  C   C3130     1.0  0.89706  0.11773  0.54784  1.0000
  C   C3131     1.0  0.97905  0.03421  0.55156  1.0000
  C   C3132     1.0  0.90392  0.21198  0.55103  1.0000
  H   H2498     1.0  0.89944  0.02005  0.52184  1.0000
  C   C3133     1.0  0.96077  0.09755  0.81442  1.0000
  C   C3134     1.0  0.97855  0.11780  0.76820  1.0000
  H   H2499     1.0  0.98144  0.17337  0.52231  1.0000
  C   C3135     1.0  0.83635  0.01034  0.85451  1.0000
  H   H2500     1.0  0.73269  0.19618  0.85630  1.0000
  C   C3136     1.0  0.97673  0.13048  0.75048  1.0000
  C   C3137     1.0  0.76349  0.01198  0.83451  1.0000
  C   C3138     1.0  0.91125  0.04690  0.52463  1.0000
  C   C3139     1.0  0.97121  0.15163  0.85893  1.0000
  H   H2501     1.0  0.72393  0.03312  0.85570  1.0000
  H   H2502     1.0  0.98600  0.20879  0.76978  1.0000
  C   C3140     1.0  0.73680  0.14389  0.85454  1.0000
  C   C3141     1.0  0.76842  0.02604  0.81936  1.0000
  C   C3142     1.0  0.80027  0.01584  0.75978  1.0000
  H   H2503     1.0  0.96575  0.16184  0.84716  1.0000
  C   C3143     1.0  0.93787  0.02763  0.83063  1.0000
  H   H2504     1.0  0.75421  0.16441  0.79881  1.0000
  C   C3144     1.0  0.75953  0.14426  0.82468  1.0000
  H   H2505     1.0  0.76086  0.12517  0.85227  1.0000
  Fe  Fe212     1.0  0.88981  0.04075  0.98037  1.0000
  H   H2506     1.0  0.71663  0.18715  0.89532  1.0000
  C   C3145     1.0  0.89805  0.19416  0.54700  1.0000
  H   H2507     1.0  0.91745  0.21620  0.54521  1.0000
  C   C3146     1.0  0.89239  0.22444  0.56277  1.0000
  H   H2508     1.0  0.73046  0.23025  0.85073  1.0000
  C   C3147     1.0  0.73308  0.16614  0.82440  1.0000
  C   C3148     1.0  0.70336  0.19266  0.85266  1.0000
  C   C3149     1.0  0.94301  0.03652  0.81094  1.0000
  H   H2509     1.0  0.95887  0.24703  0.67173  1.0000
  C   C3150     1.0  0.99724  0.08112  0.96283  1.0000
  S   S418      1.0  0.95080  0.12855  0.52802  1.0000
  H   H2510     1.0  0.77194  0.13822  0.81683  1.0000
  C   C3151     1.0  0.94719  0.14352  0.80845  1.0000
  C   C3152     1.0  0.90638  0.15458  0.53859  1.0000
  H   H2511     1.0  0.78094  0.20388  0.68805  1.0000
  H   H2512     1.0  0.70472  0.14791  0.94733  1.0000
  H   H2513     1.0  0.92870  0.18743  0.80084  1.0000
  H   H2514     1.0  0.98921  0.14176  0.93013  1.0000
  P   P104      1.0  0.70512  0.16770  0.85679  1.0000
  C   C3153     1.0  0.98542  0.08993  0.84800  1.0000
  S   S419      1.0  0.92034  0.03665  0.98688  1.0000
  C   C3154     1.0  0.97661  0.10800  0.81553  1.0000
  C   C3155     1.0  0.80290  0.01400  0.85718  1.0000
  H   H2515     1.0  0.76118  0.05316  0.80543  1.0000
  C   C3156     1.0  0.75723  0.04228  0.81705  1.0000
  C   C3157     1.0  0.95668  0.17846  0.79196  1.0000
  C   C3158     1.0  0.93425  0.15854  0.80934  1.0000
  H   H2516     1.0  0.92031  0.15660  0.81581  1.0000
  C   C3159     1.0  0.92507  0.05887  0.51712  1.0000
  H   H2517     1.0  0.97033  0.07752  0.95005  1.0000
  C   C3160     1.0  0.93895  0.17596  0.80093  1.0000
  H   H2518     1.0  0.79066  0.02155  0.86342  1.0000
  C   C3161     1.0  0.99549  0.00504  0.54377  1.0000
  H   H2519     1.0  0.73269  0.05749  0.82844  1.0000
  C   C3162     1.0  0.98465  0.07230  0.95043  1.0000
  C   C3163     1.0  0.73625  0.03097  0.84540  1.0000
  H   H2520     1.0  0.89111  0.24220  0.73080  1.0000
  H   H2521     1.0  0.67361  0.19447  0.84837  1.0000
  H   H2522     1.0  0.66665  0.16384  0.87147  1.0000
  S   S420      1.0  0.99549  0.12704  0.51699  1.0000
  H   H2523     1.0  0.89950  0.21060  0.50588  1.0000
  C   C3164     1.0  0.99551  0.14095  0.88344  1.0000
  H   H2524     1.0  0.74331  0.00427  0.85978  1.0000
  H   H2525     1.0  0.82137  0.20676  0.63534  1.0000
  C   C3165     1.0  0.99047  0.05661  0.93888  1.0000
  C   C3166     1.0  0.79959  0.20597  0.66009  1.0000
  H   H2526     1.0  0.98208  0.08858  0.77740  1.0000
  C   C3167     1.0  0.66844  0.15773  0.85565  1.0000
  C   C3168     1.0  0.99545  0.02032  0.98869  1.0000
  H   H2527     1.0  0.97196  0.03980  0.99010  1.0000
  C   C3169     1.0  0.96421  0.01098  0.53151  1.0000
  H   H2528     1.0  0.99818  0.15422  0.82104  1.0000
  H   H2529     1.0  0.99599  0.16607  0.86301  1.0000
  C   C3170     1.0  0.79572  0.00423  0.74283  1.0000
  C   C3171     1.0  0.91194  0.18278  0.50315  1.0000
  H   H2530     1.0  0.66695  0.17872  0.91540  1.0000
  S   S421      1.0  0.92912  0.25056  0.71176  1.0000
  H   H2531     1.0  0.85045  0.00411  0.96370  1.0000
  C   C3172     1.0  0.99874  0.07936  0.59440  1.0000
  C   C3173     1.0  0.99946  0.20204  0.77230  1.0000
  Fe  Fe213     1.0  0.70032  0.40893  0.34773  1.0000
  S   S422      1.0  0.71112  0.38430  0.32842  1.0000
  C   C3174     1.0  0.74467  0.47193  0.12529  1.0000
  Fe  Fe214     1.0  0.71571  0.43701  0.31444  1.0000
  S   S423      1.0  0.72706  0.41450  0.29257  1.0000
  S   S424      1.0  0.72316  0.46741  0.31041  1.0000
  Fe  Fe215     1.0  0.69994  0.40028  0.29916  1.0000
  S   S425      1.0  0.68163  0.39052  0.27172  1.0000
  Fe  Fe216     1.0  0.73738  0.40014  0.32341  1.0000
  S   S426      1.0  0.76707  0.38697  0.32264  1.0000
  S   S427      1.0  0.68797  0.42422  0.31886  1.0000
  S   S428      1.0  0.72727  0.42326  0.34495  1.0000
  Fe  Fe217     1.0  0.90060  0.35588  0.38528  1.0000
  S   S429      1.0  0.88945  0.37980  0.36392  1.0000
  S   S430      1.0  0.91504  0.33086  0.36798  1.0000
  Fe  Fe218     1.0  0.89340  0.37755  0.42794  1.0000
  S   S431      1.0  0.88264  0.40270  0.40853  1.0000
  S   S432      1.0  0.88958  0.37636  0.46598  1.0000
  Fe  Fe219     1.0  0.86651  0.38315  0.38938  1.0000
  S   S433      1.0  0.83565  0.39236  0.38580  1.0000
  Fe  Fe220     1.0  0.90646  0.39796  0.38407  1.0000
  S   S434      1.0  0.92098  0.42416  0.36963  1.0000
  S   S435      1.0  0.87641  0.35798  0.40949  1.0000
  S   S436      1.0  0.91843  0.37398  0.40476  1.0000
  C   C3175     1.0  0.73456  0.48869  0.12839  1.0000
  H   H2532     1.0  0.89945  0.41339  0.24503  1.0000
  S   S437      1.0  0.98242  0.45839  0.30199  1.0000
  C   C3176     1.0  0.96507  0.44926  0.32080  1.0000
  C   C3177     1.0  0.96522  0.42996  0.32557  1.0000
  C   C3178     1.0  0.95198  0.42206  0.34026  1.0000
  C   C3179     1.0  0.93821  0.43327  0.35062  1.0000
  C   C3180     1.0  0.93802  0.45256  0.34578  1.0000
  C   C3181     1.0  0.95122  0.46047  0.33102  1.0000
  H   H2533     1.0  0.97580  0.42104  0.31796  1.0000
  H   H2534     1.0  0.95272  0.40731  0.34391  1.0000
  H   H2535     1.0  0.92756  0.46152  0.35357  1.0000
  H   H2536     1.0  0.95076  0.47529  0.32767  1.0000
  H   H2537     1.0  0.97578  0.25448  0.42895  1.0000
  H   H2538     1.0  0.81827  0.25383  0.30363  1.0000
  C   C3182     1.0  0.80379  0.46602  0.19389  1.0000
  H   H2539     1.0  0.70365  0.43805  0.25388  1.0000
  H   H2540     1.0  0.71372  0.44210  0.14771  1.0000
  C   C3183     1.0  0.78614  0.38942  0.34002  1.0000
  C   C3184     1.0  0.78454  0.39952  0.35910  1.0000
  C   C3185     1.0  0.79980  0.40022  0.37284  1.0000
  C   C3186     1.0  0.81697  0.39110  0.36761  1.0000
  C   C3187     1.0  0.81868  0.38140  0.34826  1.0000
  C   C3188     1.0  0.80341  0.38061  0.33461  1.0000
  H   H2541     1.0  0.77151  0.40668  0.36337  1.0000
  H   H2542     1.0  0.79829  0.40790  0.38766  1.0000
  H   H2543     1.0  0.83182  0.37466  0.34373  1.0000
  H   H2544     1.0  0.80503  0.37319  0.31967  1.0000
  H   H2545     1.0  0.70993  0.49060  0.18476  1.0000
  H   H2546     1.0  0.87552  0.35070  0.26015  1.0000
  H   H2547     1.0  0.72765  0.48890  0.23162  1.0000
  C   C3189     1.0  0.68750  0.43659  0.39968  1.0000
  C   C3190     1.0  0.68370  0.44907  0.41660  1.0000
  H   H2548     1.0  0.69785  0.43959  0.38711  1.0000
  H   H2549     1.0  0.69117  0.46165  0.41675  1.0000
  C   C3191     1.0  0.90696  0.26824  0.35747  1.0000
  C   C3192     1.0  0.92166  0.27744  0.34722  1.0000
  C   C3193     1.0  0.92385  0.29652  0.35064  1.0000
  C   C3194     1.0  0.91140  0.30676  0.36429  1.0000
  C   C3195     1.0  0.89679  0.29752  0.37467  1.0000
  C   C3196     1.0  0.89461  0.27844  0.37128  1.0000
  H   H2550     1.0  0.93126  0.26991  0.33649  1.0000
  H   H2551     1.0  0.93527  0.30341  0.34255  1.0000
  H   H2552     1.0  0.88729  0.30508  0.38546  1.0000
  H   H2553     1.0  0.88327  0.27150  0.37946  1.0000
  C   C3197     1.0  0.69727  0.48373  0.28244  1.0000
  C   C3198     1.0  0.71417  0.48515  0.29249  1.0000
  C   C3199     1.0  0.71355  0.47585  0.37116  1.0000
  C   C3200     1.0  0.90817  0.29171  0.45522  1.0000
  H   H2554     1.0  0.68945  0.47141  0.28527  1.0000
  H   H2555     1.0  0.90563  0.41870  0.47447  1.0000
  H   H2556     1.0  0.74925  0.41250  0.48542  1.0000
  C   C3201     1.0  0.93588  0.37237  0.33683  1.0000
  H   H2557     1.0  0.94661  0.40856  0.28392  1.0000
  C   C3202     1.0  0.75698  0.49269  0.23534  1.0000
  C   C3203     1.0  0.93220  0.37269  0.29171  1.0000
  C   C3204     1.0  0.92197  0.38583  0.30416  1.0000
  C   C3205     1.0  0.92437  0.38590  0.32668  1.0000
  P   P105      1.0  0.90656  0.40287  0.29105  1.0000
  H   H2558     1.0  0.94702  0.46542  0.26193  1.0000
  C   C3206     1.0  0.88917  0.41141  0.31060  1.0000
  H   H2559     1.0  0.68077  0.49218  0.42463  1.0000
  H   H2560     1.0  0.87303  0.36562  0.22327  1.0000
  H   H2561     1.0  0.70291  0.42214  0.49911  1.0000
  C   C3207     1.0  0.88072  0.43141  0.34078  1.0000
  C   C3208     1.0  0.89351  0.42540  0.32467  1.0000
  C   C3209     1.0  0.71965  0.45512  0.14256  1.0000
  C   C3210     1.0  0.67867  0.39826  0.46828  1.0000
  C   C3211     1.0  0.66858  0.47306  0.35223  1.0000
  C   C3212     1.0  0.74943  0.38492  0.39955  1.0000
  H   H2562     1.0  0.90012  0.29401  0.47016  1.0000
  H   H2563     1.0  0.93724  0.37226  0.35436  1.0000
  C   C3213     1.0  0.91990  0.45462  0.26807  1.0000
  H   H2564     1.0  0.68226  0.35135  0.28812  1.0000
  H   H2565     1.0  0.93108  0.37277  0.27418  1.0000
  H   H2566     1.0  0.91744  0.39641  0.33651  1.0000
  C   C3214     1.0  0.88604  0.39049  0.23204  1.0000
  H   H2567     1.0  0.88458  0.44162  0.35217  1.0000
  H   H2568     1.0  0.90705  0.43126  0.32374  1.0000
  C   C3215     1.0  0.81542  0.44820  0.22498  1.0000
  C   C3216     1.0  0.87152  0.40398  0.31248  1.0000
  C   C3217     1.0  0.88069  0.36441  0.25689  1.0000
  H   H2569     1.0  0.75680  0.38796  0.45355  1.0000
  C   C3218     1.0  0.67484  0.27848  0.19572  1.0000
  C   C3219     1.0  0.68782  0.50019  0.20623  1.0000
  C   C3220     1.0  0.89560  0.39144  0.26950  1.0000
  C   C3221     1.0  0.71710  0.48880  0.13912  1.0000
  H   H2570     1.0  0.91263  0.46773  0.26422  1.0000
  C   C3222     1.0  0.77291  0.47579  0.30632  1.0000
  C   C3223     1.0  0.77252  0.45769  0.31514  1.0000
  C   C3224     1.0  0.86335  0.42372  0.34280  1.0000
  C   C3225     1.0  0.76610  0.44641  0.27965  1.0000
  C   C3226     1.0  0.76636  0.46459  0.27066  1.0000
  C   C3227     1.0  0.76993  0.47925  0.28414  1.0000
  P   P106      1.0  0.76307  0.46857  0.24180  1.0000
  C   C3228     1.0  0.74466  0.45431  0.23389  1.0000
  Fe  Fe221     1.0  0.99494  0.48401  0.28362  1.0000
  C   C3229     1.0  0.83180  0.27840  0.31251  1.0000
  C   C3230     1.0  0.93925  0.45333  0.26665  1.0000
  H   H2571     1.0  0.67082  0.26399  0.12240  1.0000
  H   H2572     1.0  0.95439  0.34849  0.33249  1.0000
  S   S438      1.0  0.68240  0.40389  0.37842  1.0000
  C   C3231     1.0  0.74540  0.44572  0.21368  1.0000
  C   C3232     1.0  0.73118  0.43442  0.20806  1.0000
  C   C3233     1.0  0.73161  0.46899  0.37487  1.0000
  C   C3234     1.0  0.71522  0.44034  0.24253  1.0000
  C   C3235     1.0  0.72937  0.45164  0.24817  1.0000
  C   C3236     1.0  0.78441  0.46279  0.22682  1.0000
  C   C3237     1.0  0.78708  0.46977  0.20537  1.0000
  C   C3238     1.0  0.91557  0.27395  0.45059  1.0000
  H   H2573     1.0  0.93639  0.28410  0.40120  1.0000
  H   H2574     1.0  0.69259  0.49177  0.22004  1.0000
  C   C3239     1.0  0.79872  0.45193  0.23652  1.0000
  C   C3240     1.0  0.97271  0.25359  0.41193  1.0000
  H   H2575     1.0  0.77453  0.45503  0.33237  1.0000
  H   H2576     1.0  0.91311  0.26254  0.46205  1.0000
  C   C3241     1.0  0.83103  0.25942  0.30874  1.0000
  H   H2577     1.0  0.97745  0.47276  0.19936  1.0000
  C   C3242     1.0  0.73727  0.45516  0.13248  1.0000
  C   C3243     1.0  0.81797  0.45526  0.20370  1.0000
  C   C3244     1.0  0.73063  0.39033  0.39937  1.0000
  C   C3245     1.0  0.73448  0.49154  0.40263  1.0000
  H   H2578     1.0  0.67326  0.37792  0.34404  1.0000
  H   H2579     1.0  0.95182  0.34920  0.29226  1.0000
  C   C3246     1.0  0.67015  0.44547  0.43300  1.0000
  C   C3247     1.0  0.92146  0.30371  0.42130  1.0000
  C   C3248     1.0  0.67785  0.42027  0.39906  1.0000
  H   H2580     1.0  0.72849  0.45811  0.26383  1.0000
  H   H2581     1.0  0.70596  0.46980  0.35851  1.0000
  H   H2582     1.0  0.77344  0.38023  0.41911  1.0000
  H   H2583     1.0  0.95242  0.26324  0.46401  1.0000
  H   H2584     1.0  0.72519  0.43140  0.43371  1.0000
  H   H2585     1.0  0.79720  0.44644  0.25304  1.0000
  C   C3249     1.0  0.72973  0.39057  0.48704  1.0000
  H   H2586     1.0  0.76341  0.43485  0.26961  1.0000
  C   C3250     1.0  0.74203  0.47671  0.39070  1.0000
  H   H2587     1.0  0.76869  0.42897  0.30868  1.0000
  C   C3251     1.0  0.94399  0.35936  0.30186  1.0000
  C   C3252     1.0  0.69528  0.38871  0.46211  1.0000
  P   P107      1.0  0.84979  0.31015  0.32375  1.0000
  C   C3253     1.0  0.84777  0.31449  0.35252  1.0000
  C   C3254     1.0  0.87179  0.31734  0.31232  1.0000
  C   C3255     1.0  0.88262  0.32943  0.32335  1.0000
  C   C3256     1.0  0.89984  0.33438  0.31452  1.0000
  C   C3257     1.0  0.76918  0.44300  0.30179  1.0000
  C   C3258     1.0  0.89576  0.31523  0.28365  1.0000
  C   C3259     1.0  0.87850  0.31030  0.29237  1.0000
  C   C3260     1.0  0.84941  0.29994  0.36818  1.0000
  C   C3261     1.0  0.84744  0.30363  0.39037  1.0000
  C   C3262     1.0  0.84370  0.32180  0.39704  1.0000
  C   C3263     1.0  0.84186  0.33630  0.38151  1.0000
  C   C3264     1.0  0.84398  0.33267  0.35937  1.0000
  C   C3265     1.0  0.83101  0.32318  0.31065  1.0000
  C   C3266     1.0  0.81358  0.32506  0.32141  1.0000
  C   C3267     1.0  0.79904  0.33539  0.31170  1.0000
  C   C3268     1.0  0.80172  0.34385  0.29114  1.0000
  C   C3269     1.0  0.81896  0.34196  0.28025  1.0000
  C   C3270     1.0  0.83356  0.33166  0.28993  1.0000
  H   H2588     1.0  0.88504  0.39696  0.21593  1.0000
  C   C3271     1.0  0.71749  0.45565  0.45161  1.0000
  C   C3272     1.0  0.71615  0.43165  0.22254  1.0000
  C   C3273     1.0  0.73875  0.49846  0.23032  1.0000
  C   C3274     1.0  0.85868  0.41022  0.32846  1.0000
  H   H2589     1.0  0.87820  0.33473  0.33903  1.0000
  H   H2590     1.0  0.90826  0.34341  0.32341  1.0000
  C   C3275     1.0  0.94869  0.43656  0.27197  1.0000
  C   C3276     1.0  0.75879  0.38427  0.41912  1.0000
  C   C3277     1.0  0.72113  0.39488  0.41878  1.0000
  H   H2591     1.0  0.85241  0.28580  0.36341  1.0000
  H   H2592     1.0  0.84903  0.29241  0.40241  1.0000
  H   H2593     1.0  0.84236  0.32473  0.41421  1.0000
  H   H2594     1.0  0.83896  0.35043  0.38664  1.0000
  H   H2595     1.0  0.84272  0.34407  0.34756  1.0000
  H   H2596     1.0  0.81124  0.31870  0.33742  1.0000
  H   H2597     1.0  0.78576  0.33723  0.32030  1.0000
  H   H2598     1.0  0.79048  0.35214  0.28390  1.0000
  H   H2599     1.0  0.82100  0.34864  0.26436  1.0000
  H   H2600     1.0  0.84678  0.33049  0.28124  1.0000
  H   H2601     1.0  0.87687  0.27889  0.32736  1.0000
  C   C3278     1.0  0.73032  0.39400  0.43858  1.0000
  C   C3279     1.0  0.84837  0.28569  0.31899  1.0000
  C   C3280     1.0  0.71971  0.43647  0.44910  1.0000
  C   C3281     1.0  0.92610  0.27098  0.43127  1.0000
  H   H2602     1.0  0.67412  0.34568  0.33125  1.0000
  H   H2603     1.0  0.75697  0.44751  0.20234  1.0000
  C   C3282     1.0  0.90427  0.42362  0.49097  1.0000
  H   H2604     1.0  0.77005  0.49338  0.27775  1.0000
  H   H2605     1.0  0.73760  0.45784  0.36515  1.0000
  H   H2606     1.0  0.70654  0.39898  0.41832  1.0000
  C   C3283     1.0  0.91001  0.43918  0.27505  1.0000
  H   H2607     1.0  0.90547  0.32041  0.44415  1.0000
  C   C3284     1.0  0.71647  0.49857  0.39883  1.0000
  H   H2608     1.0  0.74504  0.44216  0.12989  1.0000
  H   H2609     1.0  0.68334  0.27118  0.16330  1.0000
  C   C3285     1.0  0.91116  0.30660  0.44060  1.0000
  H   H2610     1.0  0.72110  0.46505  0.43820  1.0000
  C   C3286     1.0  0.67769  0.36213  0.45340  1.0000
  C   C3287     1.0  0.87929  0.37281  0.23616  1.0000
  C   C3288     1.0  0.88884  0.37366  0.27347  1.0000
  H   H2611     1.0  0.89514  0.25196  0.42400  1.0000
  H   H2612     1.0  0.72542  0.25277  0.09508  1.0000
  C   C3289     1.0  0.98327  0.25522  0.37407  1.0000
  C   C3290     1.0  0.74929  0.38874  0.43862  1.0000
  C   C3291     1.0  0.69755  0.49954  0.18618  1.0000
  C   C3292     1.0  0.94561  0.35903  0.32447  1.0000
  H   H2613     1.0  0.73190  0.42759  0.19261  1.0000
  H   H2614     1.0  0.84518  0.40436  0.33009  1.0000
  H   H2615     1.0  0.82644  0.43994  0.23265  1.0000
  H   H2616     1.0  0.96372  0.43577  0.27139  1.0000
  H   H2617     1.0  0.75815  0.47194  0.11703  1.0000
  H   H2618     1.0  0.75605  0.47136  0.39345  1.0000
  H   H2619     1.0  0.88980  0.36701  0.28949  1.0000
  H   H2620     1.0  0.67727  0.34823  0.44735  1.0000
  H   H2621     1.0  0.77628  0.47827  0.19760  1.0000
  H   H2622     1.0  0.77518  0.48719  0.31678  1.0000
  C   C3293     1.0  0.71450  0.42418  0.46617  1.0000
  S   S439      1.0  0.99543  0.48421  0.24666  1.0000
  H   H2623     1.0  0.80581  0.47159  0.17743  1.0000
  C   C3294     1.0  0.86399  0.27367  0.32204  1.0000
  H   H2624     1.0  0.91999  0.33074  0.28827  1.0000
  C   C3295     1.0  0.91944  0.42233  0.28071  1.0000
  H   H2625     1.0  0.87052  0.30072  0.28372  1.0000
  H   H2626     1.0  0.75670  0.38118  0.38450  1.0000
  H   H2627     1.0  0.92369  0.31527  0.40993  1.0000
  C   C3296     1.0  0.91956  0.43028  0.50107  1.0000
  C   C3297     1.0  0.92878  0.28597  0.41650  1.0000
  H   H2628     1.0  0.89503  0.44049  0.27649  1.0000
  H   H2629     1.0  0.69568  0.47159  0.15304  1.0000
  C   C3298     1.0  0.68360  0.25550  0.12220  1.0000
  H   H2630     1.0  0.86759  0.39326  0.30196  1.0000
  P   P108      1.0  0.68272  0.50015  0.37758  1.0000
  H   H2631     1.0  0.85363  0.42796  0.35572  1.0000
  P   P109      1.0  0.71738  0.39935  0.46347  1.0000
  C   C3299     1.0  0.90645  0.32724  0.29476  1.0000
  H   H2632     1.0  0.83097  0.45247  0.19485  1.0000
  H   H2633     1.0  0.70731  0.47750  0.47252  1.0000
  C   C3300     1.0  0.69777  0.25992  0.10714  1.0000
  H   H2634     1.0  0.92417  0.38021  0.48958  1.0000
  H   H2635     1.0  0.81949  0.28727  0.31025  1.0000
  C   C3301     1.0  0.70950  0.47186  0.14565  1.0000
  C   C3302     1.0  0.67293  0.35277  0.27472  1.0000
  H   H2636     1.0  0.69583  0.27166  0.09585  1.0000
  H   H2637     1.0  0.70725  0.36304  0.44941  1.0000
  C   C3303     1.0  0.70716  0.43136  0.48578  1.0000
  C   C3304     1.0  0.66768  0.48146  0.37258  1.0000
  H   H2638     1.0  0.72334  0.39095  0.38420  1.0000
  H   H2639     1.0  0.90103  0.30943  0.26851  1.0000
  H   H2640     1.0  0.87551  0.41744  0.49447  1.0000
  C   C3305     1.0  0.70571  0.49058  0.38328  1.0000
  C   C3306     1.0  0.98889  0.47893  0.19039  1.0000
  C   C3307     1.0  0.91296  0.37892  0.50155  1.0000
  C   C3308     1.0  0.69016  0.49858  0.26928  1.0000
  C   C3309     1.0  0.89419  0.39979  0.24863  1.0000
  C   C3310     1.0  0.70981  0.46268  0.47099  1.0000
  C   C3311     1.0  0.93888  0.42113  0.27910  1.0000
  C   C3312     1.0  0.69464  0.37059  0.45455  1.0000
  H   H2641     1.0  0.67678  0.49758  0.26214  1.0000
  C   C3313     1.0  0.89493  0.37672  0.49451  1.0000
  H   H2642     1.0  0.96249  0.25135  0.35047  1.0000
  H   H2643     1.0  0.67856  0.41243  0.47341  1.0000
  H   H2644     1.0  0.70528  0.42261  0.21844  1.0000
  H   H2645     1.0  0.66638  0.32378  0.27596  1.0000
  C   C3314     1.0  0.70464  0.45053  0.48807  1.0000
  C   C3315     1.0  0.74480  0.40012  0.49418  1.0000
  H   H2646     1.0  0.93275  0.43079  0.49222  1.0000
  H   H2647     1.0  0.99754  0.45381  0.17425  1.0000
  H   H2648     1.0  0.99427  0.25701  0.36185  1.0000
  C   C3316     1.0  0.86316  0.25474  0.31821  1.0000
  C   C3317     1.0  0.67019  0.37013  0.26412  1.0000
  H   H2649     1.0  0.71239  0.36721  0.49400  1.0000
  C   C3318     1.0  0.98693  0.25607  0.39621  1.0000
  C   C3319     1.0  0.99253  0.49750  0.19327  1.0000
  H   H2650     1.0  0.67782  0.47797  0.33924  1.0000
  H   H2651     1.0  0.68097  0.29191  0.19446  1.0000
  C   C3320     1.0  0.67612  0.26665  0.17807  1.0000
  H   H2652     1.0  0.74269  0.49775  0.41464  1.0000
  C   C3321     1.0  0.72412  0.37469  0.49886  1.0000
  C   C3322     1.0  0.96538  0.25202  0.36764  1.0000
  Fe  Fe222     1.0  0.69628  0.41737  0.68250  1.0000
  S   S440      1.0  0.70693  0.39062  0.69872  1.0000
  C   C3323     1.0  0.74659  0.47948  0.82947  1.0000
  Fe  Fe223     1.0  0.71455  0.44106  0.71576  1.0000
  S   S441      1.0  0.72635  0.41599  0.73424  1.0000
  S   S442      1.0  0.71877  0.47178  0.72128  1.0000
  Fe  Fe224     1.0  0.73416  0.40491  0.70093  1.0000
  S   S443      1.0  0.76166  0.38823  0.69370  1.0000
  Fe  Fe225     1.0  0.69838  0.40354  0.73055  1.0000
  H   H2653     1.0  0.81377  0.46786  0.75109  1.0000
  S   S444      1.0  0.72379  0.43070  0.68260  1.0000
  S   S445      1.0  0.68634  0.42956  0.71419  1.0000
  Fe  Fe226     1.0  0.89814  0.35179  0.64624  1.0000
  S   S446      1.0  0.92106  0.36748  0.62911  1.0000
  S   S447      1.0  0.90037  0.31970  0.65073  1.0000
  Fe  Fe227     1.0  0.87107  0.38608  0.64420  1.0000
  S   S448      1.0  0.89265  0.40345  0.62653  1.0000
  S   S449      1.0  0.84254  0.40161  0.65005  1.0000
  Fe  Fe228     1.0  0.89942  0.37862  0.60561  1.0000
  S   S450      1.0  0.90782  0.37932  0.56850  1.0000
  Fe  Fe229     1.0  0.91294  0.39141  0.65114  1.0000
  S   S451      1.0  0.93533  0.40999  0.66530  1.0000
  S   S452      1.0  0.87681  0.36211  0.62181  1.0000
  S   S453      1.0  0.89107  0.37496  0.66972  1.0000
  C   C3324     1.0  0.75425  0.39373  0.51267  1.0000
  S   S454      1.0  0.98230  0.46374  0.72392  1.0000
  C   C3325     1.0  0.99061  0.31789  0.62057  1.0000
  C   C3326     1.0  0.94786  0.42475  0.68252  1.0000
  C   C3327     1.0  0.94184  0.42946  0.70373  1.0000
  C   C3328     1.0  0.95232  0.44124  0.71637  1.0000
  C   C3329     1.0  0.96897  0.44867  0.70804  1.0000
  C   C3330     1.0  0.97497  0.44378  0.68694  1.0000
  C   C3331     1.0  0.96463  0.43199  0.67445  1.0000
  H   H2654     1.0  0.92909  0.42392  0.71051  1.0000
  H   H2655     1.0  0.94736  0.44484  0.73252  1.0000
  H   H2656     1.0  0.98757  0.44932  0.67992  1.0000
  H   H2657     1.0  0.96965  0.42854  0.65832  1.0000
  C   C3332     1.0  0.88422  0.37590  0.53317  1.0000
  C   C3333     1.0  0.90224  0.37822  0.54015  1.0000
  C   C3334     1.0  0.91652  0.37972  0.52406  1.0000
  H   H2658     1.0  0.87301  0.37466  0.54514  1.0000
  H   H2659     1.0  0.93051  0.38154  0.52902  1.0000
  C   C3335     1.0  0.78406  0.39235  0.68149  1.0000
  C   C3336     1.0  0.78896  0.40979  0.67313  1.0000
  C   C3337     1.0  0.80695  0.41237  0.66402  1.0000
  C   C3338     1.0  0.82031  0.39751  0.66275  1.0000
  C   C3339     1.0  0.81534  0.38000  0.67084  1.0000
  C   C3340     1.0  0.79740  0.37749  0.68015  1.0000
  H   H2660     1.0  0.77890  0.42131  0.67382  1.0000
  H   H2661     1.0  0.81053  0.42597  0.65780  1.0000
  H   H2662     1.0  0.82532  0.36838  0.66998  1.0000
  H   H2663     1.0  0.79387  0.36389  0.68649  1.0000
  C   C3341     1.0  0.93383  0.31451  0.61069  1.0000
  H   H2664     1.0  0.72266  0.41030  0.61293  1.0000
  H   H2665     1.0  0.80338  0.46789  0.81416  1.0000
  C   C3342     1.0  0.69082  0.43356  0.61939  1.0000
  C   C3343     1.0  0.69114  0.43891  0.59707  1.0000
  H   H2666     1.0  0.96098  0.28223  0.61404  1.0000
  C   C3344     1.0  0.87209  0.41853  0.57515  1.0000
  H   H2667     1.0  0.70272  0.43547  0.62914  1.0000
  H   H2668     1.0  0.70341  0.44487  0.58977  1.0000
  C   C3345     1.0  0.92062  0.26943  0.69454  1.0000
  C   C3346     1.0  0.92051  0.28764  0.70223  1.0000
  C   C3347     1.0  0.91434  0.30312  0.68923  1.0000
  C   C3348     1.0  0.90818  0.30068  0.66819  1.0000
  C   C3349     1.0  0.90824  0.28246  0.66052  1.0000
  C   C3350     1.0  0.91439  0.26696  0.67355  1.0000
  H   H2669     1.0  0.92527  0.28979  0.71841  1.0000
  H   H2670     1.0  0.91428  0.31694  0.69554  1.0000
  H   H2671     1.0  0.90355  0.28032  0.64431  1.0000
  H   H2672     1.0  0.93839  0.45561  0.80573  1.0000
  C   C3351     1.0  0.71470  0.47336  0.76645  1.0000
  C   C3352     1.0  0.71705  0.48313  0.74658  1.0000
  H   H2673     1.0  0.83424  0.42127  0.60947  1.0000
  H   H2674     1.0  0.71361  0.45845  0.76666  1.0000
  H   H2675     1.0  0.68334  0.35546  0.74048  1.0000
  H   H2676     1.0  0.69133  0.34596  0.67953  1.0000
  C   C3353     1.0  0.95060  0.32356  0.61038  1.0000
  H   H2677     1.0  0.86664  0.37347  0.50558  1.0000
  P   P110      1.0  0.76276  0.41122  0.60413  1.0000
  H   H2678     1.0  0.79567  0.43386  0.60368  1.0000
  C   C3354     1.0  0.71393  0.48291  0.78616  1.0000
  C   C3355     1.0  0.84607  0.42574  0.59971  1.0000
  C   C3356     1.0  0.75760  0.48727  0.81274  1.0000
  H   H2679     1.0  0.73704  0.46082  0.55457  1.0000
  C   C3357     1.0  0.95360  0.33793  0.59487  1.0000
  H   H2680     1.0  0.79673  0.39832  0.62567  1.0000
  H   H2681     1.0  0.75743  0.44860  0.58363  1.0000
  H   H2682     1.0  0.75240  0.45667  0.66229  1.0000
  C   C3358     1.0  0.74921  0.42020  0.58157  1.0000
  C   C3359     1.0  0.78608  0.43867  0.61640  1.0000
  P   P111      1.0  0.78307  0.48559  0.77739  1.0000
  C   C3360     1.0  0.76172  0.45179  0.64930  1.0000
  H   H2683     1.0  0.66709  0.32646  0.74989  1.0000
  C   C3361     1.0  0.94023  0.34275  0.57949  1.0000
  H   H2684     1.0  0.84392  0.45367  0.61098  1.0000
  C   C3362     1.0  0.91533  0.47752  0.56391  1.0000
  C   C3363     1.0  0.78358  0.39868  0.59453  1.0000
  C   C3364     1.0  0.76853  0.47580  0.79893  1.0000
  H   H2685     1.0  0.66626  0.47348  0.60774  1.0000
  H   H2686     1.0  0.73747  0.45427  0.84522  1.0000
  C   C3365     1.0  0.96083  0.26056  0.66398  1.0000
  H   H2687     1.0  0.99371  0.41145  0.73489  1.0000
  C   C3366     1.0  0.82996  0.47992  0.81337  1.0000
  C   C3367     1.0  0.66802  0.48726  0.92959  1.0000
  C   C3368     1.0  0.72933  0.39909  0.62229  1.0000
  C   C3369     1.0  0.76916  0.43015  0.62045  1.0000
  C   C3370     1.0  0.80072  0.46328  0.74562  1.0000
  C   C3371     1.0  0.81427  0.38494  0.60163  1.0000
  C   C3372     1.0  0.96966  0.36736  0.66336  1.0000
  C   C3373     1.0  0.75684  0.43712  0.63665  1.0000
  H   H2688     1.0  0.87208  0.42814  0.53207  1.0000
  C   C3374     1.0  0.89957  0.46823  0.55838  1.0000
  H   H2689     1.0  0.92979  0.44134  0.53012  1.0000
  C   C3375     1.0  0.91786  0.43608  0.52257  1.0000
  C   C3376     1.0  0.68004  0.48146  0.94611  1.0000
  H   H2690     1.0  0.95140  0.37787  0.68898  1.0000
  C   C3377     1.0  0.97367  0.43639  0.77480  1.0000
  C   C3378     1.0  0.78434  0.44386  0.72199  1.0000
  P   P112      1.0  0.96711  0.31858  0.63138  1.0000
  C   C3379     1.0  0.92040  0.31951  0.59546  1.0000
  C   C3380     1.0  0.96579  0.29334  0.66698  1.0000
  H   H2691     1.0  0.98340  0.31237  0.58752  1.0000
  C   C3381     1.0  0.94975  0.44609  0.80105  1.0000
  H   H2692     1.0  0.96304  0.38889  0.78452  1.0000
  C   C3382     1.0  0.86723  0.44962  0.58854  1.0000
  C   C3383     1.0  0.67571  0.43658  0.58418  1.0000
  C   C3384     1.0  0.76746  0.45054  0.73106  1.0000
  C   C3385     1.0  0.96174  0.28058  0.63156  1.0000
  H   H2693     1.0  0.96602  0.34575  0.59502  1.0000
  C   C3386     1.0  0.94370  0.35101  0.67905  1.0000
  H   H2694     1.0  0.97765  0.37972  0.66229  1.0000
  H   H2695     1.0  0.87258  0.47137  0.54419  1.0000
  C   C3387     1.0  0.74626  0.46022  0.83245  1.0000
  C   C3388     1.0  0.88548  0.42867  0.52380  1.0000
  C   C3389     1.0  0.80610  0.48792  0.78727  1.0000
  C   C3390     1.0  0.72617  0.43431  0.54845  1.0000
  S   S455      1.0  0.67998  0.39264  0.75920  1.0000
  H   H2696     1.0  0.98053  0.43868  0.75915  1.0000
  H   H2697     1.0  0.67835  0.33515  0.89070  1.0000
  C   C3391     1.0  0.99448  0.31448  0.59848  1.0000
  H   H2698     1.0  0.92731  0.46995  0.57041  1.0000
  C   C3392     1.0  0.91808  0.44113  0.60004  1.0000
  C   C3393     1.0  0.75684  0.38172  0.63416  1.0000
  H   H2699     1.0  0.82527  0.38163  0.61294  1.0000
  C   C3394     1.0  0.78379  0.46984  0.75507  1.0000
  C   C3395     1.0  0.90089  0.43498  0.53426  1.0000
  H   H2700     1.0  0.81402  0.44496  0.72215  1.0000
  C   C3396     1.0  0.73752  0.44613  0.55893  1.0000
  C   C3397     1.0  0.79802  0.39438  0.60885  1.0000
  C   C3398     1.0  0.97974  0.42200  0.78910  1.0000
  C   C3399     1.0  0.93107  0.43329  0.61440  1.0000
  H   H2701     1.0  0.82900  0.37253  0.57437  1.0000
  C   C3400     1.0  0.77882  0.45980  0.64564  1.0000
  H   H2702     1.0  0.75455  0.44566  0.72542  1.0000
  H   H2703     1.0  0.96820  0.30483  0.67722  1.0000
  H   H2704     1.0  0.71219  0.47520  0.80142  1.0000
  H   H2705     1.0  0.75227  0.35998  0.65832  1.0000
  C   C3401     1.0  0.73804  0.40834  0.57062  1.0000
  C   C3402     1.0  0.88462  0.47839  0.54910  1.0000
  C   C3403     1.0  0.95477  0.36639  0.67839  1.0000
  C   C3404     1.0  0.81635  0.37983  0.57994  1.0000
  H   H2706     1.0  0.94845  0.42980  0.83103  1.0000
  C   C3405     1.0  0.95881  0.44843  0.78079  1.0000
  H   H2707     1.0  0.77167  0.37932  0.63447  1.0000
  H   H2708     1.0  0.73785  0.39372  0.57520  1.0000
  H   H2709     1.0  0.70346  0.39064  0.63700  1.0000
  H   H2710     1.0  0.87165  0.46361  0.59010  1.0000
  H   H2711     1.0  0.93172  0.43843  0.63073  1.0000
  H   H2712     1.0  0.80387  0.38030  0.54861  1.0000
  C   C3406     1.0  0.72648  0.41542  0.55423  1.0000
  S   S456      1.0  0.67438  0.41711  0.65645  1.0000
  C   C3407     1.0  0.95984  0.26297  0.64139  1.0000
  C   C3408     1.0  0.76717  0.46337  0.74762  1.0000
  H   H2713     1.0  0.77508  0.39690  0.56120  1.0000
  C   C3409     1.0  0.80215  0.38419  0.56546  1.0000
  H   H2714     1.0  0.91300  0.33783  0.56840  1.0000
  H   H2715     1.0  0.68306  0.47683  0.98066  1.0000
  C   C3410     1.0  0.96390  0.27571  0.67672  1.0000
  H   H2716     1.0  0.74358  0.43103  0.63980  1.0000
  C   C3411     1.0  0.70305  0.49369  0.64141  1.0000
  H   H2717     1.0  0.93862  0.32499  0.66502  1.0000
  H   H2718     1.0  0.67250  0.39109  0.81639  1.0000
  H   H2719     1.0  0.67333  0.32528  0.70442  1.0000
  C   C3412     1.0  0.66952  0.36728  0.67778  1.0000
  C   C3413     1.0  0.71835  0.38793  0.63595  1.0000
  C   C3414     1.0  0.74869  0.39604  0.62115  1.0000
  C   C3415     1.0  0.67733  0.35012  0.68473  1.0000
  C   C3416     1.0  0.97374  0.35277  0.64926  1.0000
  H   H2720     1.0  0.69875  0.48946  0.65779  1.0000
  C   C3417     1.0  0.95548  0.43160  0.81530  1.0000
  H   H2721     1.0  0.75670  0.43375  0.82096  1.0000
  C   C3418     1.0  0.81223  0.47762  0.80566  1.0000
  C   C3419     1.0  0.80095  0.45028  0.72918  1.0000
  H   H2722     1.0  0.71817  0.36527  0.65966  1.0000
  H   H2723     1.0  0.97475  0.40845  0.82060  1.0000
  H   H2724     1.0  0.72915  0.35612  0.52644  1.0000
  C   C3420     1.0  0.92363  0.33356  0.57980  1.0000
  H   H2725     1.0  0.78453  0.43353  0.70957  1.0000
  C   C3421     1.0  0.97295  0.37995  0.77585  1.0000
  C   C3422     1.0  0.96435  0.29598  0.64433  1.0000
  H   H2726     1.0  0.96430  0.27379  0.69428  1.0000
  C   C3423     1.0  0.97040  0.41956  0.80935  1.0000
  H   H2727     1.0  0.73794  0.48847  0.83977  1.0000
  C   C3424     1.0  0.67365  0.48089  0.96782  1.0000
  H   H2728     1.0  0.75598  0.37288  0.53856  1.0000
  P   P113      1.0  0.89876  0.44335  0.56167  1.0000
  C   C3425     1.0  0.91682  0.43416  0.57910  1.0000
  C   C3426     1.0  0.92857  0.41911  0.57288  1.0000
  C   C3427     1.0  0.94136  0.41111  0.58742  1.0000
  C   C3428     1.0  0.94260  0.41819  0.60817  1.0000
  H   H2729     1.0  0.71735  0.40639  0.54636  1.0000
  H   H2730     1.0  0.88030  0.40833  0.56606  1.0000
  H   H2731     1.0  0.78274  0.47089  0.65577  1.0000
  H   H2732     1.0  0.92733  0.41287  0.55727  1.0000
  H   H2733     1.0  0.94979  0.39897  0.58286  1.0000
  H   H2734     1.0  0.95210  0.41167  0.61971  1.0000
  C   C3429     1.0  0.87740  0.43697  0.57537  1.0000
  H   H2735     1.0  0.83458  0.47200  0.82764  1.0000
  H   H2736     1.0  0.97491  0.33860  0.75050  1.0000
  H   H2737     1.0  0.90872  0.45230  0.60550  1.0000
  C   C3430     1.0  0.85643  0.41297  0.58715  1.0000
  H   H2738     1.0  0.71676  0.43986  0.53623  1.0000
  C   C3431     1.0  0.74580  0.37055  0.64776  1.0000
  C   C3432     1.0  0.97951  0.35150  0.75656  1.0000
  H   H2739     1.0  0.75396  0.46812  0.75476  1.0000
  C   C3433     1.0  0.72659  0.37364  0.64866  1.0000
  C   C3434     1.0  0.84167  0.49247  0.80281  1.0000
  C   C3435     1.0  0.67518  0.42544  0.62892  1.0000
  H   H2740     1.0  0.95284  0.35948  0.77084  1.0000
  H   H2741     1.0  0.85278  0.39858  0.58735  1.0000
  C   C3436     1.0  0.99136  0.38498  0.77216  1.0000
  H   H2742     1.0  0.95461  0.45976  0.76972  1.0000
  H   H2743     1.0  0.73113  0.48352  0.64615  1.0000
  C   C3437     1.0  0.79093  0.45334  0.62908  1.0000
  H   H2744     1.0  0.67339  0.48776  0.91298  1.0000
  S   S457      1.0  0.99632  0.47901  0.78178  1.0000
  H   H2745     1.0  0.76588  0.40115  0.51802  1.0000
  S   S458      1.0  0.67692  0.44299  0.55598  1.0000
  C   C3438     1.0  0.74902  0.43914  0.57545  1.0000
  C   C3439     1.0  0.88518  0.49766  0.54601  1.0000
  H   H2746     1.0  0.76191  0.50027  0.73947  1.0000
  C   C3440     1.0  0.94772  0.33647  0.66495  1.0000
  H   H2747     1.0  0.90718  0.31299  0.59643  1.0000
  C   C3441     1.0  0.88064  0.37517  0.51062  1.0000
  C   C3442     1.0  0.73357  0.36838  0.51738  1.0000
  C   C3443     1.0  0.72155  0.49021  0.63483  1.0000
  C   C3444     1.0  0.96708  0.36326  0.76806  1.0000
  H   H2748     1.0  0.77652  0.44724  0.79173  1.0000
  H   H2749     1.0  0.94233  0.35412  0.56782  1.0000
  C   C3445     1.0  0.96307  0.33695  0.65042  1.0000
  H   H2750     1.0  0.69442  0.47779  0.94214  1.0000
  H   H2751     1.0  0.74197  0.49241  0.60866  1.0000
  C   C3446     1.0  0.76822  0.45642  0.80214  1.0000
  H   H2752     1.0  0.93068  0.30415  0.62325  1.0000
  C   C3447     1.0  0.85152  0.44403  0.60050  1.0000
  C   C3448     1.0  0.78581  0.39358  0.57270  1.0000
  H   H2753     1.0  0.80424  0.45947  0.62633  1.0000
  H   H2754     1.0  0.93165  0.35061  0.68999  1.0000
  C   C3449     1.0  0.67240  0.35548  0.75291  1.0000
  C   C3450     1.0  0.72764  0.49521  0.61372  1.0000
  H   H2755     1.0  0.98491  0.35407  0.63724  1.0000
  C   C3451     1.0  0.74866  0.37784  0.52424  1.0000
  H   H2756     1.0  0.67741  0.37645  0.66709  1.0000
  C   C3452     1.0  0.75707  0.44869  0.81878  1.0000
  H   H2757     1.0  0.67123  0.48975  0.84555  1.0000
  C   C3453     1.0  0.66781  0.37176  0.76400  1.0000
  H   H2758     1.0  0.85534  0.49430  0.80891  1.0000
  C   C3454     1.0  0.99783  0.35645  0.75276  1.0000
  C   C3455     1.0  0.91584  0.49679  0.56081  1.0000
  C   C3456     1.0  0.88724  0.42288  0.50231  1.0000
  H   H2759     1.0  0.91443  0.25314  0.66728  1.0000
  C   C3457     1.0  0.66719  0.33847  0.69872  1.0000
  H   H2760     1.0  0.66752  0.49117  0.71356  1.0000
  P   P114      1.0  0.99920  0.40657  0.78176  1.0000
  C   C3458     1.0  0.81805  0.50035  0.77659  1.0000
  H   H2761     1.0  0.95739  0.25118  0.63159  1.0000
  H   H2762     1.0  0.69816  0.45595  0.50285  1.0000
  Fe  Fe230     1.0  0.99900  0.48316  0.74523  1.0000
  Fe  Fe231     1.0  0.68687  0.57871  0.18797  1.0000
  S   S459      1.0  0.70432  0.60353  0.19249  1.0000
  C   C3459     1.0  0.85712  0.59402  0.29419  1.0000
  Fe  Fe232     1.0  0.69937  0.55918  0.23086  1.0000
  S   S460      1.0  0.71769  0.58239  0.23842  1.0000
  S   S461      1.0  0.68962  0.53344  0.25008  1.0000
  Fe  Fe233     1.0  0.69389  0.60198  0.22783  1.0000
  S   S462      1.0  0.68505  0.62645  0.24982  1.0000
  Fe  Fe234     1.0  0.72704  0.58249  0.20277  1.0000
  S   S463      1.0  0.75823  0.57860  0.19194  1.0000
  H   H2763     1.0  0.73707  0.50265  0.29669  1.0000
  S   S464      1.0  0.70981  0.55786  0.19606  1.0000
  H   H2764     1.0  0.95307  0.74051  0.07617  1.0000
  Fe  Fe235     1.0  0.86149  0.61995  0.14354  1.0000
  S   S465      1.0  0.87743  0.59999  0.12142  1.0000
  S   S466      1.0  0.83009  0.62100  0.15388  1.0000
  Fe  Fe236     1.0  0.89527  0.64496  0.14615  1.0000
  S   S467      1.0  0.91306  0.62636  0.12406  1.0000
  S   S468      1.0  0.90887  0.66938  0.16228  1.0000
  Fe  Fe237     1.0  0.88820  0.62517  0.10264  1.0000
  S   S469      1.0  0.88757  0.63212  0.06492  1.0000
  Fe  Fe238     1.0  0.90159  0.60230  0.14415  1.0000
  S   S470      1.0  0.91991  0.57595  0.15394  1.0000
  S   S471      1.0  0.87112  0.64514  0.12394  1.0000
  S   S472      1.0  0.88492  0.62091  0.16706  1.0000
  C   C3460     1.0  0.85606  0.58565  0.04566  1.0000
  S   S473      1.0  0.97125  0.53649  0.22889  1.0000
  H   H2765     1.0  0.71484  0.53620  0.31886  1.0000
  C   C3461     1.0  0.93427  0.56566  0.17516  1.0000
  C   C3462     1.0  0.93659  0.57391  0.19521  1.0000
  C   C3463     1.0  0.94778  0.56490  0.21139  1.0000
  C   C3464     1.0  0.95701  0.54749  0.20793  1.0000
  C   C3465     1.0  0.95473  0.53933  0.18782  1.0000
  C   C3466     1.0  0.94348  0.54827  0.17175  1.0000
  H   H2766     1.0  0.92969  0.58723  0.19830  1.0000
  H   H2767     1.0  0.94937  0.57153  0.22670  1.0000
  H   H2768     1.0  0.96157  0.52604  0.18460  1.0000
  H   H2769     1.0  0.94188  0.54161  0.15647  1.0000
  H   H2770     1.0  0.72044  0.52135  0.22018  1.0000
  C   C3467     1.0  0.90095  0.60991  0.02999  1.0000
  C   C3468     1.0  0.89186  0.62653  0.03651  1.0000
  C   C3469     1.0  0.88585  0.63920  0.01986  1.0000
  H   H2771     1.0  0.90601  0.60006  0.04226  1.0000
  H   H2772     1.0  0.87890  0.65216  0.02436  1.0000
  C   C3470     1.0  0.90182  0.73203  0.17782  1.0000
  C   C3471     1.0  0.88808  0.72335  0.16656  1.0000
  C   C3472     1.0  0.89001  0.70436  0.16142  1.0000
  C   C3473     1.0  0.90558  0.69356  0.16793  1.0000
  C   C3474     1.0  0.91916  0.70217  0.17951  1.0000
  C   C3475     1.0  0.91746  0.72127  0.18414  1.0000
  H   H2773     1.0  0.87584  0.73140  0.16167  1.0000
  H   H2774     1.0  0.87943  0.69809  0.15248  1.0000
  H   H2775     1.0  0.93126  0.69403  0.18472  1.0000
  H   H2776     1.0  0.92820  0.72764  0.19274  1.0000
  C   C3476     1.0  0.72431  0.56200  0.13355  1.0000
  H   H2777     1.0  0.74909  0.57238  0.14633  1.0000
  C   C3477     1.0  0.85667  0.58867  0.19581  1.0000
  C   C3478     1.0  0.77772  0.59076  0.18047  1.0000
  C   C3479     1.0  0.77759  0.61012  0.17763  1.0000
  C   C3480     1.0  0.79364  0.61899  0.16948  1.0000
  C   C3481     1.0  0.81017  0.60878  0.16396  1.0000
  C   C3482     1.0  0.81025  0.58939  0.16665  1.0000
  C   C3483     1.0  0.79421  0.58052  0.17478  1.0000
  H   H2778     1.0  0.76519  0.61832  0.18196  1.0000
  H   H2779     1.0  0.79325  0.63396  0.16755  1.0000
  H   H2780     1.0  0.82267  0.58120  0.16241  1.0000
  H   H2781     1.0  0.79464  0.56557  0.17686  1.0000
  C   C3484     1.0  0.91808  0.71490  0.06087  1.0000
  C   C3485     1.0  0.67819  0.58087  0.12287  1.0000
  C   C3486     1.0  0.69139  0.51065  0.16841  1.0000
  H   H2782     1.0  0.68789  0.58928  0.13066  1.0000
  H   H2783     1.0  0.68820  0.58780  0.09026  1.0000
  H   H2784     1.0  0.95190  0.69824  0.14670  1.0000
  C   C3487     1.0  0.90369  0.60598  0.00756  1.0000
  C   C3488     1.0  0.71836  0.52976  0.14276  1.0000
  S   S474      1.0  0.98935  0.51523  0.28497  1.0000
  H   H2785     1.0  0.97237  0.72597  0.30878  1.0000
  C   C3489     1.0  0.71718  0.51603  0.27518  1.0000
  C   C3490     1.0  0.74570  0.54370  0.15590  1.0000
  H   H2786     1.0  0.70013  0.54854  0.12431  1.0000
  H   H2787     1.0  0.99621  0.71696  0.28075  1.0000
  H   H2788     1.0  0.80319  0.60433  0.01271  1.0000
  H   H2789     1.0  0.82848  0.56012  0.04980  1.0000
  C   C3491     1.0  0.83813  0.65338  0.08035  1.0000
  C   C3492     1.0  0.86151  0.57207  0.03058  1.0000
  C   C3493     1.0  0.69263  0.51925  0.09992  1.0000
  C   C3494     1.0  0.83260  0.63699  0.09085  1.0000
  C   C3495     1.0  0.67356  0.51351  0.40031  1.0000
  C   C3496     1.0  0.83310  0.60549  0.01299  1.0000
  H   H2790     1.0  0.88639  0.73810  0.29780  1.0000
  H   H2791     1.0  0.86316  0.59810  0.07571  1.0000
  C   C3497     1.0  0.77086  0.50576  0.23406  1.0000
  C   C3498     1.0  0.89212  0.73804  0.24793  1.0000
  C   C3499     1.0  0.91447  0.69836  0.05082  1.0000
  C   C3500     1.0  0.72409  0.50135  0.28878  1.0000
  C   C3501     1.0  0.80740  0.74887  0.30084  1.0000
  C   C3502     1.0  0.76658  0.52421  0.22764  1.0000
  H   H2792     1.0  0.74516  0.54411  0.21761  1.0000
  C   C3503     1.0  0.78327  0.58816  0.06581  1.0000
  H   H2793     1.0  0.89459  0.70717  0.10917  1.0000
  H   H2794     1.0  0.80123  0.54381  0.06401  1.0000
  C   C3504     1.0  0.67463  0.50597  0.42164  1.0000
  H   H2795     1.0  0.83933  0.66576  0.08961  1.0000
  H   H2796     1.0  0.88200  0.55080  0.02159  1.0000
  C   C3505     1.0  0.67609  0.52308  0.17131  1.0000
  C   C3506     1.0  0.68386  0.51459  0.35301  1.0000
  C   C3507     1.0  0.86838  0.71192  0.23334  1.0000
  C   C3508     1.0  0.93604  0.71597  0.12471  1.0000
  H   H2797     1.0  0.67567  0.65244  0.28343  1.0000
  S   S475      1.0  0.66633  0.56908  0.06070  1.0000
  C   C3509     1.0  0.70086  0.52102  0.34486  1.0000
  H   H2798     1.0  0.92984  0.70428  0.11776  1.0000
  C   C3510     1.0  0.90009  0.70493  0.09278  1.0000
  C   C3511     1.0  0.81578  0.60661  0.00321  1.0000
  C   C3512     1.0  0.67996  0.52047  0.08315  1.0000
  C   C3513     1.0  0.87302  0.74012  0.25273  1.0000
  H   H2799     1.0  0.92642  0.72493  0.05212  1.0000
  H   H2800     1.0  0.84463  0.59543  0.18844  1.0000
  H   H2801     1.0  0.71113  0.51041  0.40781  1.0000
  P   P115      1.0  0.91581  0.73925  0.09568  1.0000
  C   C3514     1.0  0.85898  0.62744  0.29227  1.0000
  C   C3515     1.0  0.88740  0.71001  0.22862  1.0000
  H   H2802     1.0  0.77727  0.53428  0.22663  1.0000
  C   C3516     1.0  0.85374  0.59410  0.27191  1.0000
  C   C3517     1.0  0.85339  0.61082  0.25955  1.0000
  C   C3518     1.0  0.85558  0.62756  0.26999  1.0000
  P   P116      1.0  0.84789  0.61072  0.23116  1.0000
  C   C3519     1.0  0.86156  0.59319  0.21682  1.0000
  C   C3520     1.0  0.82343  0.60674  0.23098  1.0000
  C   C3521     1.0  0.81046  0.62107  0.23645  1.0000
  C   C3522     1.0  0.79149  0.61793  0.23714  1.0000
  C   C3523     1.0  0.78537  0.60038  0.23286  1.0000
  C   C3524     1.0  0.79822  0.58593  0.22796  1.0000
  C   C3525     1.0  0.81718  0.58905  0.22702  1.0000
  C   C3526     1.0  0.87792  0.58515  0.22549  1.0000
  C   C3527     1.0  0.71309  0.54680  0.13259  1.0000
  H   H2803     1.0  0.77224  0.56159  0.07445  1.0000
  H   H2804     1.0  0.89243  0.55811  0.18332  1.0000
  H   H2805     1.0  0.90157  0.56628  0.22009  1.0000
  C   C3528     1.0  0.85352  0.63217  0.21705  1.0000
  C   C3529     1.0  0.87107  0.63936  0.21931  1.0000
  C   C3530     1.0  0.87616  0.65514  0.20711  1.0000
  C   C3531     1.0  0.86391  0.66366  0.19235  1.0000
  C   C3532     1.0  0.84655  0.65641  0.18977  1.0000
  C   C3533     1.0  0.84139  0.64069  0.20200  1.0000
  H   H2806     1.0  0.86084  0.64038  0.30021  1.0000
  H   H2807     1.0  0.75798  0.54285  0.16560  1.0000
  H   H2808     1.0  0.85135  0.58112  0.26430  1.0000
  H   H2809     1.0  0.85452  0.64072  0.26104  1.0000
  H   H2810     1.0  0.81501  0.63469  0.24001  1.0000
  H   H2811     1.0  0.78147  0.62911  0.24082  1.0000
  H   H2812     1.0  0.77065  0.59801  0.23291  1.0000
  H   H2813     1.0  0.79334  0.57244  0.22428  1.0000
  H   H2814     1.0  0.82686  0.57767  0.22314  1.0000
  H   H2815     1.0  0.88259  0.58907  0.24114  1.0000
  H   H2816     1.0  0.84542  0.63795  0.02907  1.0000
  H   H2817     1.0  0.88860  0.67791  0.09130  1.0000
  C   C3534     1.0  0.81597  0.56813  0.05414  1.0000
  C   C3535     1.0  0.66976  0.50466  0.12366  1.0000
  H   H2818     1.0  0.88105  0.63240  0.22991  1.0000
  H   H2819     1.0  0.88995  0.66027  0.20824  1.0000
  H   H2820     1.0  0.86817  0.67542  0.18232  1.0000
  H   H2821     1.0  0.83737  0.66246  0.17760  1.0000
  H   H2822     1.0  0.82826  0.63480  0.19888  1.0000
  C   C3536     1.0  0.74845  0.52977  0.22247  1.0000
  H   H2823     1.0  0.85755  0.58104  0.30359  1.0000
  C   C3537     1.0  0.79867  0.59752  0.05768  1.0000
  C   C3538     1.0  0.91105  0.71823  0.08203  1.0000
  H   H2824     1.0  0.89294  0.69867  0.21884  1.0000
  C   C3539     1.0  0.94006  0.74898  0.12728  1.0000
  C   C3540     1.0  0.81518  0.58758  0.05188  1.0000
  C   C3541     1.0  0.88881  0.57230  0.21355  1.0000
  C   C3542     1.0  0.70166  0.53159  0.32538  1.0000
  C   C3543     1.0  0.66657  0.52389  0.19142  1.0000
  H   H2825     1.0  0.77063  0.59593  0.07043  1.0000
  C   C3544     1.0  0.88366  0.56766  0.19279  1.0000
  C   C3545     1.0  0.86118  0.72690  0.24537  1.0000
  H   H2826     1.0  0.98085  0.72730  0.34750  1.0000
  C   C3546     1.0  0.86764  0.57590  0.18388  1.0000
  H   H2827     1.0  0.90093  0.55462  0.05399  1.0000
  C   C3547     1.0  0.94876  0.71243  0.14114  1.0000
  P   P117      1.0  0.83508  0.59987  0.04176  1.0000
  C   C3548     1.0  0.84151  0.63752  0.04620  1.0000
  C   C3549     1.0  0.84257  0.65365  0.05804  1.0000
  C   C3550     1.0  0.89926  0.72301  0.23602  1.0000
  H   H2828     1.0  0.89127  0.57825  0.08096  1.0000
  H   H2829     1.0  0.71358  0.51766  0.35322  1.0000
  H   H2830     1.0  0.72484  0.52849  0.27264  1.0000
  C   C3551     1.0  0.67825  0.58009  0.09998  1.0000
  H   H2831     1.0  0.99025  0.54746  0.11686  1.0000
  H   H2832     1.0  0.84640  0.72823  0.24852  1.0000
  H   H2833     1.0  0.90129  0.67208  0.05419  1.0000
  C   C3552     1.0  0.88281  0.57631  0.06704  1.0000
  H   H2834     1.0  0.72012  0.57515  0.12575  1.0000
  C   C3553     1.0  0.83166  0.62083  0.07912  1.0000
  H   H2835     1.0  0.85921  0.70194  0.22731  1.0000
  H   H2836     1.0  0.67168  0.53241  0.15810  1.0000
  C   C3554     1.0  0.85984  0.61068  0.30435  1.0000
  H   H2837     1.0  0.86245  0.61060  0.32161  1.0000
  H   H2838     1.0  0.66810  0.50980  0.45564  1.0000
  H   H2839     1.0  0.79773  0.61254  0.05602  1.0000
  C   C3555     1.0  0.70004  0.51480  0.26556  1.0000
  C   C3556     1.0  0.80051  0.55881  0.06223  1.0000
  H   H2840     1.0  0.90150  0.74825  0.25292  1.0000
  H   H2841     1.0  0.84736  0.66620  0.05002  1.0000
  C   C3557     1.0  0.87763  0.56092  0.03356  1.0000
  P   P118      1.0  0.70362  0.51026  0.14239  1.0000
  H   H2842     1.0  0.86404  0.57284  0.16745  1.0000
  C   C3558     1.0  0.78419  0.56881  0.06810  1.0000
  H   H2843     1.0  0.92006  0.69570  0.03459  1.0000
  H   H2844     1.0  0.73835  0.51575  0.16386  1.0000
  C   C3559     1.0  0.83608  0.62096  0.05666  1.0000
  H   H2845     1.0  0.82779  0.60816  0.08770  1.0000
  C   C3560     1.0  0.73455  0.52843  0.15486  1.0000
  C   C3561     1.0  0.88829  0.56304  0.05180  1.0000
  C   C3562     1.0  0.90383  0.68507  0.06179  1.0000
  Fe  Fe239     1.0  0.99127  0.51567  0.24797  1.0000
  H   H2846     1.0  0.85342  0.57024  0.01634  1.0000
  C   C3563     1.0  0.98645  0.72240  0.31350  1.0000
  C   C3564     1.0  0.95255  0.74538  0.14395  1.0000
  C   C3565     1.0  0.74064  0.56044  0.14512  1.0000
  H   H2847     1.0  0.91396  0.72176  0.23197  1.0000
  C   C3566     1.0  0.73457  0.51691  0.22380  1.0000
  C   C3567     1.0  0.89663  0.68838  0.08274  1.0000
  C   C3568     1.0  0.86679  0.58759  0.06400  1.0000
  H   H2848     1.0  0.82942  0.63669  0.10824  1.0000
  H   H2849     1.0  0.68631  0.54359  0.29850  1.0000
  H   H2850     1.0  0.74030  0.50151  0.12222  1.0000
  S   S476      1.0  0.67536  0.57873  0.22244  1.0000
  C   C3569     1.0  0.82339  0.74827  0.31308  1.0000
  H   H2851     1.0  0.86257  0.60784  0.00732  1.0000
  H   H2852     1.0  0.82243  0.74526  0.33046  1.0000
  C   C3570     1.0  0.67225  0.51224  0.20876  1.0000
  C   C3571     1.0  0.66860  0.52947  0.32191  1.0000
  C   C3572     1.0  0.93152  0.73431  0.11766  1.0000
  C   C3573     1.0  0.99124  0.72316  0.33529  1.0000
  C   C3574     1.0  0.68557  0.53576  0.31388  1.0000
  H   H2853     1.0  0.90927  0.74633  0.32446  1.0000
  C   C3575     1.0  0.66771  0.51896  0.34144  1.0000
  C   C3576     1.0  0.95690  0.72711  0.15088  1.0000
  H   H2854     1.0  0.96641  0.72434  0.16398  1.0000
  H   H2855     1.0  0.98388  0.50567  0.20443  1.0000
  H   H2856     1.0  0.68374  0.52691  0.06753  1.0000
  H   H2857     1.0  0.87895  0.74221  0.07755  1.0000
  C   C3577     1.0  0.68745  0.51178  0.12051  1.0000
  H   H2858     1.0  0.70634  0.52437  0.09683  1.0000
  C   C3578     1.0  0.66752  0.51600  0.43933  1.0000
  H   H2859     1.0  0.79408  0.74630  0.30872  1.0000
  H   H2860     1.0  0.78501  0.50166  0.23790  1.0000
  C   C3579     1.0  0.87812  0.74863  0.09326  1.0000
  C   C3580     1.0  0.89390  0.74908  0.10594  1.0000
  H   H2861     1.0  0.91063  0.59299  0.00308  1.0000
  Fe  Fe240     1.0  0.70650  0.57353  0.85056  1.0000
  S   S477      1.0  0.71966  0.59662  0.83047  1.0000
  C   C3581     1.0  0.80331  0.64134  0.86646  1.0000
  Fe  Fe241     1.0  0.71746  0.54447  0.81689  1.0000
  S   S478      1.0  0.73118  0.56544  0.79483  1.0000
  S   S479      1.0  0.71431  0.51359  0.81160  1.0000
  Fe  Fe242     1.0  0.74374  0.57585  0.82522  1.0000
  S   S480      1.0  0.77488  0.58240  0.82188  1.0000
  Fe  Fe243     1.0  0.70620  0.58456  0.80196  1.0000
  S   S481      1.0  0.69101  0.59841  0.77292  1.0000
  S   S482      1.0  0.73126  0.55356  0.84704  1.0000
  S   S483      1.0  0.69188  0.56276  0.82233  1.0000
  S   S484      1.0  0.93783  0.74493  0.83242  1.0000
  Fe  Fe244     1.0  0.89369  0.64774  0.88637  1.0000
  S   S485      1.0  0.91755  0.63066  0.90091  1.0000
  S   S486      1.0  0.89104  0.67954  0.87865  1.0000
  Fe  Fe245     1.0  0.86836  0.61397  0.88860  1.0000
  S   S487      1.0  0.89100  0.59517  0.90326  1.0000
  S   S488      1.0  0.83838  0.60404  0.88669  1.0000
  Fe  Fe246     1.0  0.89646  0.61890  0.92536  1.0000
  S   S489      1.0  0.90105  0.61233  0.96260  1.0000
  Fe  Fe247     1.0  0.91037  0.60805  0.87792  1.0000
  S   S490      1.0  0.93355  0.59386  0.85567  1.0000
  S   S491      1.0  0.87300  0.63689  0.91176  1.0000
  S   S492      1.0  0.88734  0.62590  0.86236  1.0000
  C   C3582     1.0  0.66813  0.56265  0.93932  1.0000
  C   C3583     1.0  0.74836  0.61852  0.78716  1.0000
  S   S493      1.0  0.96983  0.52178  0.80664  1.0000
  C   C3584     1.0  0.94292  0.57367  0.84158  1.0000
  C   C3585     1.0  0.93507  0.55624  0.84362  1.0000
  C   C3586     1.0  0.94343  0.54066  0.83291  1.0000
  C   C3587     1.0  0.95971  0.54213  0.81969  1.0000
  C   C3588     1.0  0.96723  0.55964  0.81716  1.0000
  C   C3589     1.0  0.95902  0.57516  0.82808  1.0000
  H   H2862     1.0  0.92275  0.55468  0.85385  1.0000
  H   H2863     1.0  0.93725  0.52733  0.83492  1.0000
  H   H2864     1.0  0.97940  0.56119  0.80669  1.0000
  H   H2865     1.0  0.96524  0.58848  0.82605  1.0000
  H   H2866     1.0  0.74632  0.67160  0.88027  1.0000
  C   C3590     1.0  0.90631  0.51584  0.77577  1.0000
  Fe  Fe248     1.0  0.99416  0.51041  0.78387  1.0000
  C   C3591     1.0  0.91470  0.70396  0.92508  1.0000
  C   C3592     1.0  0.92459  0.72707  0.84564  1.0000
  C   C3593     1.0  0.93278  0.70906  0.84845  1.0000
  C   C3594     1.0  0.92284  0.69440  0.85843  1.0000
  C   C3595     1.0  0.90446  0.69750  0.86587  1.0000
  C   C3596     1.0  0.89629  0.71556  0.86314  1.0000
  C   C3597     1.0  0.90621  0.73016  0.85301  1.0000
  H   H2867     1.0  0.94694  0.70636  0.84277  1.0000
  H   H2868     1.0  0.92940  0.68069  0.86034  1.0000
  H   H2869     1.0  0.88212  0.71824  0.86880  1.0000
  H   H2870     1.0  0.89964  0.74380  0.85080  1.0000
  H   H2871     1.0  0.69094  0.61897  0.85142  1.0000
  H   H2872     1.0  0.72044  0.51018  0.73142  1.0000
  H   H2873     1.0  0.82981  0.61648  0.95071  1.0000
  C   C3598     1.0  0.83573  0.50265  0.78440  1.0000
  H   H2874     1.0  0.71904  0.52693  0.76622  1.0000
  C   C3599     1.0  0.79247  0.58810  0.84023  1.0000
  C   C3600     1.0  0.79006  0.58644  0.86289  1.0000
  C   C3601     1.0  0.80429  0.59124  0.87666  1.0000
  C   C3602     1.0  0.82130  0.59756  0.86813  1.0000
  C   C3603     1.0  0.82386  0.59892  0.84543  1.0000
  C   C3604     1.0  0.80954  0.59430  0.83165  1.0000
  H   H2875     1.0  0.77726  0.58139  0.86988  1.0000
  H   H2876     1.0  0.80208  0.59004  0.89413  1.0000
  H   H2877     1.0  0.83672  0.60388  0.83848  1.0000
  H   H2878     1.0  0.81167  0.59568  0.81419  1.0000
  H   H2879     1.0  0.88367  0.64518  0.98507  1.0000
  C   C3605     1.0  0.97369  0.57841  0.88878  1.0000
  H   H2880     1.0  0.86037  0.61485  0.96791  1.0000
  C   C3606     1.0  0.74002  0.63424  0.86249  1.0000
  H   H2881     1.0  0.90123  0.52178  0.54946  1.0000
  C   C3607     1.0  0.71434  0.62850  0.88798  1.0000
  C   C3608     1.0  0.98047  0.54244  0.87392  1.0000
  C   C3609     1.0  0.83065  0.61353  0.96809  1.0000
  C   C3610     1.0  0.81459  0.61060  0.98082  1.0000
  H   H2882     1.0  0.67973  0.57296  0.63764  1.0000
  C   C3611     1.0  0.89261  0.52766  0.78519  1.0000
  C   C3612     1.0  0.89685  0.54557  0.79121  1.0000
  C   C3613     1.0  0.91512  0.55125  0.78815  1.0000
  P   P119      1.0  0.87943  0.56026  0.80480  1.0000
  C   C3614     1.0  0.87898  0.55462  0.83367  1.0000
  C   C3615     1.0  0.88542  0.58420  0.80065  1.0000
  C   C3616     1.0  0.89799  0.59181  0.81441  1.0000
  C   C3617     1.0  0.90335  0.61005  0.81087  1.0000
  C   C3618     1.0  0.89607  0.62094  0.79372  1.0000
  C   C3619     1.0  0.88351  0.61352  0.77996  1.0000
  C   C3620     1.0  0.87822  0.59520  0.78335  1.0000
  C   C3621     1.0  0.88776  0.53816  0.84184  1.0000
  C   C3622     1.0  0.88753  0.53409  0.86426  1.0000
  C   C3623     1.0  0.87845  0.54633  0.87865  1.0000
  C   C3624     1.0  0.86967  0.56268  0.87064  1.0000
  C   C3625     1.0  0.87011  0.56695  0.84830  1.0000
  C   C3626     1.0  0.85702  0.55724  0.79337  1.0000
  C   C3627     1.0  0.85573  0.55444  0.77095  1.0000
  C   C3628     1.0  0.83845  0.55268  0.76181  1.0000
  C   C3629     1.0  0.82231  0.55372  0.77495  1.0000
  C   C3630     1.0  0.82343  0.55645  0.79725  1.0000
  C   C3631     1.0  0.84069  0.55822  0.80645  1.0000
  H   H2883     1.0  0.75074  0.53176  0.72867  1.0000
  H   H2884     1.0  0.84829  0.73474  0.81233  1.0000
  H   H2885     1.0  0.66661  0.58775  0.91922  1.0000
  H   H2886     1.0  0.87880  0.52274  0.78807  1.0000
  C   C3632     1.0  0.99446  0.55531  0.87162  1.0000
  H   H2887     1.0  0.90388  0.58359  0.82776  1.0000
  H   H2888     1.0  0.91320  0.61572  0.82152  1.0000
  H   H2889     1.0  0.90023  0.63510  0.79113  1.0000
  H   H2890     1.0  0.87793  0.62196  0.76661  1.0000
  H   H2891     1.0  0.86861  0.58974  0.77238  1.0000
  H   H2892     1.0  0.89510  0.52859  0.83108  1.0000
  H   H2893     1.0  0.89456  0.52154  0.87051  1.0000
  H   H2894     1.0  0.87833  0.54329  0.89604  1.0000
  C   C3633     1.0  0.67565  0.54450  0.94144  1.0000
  H   H2895     1.0  0.86352  0.57990  0.84251  1.0000
  H   H2896     1.0  0.86809  0.55395  0.76046  1.0000
  H   H2897     1.0  0.75632  0.55837  0.75177  1.0000
  H   H2898     1.0  0.80890  0.55264  0.76784  1.0000
  H   H2899     1.0  0.81086  0.55755  0.80742  1.0000
  H   H2900     1.0  0.84105  0.56061  0.82370  1.0000
  H   H2901     1.0  0.78458  0.52172  0.79727  1.0000
  H   H2902     1.0  0.75641  0.60735  0.77948  1.0000
  H   H2903     1.0  0.75977  0.61110  0.85849  1.0000
  C   C3634     1.0  0.75467  0.62617  0.80600  1.0000
  H   H2904     1.0  0.74412  0.59068  0.88568  1.0000
  C   C3635     1.0  0.84911  0.60860  0.00009  1.0000
  H   H2905     1.0  0.78204  0.65425  0.81056  1.0000
  C   C3636     1.0  0.78783  0.65047  0.82620  1.0000
  C   C3637     1.0  0.76159  0.54454  0.75643  1.0000
  H   H2906     1.0  0.67924  0.62874  0.80183  1.0000
  C   C3638     1.0  0.74739  0.61626  0.86710  1.0000
  H   H2907     1.0  0.76759  0.62076  0.81261  1.0000
  C   C3639     1.0  0.92497  0.74106  0.92548  1.0000
  H   H2908     1.0  0.84201  0.71695  0.84661  1.0000
  H   H2909     1.0  0.81606  0.65201  0.81399  1.0000
  H   H2910     1.0  0.74448  0.67962  0.81047  1.0000
  H   H2911     1.0  0.91053  0.68975  0.92416  1.0000
  H   H2912     1.0  0.71676  0.65361  0.86863  1.0000
  C   C3640     1.0  0.72677  0.64605  0.80832  1.0000
  H   H2913     1.0  0.95246  0.53767  0.88504  1.0000
  C   C3641     1.0  0.73641  0.71095  0.85011  1.0000
  H   H2914     1.0  0.86263  0.57216  0.88181  1.0000
  H   H2915     1.0  0.68356  0.65291  0.85146  1.0000
  C   C3642     1.0  0.66976  0.56244  0.64136  1.0000
  C   C3643     1.0  0.93247  0.70863  0.91789  1.0000
  H   H2916     1.0  0.73816  0.70493  0.88458  1.0000
  C   C3644     1.0  0.74402  0.64012  0.81661  1.0000
  H   H2917     1.0  0.77543  0.63972  0.87901  1.0000
  H   H2918     1.0  0.73291  0.72559  0.85205  1.0000
  C   C3645     1.0  0.90177  0.74796  0.79314  1.0000
  H   H2919     1.0  0.82975  0.64355  0.84971  1.0000
  H   H2920     1.0  0.94287  0.54377  0.77658  1.0000
  C   C3646     1.0  0.76480  0.51162  0.74969  1.0000
  C   C3647     1.0  0.73140  0.62479  0.77873  1.0000
  H   H2921     1.0  0.90305  0.50202  0.77120  1.0000
  C   C3648     1.0  0.73822  0.70375  0.82928  1.0000
  C   C3649     1.0  0.72206  0.61081  0.89292  1.0000
  C   C3650     1.0  0.74381  0.68041  0.86595  1.0000
  H   H2922     1.0  0.93516  0.51251  0.76562  1.0000
  C   C3651     1.0  0.84127  0.73201  0.84646  1.0000
  H   H2923     1.0  0.98252  0.52855  0.86794  1.0000
  P   P120      1.0  0.66627  0.50626  0.63469  1.0000
  C   C3652     1.0  0.72320  0.64017  0.87269  1.0000
  C   C3653     1.0  0.73851  0.60465  0.88238  1.0000
  C   C3654     1.0  0.90220  0.71767  0.93299  1.0000
  H   H2924     1.0  0.67849  0.52278  0.84023  1.0000
  H   H2925     1.0  0.80124  0.61132  0.97328  1.0000
  H   H2926     1.0  0.72628  0.61862  0.76437  1.0000
  H   H2927     1.0  0.75716  0.50221  0.81051  1.0000
  H   H2928     1.0  0.95141  0.73027  0.91218  1.0000
  C   C3655     1.0  0.81483  0.64474  0.84822  1.0000
  H   H2929     1.0  0.94638  0.56964  0.89791  1.0000
  C   C3656     1.0  0.72068  0.63863  0.78923  1.0000
  C   C3657     1.0  0.71783  0.51204  0.76640  1.0000
  H   H2930     1.0  0.66677  0.61046  0.73852  1.0000
  C   C3658     1.0  0.89755  0.61854  0.99091  1.0000
  C   C3659     1.0  0.74274  0.68486  0.82675  1.0000
  H   H2931     1.0  0.94204  0.69798  0.91150  1.0000
  C   C3660     1.0  0.67166  0.63052  0.78701  1.0000
  C   C3661     1.0  0.67463  0.61765  0.77059  1.0000
  C   C3662     1.0  0.73931  0.69931  0.86843  1.0000
  C   C3663     1.0  0.88860  0.63528  0.99739  1.0000
  H   H2932     1.0  0.77316  0.55320  0.78611  1.0000
  C   C3664     1.0  0.77107  0.54162  0.77577  1.0000
  H   H2933     1.0  0.80939  0.63754  0.88198  1.0000
  H   H2934     1.0  0.70125  0.63293  0.89570  1.0000
  C   C3665     1.0  0.66948  0.51848  0.85380  1.0000
  H   H2935     1.0  0.71500  0.60164  0.90447  1.0000
  C   C3666     1.0  0.90729  0.73614  0.93322  1.0000
  H   H2936     1.0  0.69293  0.52331  0.92594  1.0000
  H   H2937     1.0  0.70742  0.64325  0.78277  1.0000
  C   C3667     1.0  0.92438  0.52172  0.77254  1.0000
  C   C3668     1.0  0.67418  0.54388  0.63661  1.0000
  C   C3669     1.0  0.84789  0.61258  0.97776  1.0000
  H   H2938     1.0  0.66685  0.59732  0.84391  1.0000
  S   S494      1.0  0.68851  0.58103  0.88044  1.0000
  C   C3670     1.0  0.75847  0.52956  0.74341  1.0000
  C   C3671     1.0  0.77617  0.64648  0.84433  1.0000
  H   H2939     1.0  0.97075  0.59250  0.89393  1.0000
  C   C3672     1.0  0.95992  0.56549  0.89111  1.0000
  C   C3673     1.0  0.84491  0.74213  0.82711  1.0000
  C   C3674     1.0  0.67232  0.57364  0.92058  1.0000
  C   C3675     1.0  0.96334  0.54750  0.88377  1.0000
  H   H2940     1.0  0.83423  0.73339  0.88070  1.0000
  H   H2941     1.0  0.83755  0.55076  0.74448  1.0000
  H   H2942     1.0  0.67106  0.51166  0.68098  1.0000
  H   H2943     1.0  0.70019  0.54273  0.89280  1.0000
  H   H2944     1.0  0.89721  0.74671  0.93866  1.0000
  C   C3676     1.0  0.92873  0.53942  0.77866  1.0000
  C   C3677     1.0  0.90076  0.50686  0.55193  1.0000
  C   C3678     1.0  0.67705  0.62435  0.84817  1.0000
  H   H2945     1.0  0.73619  0.71282  0.81506  1.0000
  C   C3679     1.0  0.78406  0.64234  0.86461  1.0000
  H   H2946     1.0  0.88839  0.71398  0.93838  1.0000
  C   C3680     1.0  0.74513  0.67298  0.84510  1.0000
  C   C3681     1.0  0.77744  0.52373  0.78208  1.0000
  C   C3682     1.0  0.80709  0.64938  0.82810  1.0000
  C   C3683     1.0  0.68714  0.53737  0.92448  1.0000
  C   C3684     1.0  0.68391  0.56657  0.90370  1.0000
  H   H2947     1.0  0.68758  0.54032  0.62915  1.0000
  C   C3685     1.0  0.77434  0.50856  0.76911  1.0000
  H   H2948     1.0  0.71789  0.65616  0.81673  1.0000
  C   C3686     1.0  0.69128  0.54835  0.90569  1.0000
  P   P121      1.0  0.75132  0.64868  0.84205  1.0000
  H   H2949     1.0  0.91909  0.56463  0.79340  1.0000
  C   C3687     1.0  0.93767  0.72705  0.91822  1.0000
  C   C3688     1.0  0.99094  0.57333  0.87925  1.0000
  S   S495      1.0  0.67082  0.53015  0.96473  1.0000
  H   H2950     1.0  0.71989  0.50759  0.58276  1.0000
  S   S496      1.0  0.99562  0.51463  0.74714  1.0000
  H   H2951     1.0  0.84479  0.51238  0.77621  1.0000
  H   H2952     1.0  0.92801  0.50389  0.56518  1.0000
  H   H2953     1.0  0.87359  0.50544  0.53886  1.0000
  C   C3689     1.0  0.69044  0.50226  0.62685  1.0000
  C   C3690     1.0  0.67283  0.64343  0.84846  1.0000
  H   H2954     1.0  0.81365  0.50833  0.76229  1.0000
  H   H2955     1.0  0.88025  0.74741  0.81765  1.0000
  C   C3691     1.0  0.71522  0.50378  0.59917  1.0000
  H   H2956     1.0  0.68721  0.51380  0.59412  1.0000
  H   H2957     1.0  0.91039  0.73753  0.80157  1.0000
  C   C3692     1.0  0.83693  0.74127  0.86570  1.0000
  C   C3693     1.0  0.69669  0.50729  0.60568  1.0000
  H   H2958     1.0  0.82668  0.74673  0.73631  1.0000
  C   C3694     1.0  0.71860  0.50249  0.74669  1.0000
  C   C3695     1.0  0.71549  0.50228  0.78627  1.0000
  C   C3696     1.0  0.79666  0.92366  0.49101  1.0000
  S   S497      1.0  0.95891  0.88693  0.03920  1.0000
  S   S498      1.0  0.92492  0.99664  0.03568  1.0000
  C   C3697     1.0  0.69691  0.94233  0.30781  1.0000
  H   H2959     1.0  0.86373  0.92627  0.32724  1.0000
  C   C3698     1.0  0.84204  0.99803  0.08287  1.0000
  Fe  Fe249     1.0  0.95352  0.85695  0.03427  1.0000
  S   S499      1.0  0.93875  0.83701  0.05807  1.0000
  S   S500      1.0  0.98197  0.85033  0.01986  1.0000
  Fe  Fe250     1.0  0.87150  0.95467  0.48223  1.0000
  S   S501      1.0  0.84783  0.95559  0.45810  1.0000
  H   H2960     1.0  0.88647  0.87640  0.19063  1.0000
  S   S502      1.0  0.90209  0.95537  0.47458  1.0000
  Fe  Fe251     1.0  0.91163  0.81239  0.22834  1.0000
  S   S503      1.0  0.94140  0.81949  0.22211  1.0000
  S   S504      1.0  0.89495  0.82705  0.25594  1.0000
  Fe  Fe252     1.0  0.91621  0.77815  0.19853  1.0000
  S   S505      1.0  0.94628  0.78324  0.19050  1.0000
  Fe  Fe253     1.0  0.94874  0.78903  0.22629  1.0000
  S   S506      1.0  0.97029  0.77566  0.24944  1.0000
  Fe  Fe254     1.0  0.93672  0.81342  0.18684  1.0000
  S   S507      1.0  0.94773  0.83437  0.16134  1.0000
  S   S508      1.0  0.91913  0.78199  0.23445  1.0000
  S   S509      1.0  0.90647  0.80830  0.19286  1.0000
  Fe  Fe255     1.0  0.81893  0.91756  0.34220  1.0000
  S   S510      1.0  0.81003  0.89004  0.33081  1.0000
  S   S511      1.0  0.84180  0.91619  0.36709  1.0000
  Fe  Fe256     1.0  0.79511  0.93944  0.30906  1.0000
  S   S512      1.0  0.78467  0.91328  0.29575  1.0000
  S   S513      1.0  0.78294  0.96735  0.29578  1.0000
  Fe  Fe257     1.0  0.78105  0.90340  0.33080  1.0000
  S   S514      1.0  0.75671  0.88567  0.34302  1.0000
  Fe  Fe258     1.0  0.81437  0.90194  0.29693  1.0000
  S   S515      1.0  0.82782  0.88787  0.26684  1.0000
  S   S516      1.0  0.78985  0.93018  0.34424  1.0000
  S   S517      1.0  0.82487  0.92888  0.30805  1.0000
  C   C3699     1.0  0.91737  0.77285  0.07138  1.0000
  C   C3700     1.0  0.79572  0.98452  0.28113  1.0000
  C   C3701     1.0  0.81490  0.98248  0.27754  1.0000
  H   H2961     1.0  0.71740  0.96287  0.30235  1.0000
  H   H2962     1.0  0.82241  0.97037  0.28414  1.0000
  H   H2963     1.0  0.88885  0.91937  0.01587  1.0000
  C   C3702     1.0  0.73456  0.88898  0.35670  1.0000
  C   C3703     1.0  0.72752  0.90638  0.36329  1.0000
  C   C3704     1.0  0.71004  0.90818  0.37426  1.0000
  C   C3705     1.0  0.69911  0.89270  0.37849  1.0000
  C   C3706     1.0  0.70605  0.87533  0.37168  1.0000
  C   C3707     1.0  0.72364  0.87351  0.36095  1.0000
  H   H2964     1.0  0.73543  0.91846  0.35968  1.0000
  H   H2965     1.0  0.70489  0.92170  0.37939  1.0000
  H   H2966     1.0  0.69797  0.86324  0.37490  1.0000
  H   H2967     1.0  0.72883  0.85996  0.35592  1.0000
  C   C3708     1.0  0.87633  0.84408  0.25833  1.0000
  C   C3709     1.0  0.86990  0.84912  0.27929  1.0000
  C   C3710     1.0  0.85517  0.86248  0.28223  1.0000
  C   C3711     1.0  0.84656  0.87096  0.26418  1.0000
  C   C3712     1.0  0.85302  0.86595  0.24318  1.0000
  C   C3713     1.0  0.86784  0.85266  0.24024  1.0000
  H   H2968     1.0  0.87632  0.84260  0.29342  1.0000
  H   H2969     1.0  0.85040  0.86611  0.29848  1.0000
  H   H2970     1.0  0.84652  0.87242  0.22909  1.0000
  H   H2971     1.0  0.87260  0.84897  0.22403  1.0000
  C   C3714     1.0  0.84652  0.94463  0.43273  1.0000
  C   C3715     1.0  0.83071  0.94817  0.42018  1.0000
  C   C3716     1.0  0.82896  0.93962  0.40006  1.0000
  C   C3717     1.0  0.84311  0.92749  0.39222  1.0000
  C   C3718     1.0  0.85896  0.92407  0.40469  1.0000
  C   C3719     1.0  0.86068  0.93255  0.42482  1.0000
  H   H2972     1.0  0.81977  0.95761  0.42608  1.0000
  H   H2973     1.0  0.81670  0.94240  0.39065  1.0000
  H   H2974     1.0  0.86999  0.91471  0.39878  1.0000
  H   H2975     1.0  0.87291  0.92969  0.43427  1.0000
  C   C3720     1.0  0.94162  0.83619  0.08672  1.0000
  C   C3721     1.0  0.95366  0.84774  0.09658  1.0000
  C   C3722     1.0  0.95548  0.84683  0.11937  1.0000
  C   C3723     1.0  0.94539  0.83432  0.13260  1.0000
  C   C3724     1.0  0.93333  0.82275  0.12276  1.0000
  C   C3725     1.0  0.93143  0.82374  0.09996  1.0000
  H   H2976     1.0  0.96165  0.85726  0.08659  1.0000
  H   H2977     1.0  0.96487  0.85580  0.12679  1.0000
  H   H2978     1.0  0.92541  0.81313  0.13272  1.0000
  H   H2979     1.0  0.92201  0.81481  0.09257  1.0000
  C   C3726     1.0  0.67020  0.86293  0.29267  1.0000
  H   H2980     1.0  0.66871  0.89040  0.27834  1.0000
  C   C3727     1.0  0.96780  0.83008  0.30708  1.0000
  C   C3728     1.0  0.86927  0.99301  0.37451  1.0000
  H   H2981     1.0  0.79618  0.75344  0.26898  1.0000
  C   C3729     1.0  0.99657  0.96274  0.47684  1.0000
  C   C3730     1.0  0.98773  0.89110  0.12170  1.0000
  H   H2982     1.0  0.95352  0.84995  0.34552  1.0000
  C   C3731     1.0  0.85948  0.95453  0.33716  1.0000
  C   C3732     1.0  0.84636  0.81008  0.23919  1.0000
  C   C3733     1.0  0.81688  0.88601  0.40063  1.0000
  C   C3734     1.0  0.81056  0.87464  0.38479  1.0000
  C   C3735     1.0  0.79155  0.87336  0.38212  1.0000
  C   C3736     1.0  0.77886  0.88338  0.39534  1.0000
  C   C3737     1.0  0.78509  0.89472  0.41148  1.0000
  C   C3738     1.0  0.80425  0.89610  0.41386  1.0000
  P   P122      1.0  0.76841  0.90749  0.42847  1.0000
  C   C3739     1.0  0.76024  0.92860  0.41461  1.0000
  C   C3740     1.0  0.74930  0.89253  0.43398  1.0000
  C   C3741     1.0  0.73101  0.89865  0.42961  1.0000
  C   C3742     1.0  0.71653  0.88654  0.43268  1.0000
  C   C3743     1.0  0.75274  0.94348  0.42672  1.0000
  C   C3744     1.0  0.74580  0.95968  0.41614  1.0000
  C   C3745     1.0  0.74616  0.96107  0.39341  1.0000
  C   C3746     1.0  0.75354  0.94630  0.38126  1.0000
  C   C3747     1.0  0.76050  0.93008  0.39180  1.0000
  C   C3748     1.0  0.77909  0.91378  0.45324  1.0000
  C   C3749     1.0  0.77529  0.90455  0.47327  1.0000
  H   H2983     1.0  0.99033  0.92913  0.02795  1.0000
  H   H2984     1.0  0.83164  0.88738  0.40229  1.0000
  H   H2985     1.0  0.82041  0.86718  0.37424  1.0000
  H   H2986     1.0  0.78660  0.86492  0.36944  1.0000
  H   H2987     1.0  0.76418  0.88240  0.39271  1.0000
  H   H2988     1.0  0.80968  0.90493  0.42574  1.0000
  H   H2989     1.0  0.72783  0.91257  0.42333  1.0000
  C   C3750     1.0  0.95686  0.80066  0.29570  1.0000
  H   H2990     1.0  0.75210  0.94251  0.44436  1.0000
  H   H2991     1.0  0.97448  0.92196  0.47653  1.0000
  C   C3751     1.0  0.83160  0.98560  0.36020  1.0000
  H   H2992     1.0  0.75374  0.94732  0.36362  1.0000
  H   H2993     1.0  0.76580  0.91864  0.38210  1.0000
  H   H2994     1.0  0.76564  0.89353  0.47451  1.0000
  H   H2995     1.0  0.89225  0.93237  0.30517  1.0000
  C   C3752     1.0  0.87353  0.90796  0.26811  1.0000
  C   C3753     1.0  0.88706  0.89741  0.25667  1.0000
  C   C3754     1.0  0.89247  0.90287  0.23547  1.0000
  C   C3755     1.0  0.88414  0.91875  0.22554  1.0000
  C   C3756     1.0  0.87020  0.92919  0.23675  1.0000
  C   C3757     1.0  0.86518  0.92382  0.25826  1.0000
  P   P123      1.0  0.85830  0.94899  0.22367  1.0000
  C   C3758     1.0  0.83361  0.94780  0.22912  1.0000
  C   C3759     1.0  0.86617  0.97054  0.23357  1.0000
  P   P124      1.0  0.67016  0.91603  0.31479  1.0000
  C   C3760     1.0  0.85165  0.94997  0.01960  1.0000
  H   H2996     1.0  0.92620  0.83597  0.28228  1.0000
  H   H2997     1.0  0.97917  0.85051  0.27004  1.0000
  C   C3761     1.0  0.87435  0.97117  0.25396  1.0000
  C   C3762     1.0  0.82578  0.93071  0.23445  1.0000
  C   C3763     1.0  0.80687  0.92993  0.23976  1.0000
  C   C3764     1.0  0.79551  0.94612  0.23918  1.0000
  C   C3765     1.0  0.80299  0.96303  0.23275  1.0000
  C   C3766     1.0  0.82196  0.96390  0.22775  1.0000
  C   C3767     1.0  0.86246  0.94881  0.19450  1.0000
  C   C3768     1.0  0.84931  0.94201  0.18086  1.0000
  C   C3769     1.0  0.85222  0.94280  0.15823  1.0000
  C   C3770     1.0  0.86828  0.95031  0.14908  1.0000
  C   C3771     1.0  0.88167  0.95667  0.16256  1.0000
  C   C3772     1.0  0.87880  0.95590  0.18520  1.0000
  H   H2998     1.0  0.86892  0.90341  0.28431  1.0000
  H   H2999     1.0  0.89303  0.88474  0.26409  1.0000
  H   H3000     1.0  0.90288  0.89455  0.22662  1.0000
  H   H3001     1.0  0.88841  0.92256  0.20904  1.0000
  H   H3002     1.0  0.85431  0.93149  0.26718  1.0000
  C   C3773     1.0  0.88065  0.76645  0.28646  1.0000
  P   P125      1.0  0.98611  0.84368  0.31676  1.0000
  H   H3003     1.0  0.95254  0.79435  0.04406  1.0000
  P   P126      1.0  0.86390  0.76026  0.26701  1.0000
  H   H3004     1.0  0.87621  0.95880  0.26418  1.0000
  H   H3005     1.0  0.83422  0.91791  0.23490  1.0000
  H   H3006     1.0  0.80115  0.91676  0.24475  1.0000
  H   H3007     1.0  0.78098  0.94562  0.24398  1.0000
  H   H3008     1.0  0.79423  0.97564  0.23248  1.0000
  H   H3009     1.0  0.82743  0.97726  0.22337  1.0000
  H   H3010     1.0  0.83669  0.93626  0.18759  1.0000
  H   H3011     1.0  0.84189  0.93774  0.14779  1.0000
  H   H3012     1.0  0.87038  0.95114  0.13155  1.0000
  H   H3013     1.0  0.89419  0.96238  0.15546  1.0000
  H   H3014     1.0  0.88921  0.96106  0.19545  1.0000
  C   C3774     1.0  0.86616  0.97247  0.33603  1.0000
  C   C3775     1.0  0.92664  0.97465  0.02362  1.0000
  H   H3015     1.0  0.94967  0.85403  0.29925  1.0000
  C   C3776     1.0  0.78626  0.00041  0.27233  1.0000
  H   H3016     1.0  0.84902  0.75612  0.09090  1.0000
  H   H3017     1.0  0.81028  0.94389  0.47032  1.0000
  H   H3018     1.0  0.87588  0.90669  0.17385  1.0000
  C   C3777     1.0  0.95791  0.89983  0.13850  1.0000
  H   H3019     1.0  0.77306  0.95686  0.06548  1.0000
  C   C3778     1.0  0.99108  0.78487  0.25859  1.0000
  H   H3020     1.0  0.84668  0.77110  0.12675  1.0000
  C   C3779     1.0  0.95169  0.83909  0.29885  1.0000
  C   C3780     1.0  0.96002  0.86309  0.34273  1.0000
  C   C3781     1.0  0.78407  0.90949  0.49207  1.0000
  H   H3021     1.0  0.88594  0.98860  0.27739  1.0000
  C   C3782     1.0  0.96072  0.89589  0.34972  1.0000
  C   C3783     1.0  0.97975  0.89179  0.10129  1.0000
  C   C3784     1.0  0.87992  0.98806  0.26157  1.0000
  C   C3785     1.0  0.67011  0.89103  0.31349  1.0000
  C   C3786     1.0  0.98518  0.96991  0.05457  1.0000
  C   C3787     1.0  0.70886  0.91054  0.31228  1.0000
  C   C3788     1.0  0.67217  0.86065  0.33188  1.0000
  C   C3789     1.0  0.69369  0.92341  0.31150  1.0000
  C   C3790     1.0  0.99107  0.98997  0.00589  1.0000
  C   C3791     1.0  0.79480  0.97904  0.37313  1.0000
  C   C3792     1.0  0.94103  0.80975  0.28734  1.0000
  C   C3793     1.0  0.89381  0.88210  0.17644  1.0000
  C   C3794     1.0  0.88789  0.89916  0.16699  1.0000
  C   C3795     1.0  0.97605  0.86425  0.32926  1.0000
  H   H3022     1.0  0.93527  0.79938  0.00461  1.0000
  H   H3023     1.0  0.98277  0.80341  0.31068  1.0000
  H   H3024     1.0  0.94335  0.96225  0.04913  1.0000
  H   H3025     1.0  0.70693  0.89591  0.31558  1.0000
  C   C3796     1.0  0.84941  0.79521  0.25399  1.0000
  C   C3797     1.0  0.71501  0.94827  0.30493  1.0000
  H   H3026     1.0  0.98817  0.88839  0.08686  1.0000
  C   C3798     1.0  0.98677  0.93883  0.04068  1.0000
  H   H3027     1.0  0.87893  0.97042  0.42283  1.0000
  C   C3799     1.0  0.93837  0.82894  0.28909  1.0000
  C   C3800     1.0  0.86886  0.94017  0.32598  1.0000
  C   C3801     1.0  0.89245  0.75771  0.12608  1.0000
  C   C3802     1.0  0.97283  0.99576  0.01177  1.0000
  C   C3803     1.0  0.85332  0.80898  0.21777  1.0000
  H   H3028     1.0  0.77565  0.98467  0.04092  1.0000
  C   C3804     1.0  0.97682  0.89514  0.14030  1.0000
  H   H3029     1.0  0.94733  0.94376  0.47187  1.0000
  C   C3805     1.0  0.80548  0.98393  0.04083  1.0000
  C   C3806     1.0  0.85977  0.77923  0.24757  1.0000
  C   C3807     1.0  0.90236  0.95738  0.09966  1.0000
  C   C3808     1.0  0.91558  0.96931  0.10636  1.0000
  C   C3809     1.0  0.93137  0.96207  0.11675  1.0000
  C   C3810     1.0  0.93414  0.94286  0.12008  1.0000
  C   C3811     1.0  0.92119  0.93074  0.11281  1.0000
  C   C3812     1.0  0.90506  0.93818  0.10299  1.0000
  P   P127      1.0  0.92518  0.90583  0.11572  1.0000
  C   C3813     1.0  0.91284  0.89664  0.13953  1.0000
  C   C3814     1.0  0.91751  0.89535  0.09146  1.0000
  C   C3815     1.0  0.91083  0.87736  0.09247  1.0000
  C   C3816     1.0  0.90543  0.86917  0.07353  1.0000
  C   C3817     1.0  0.90682  0.87873  0.05345  1.0000
  C   C3818     1.0  0.91348  0.89660  0.05229  1.0000
  C   C3819     1.0  0.91894  0.90485  0.07115  1.0000
  C   C3820     1.0  0.89735  0.90640  0.14859  1.0000
  C   C3821     1.0  0.73002  0.93536  0.30544  1.0000
  H   H3030     1.0  0.86868  0.79199  0.19453  1.0000
  H   H3031     1.0  0.68240  0.93969  0.34967  1.0000
  C   C3822     1.0  0.91859  0.87946  0.14906  1.0000
  C   C3823     1.0  0.94973  0.90031  0.11806  1.0000
  H   H3032     1.0  0.68005  0.92335  0.26890  1.0000
  H   H3033     1.0  0.98296  0.89426  0.15616  1.0000
  C   C3824     1.0  0.85982  0.76504  0.12086  1.0000
  H   H3034     1.0  0.96990  0.93854  0.09295  1.0000
  C   C3825     1.0  0.96085  0.89639  0.09949  1.0000
  H   H3035     1.0  0.89015  0.96305  0.09159  1.0000
  H   H3036     1.0  0.91362  0.98417  0.10336  1.0000
  H   H3037     1.0  0.94160  0.97135  0.12197  1.0000
  H   H3038     1.0  0.94655  0.93754  0.12797  1.0000
  H   H3039     1.0  0.89478  0.92909  0.09745  1.0000
  H   H3040     1.0  0.91031  0.86933  0.10763  1.0000
  H   H3041     1.0  0.90100  0.85500  0.07426  1.0000
  H   H3042     1.0  0.90337  0.87202  0.03869  1.0000
  H   H3043     1.0  0.91514  0.90373  0.03661  1.0000
  H   H3044     1.0  0.92482  0.91839  0.06966  1.0000
  C   C3826     1.0  0.92679  0.75615  0.07772  1.0000
  H   H3045     1.0  0.91376  0.85892  0.17459  1.0000
  H   H3046     1.0  0.78069  0.97631  0.37814  1.0000
  H   H3047     1.0  0.82640  0.75949  0.25093  1.0000
  H   H3048     1.0  0.93035  0.87150  0.14227  1.0000
  H   H3049     1.0  0.94965  0.90275  0.15311  1.0000
  H   H3050     1.0  0.91955  0.79957  0.05475  1.0000
  C   C3827     1.0  0.93671  0.95994  0.03402  1.0000
  C   C3828     1.0  0.96107  0.94907  0.47290  1.0000
  H   H3051     1.0  0.95494  0.89651  0.08361  1.0000
  C   C3829     1.0  0.80034  0.93304  0.47121  1.0000
  C   C3830     1.0  0.97029  0.81076  0.30532  1.0000
  H   H3052     1.0  0.76690  0.86891  0.44408  1.0000
  H   H3053     1.0  0.73245  0.98034  0.25202  1.0000
  H   H3054     1.0  0.86058  0.96730  0.39015  1.0000
  H   H3055     1.0  0.87450  0.77203  0.14922  1.0000
  H   H3056     1.0  0.89251  0.91951  0.14142  1.0000
  C   C3831     1.0  0.95466  0.76679  0.05886  1.0000
  H   H3057     1.0  0.89879  0.99726  0.42584  1.0000
  C   C3832     1.0  0.89782  0.78960  0.30415  1.0000
  C   C3833     1.0  0.86659  0.77819  0.22598  1.0000
  H   H3058     1.0  0.85704  0.98714  0.20550  1.0000
  H   H3059     1.0  0.95877  0.75679  0.15160  1.0000
  C   C3834     1.0  0.80259  0.95259  0.06858  1.0000
  H   H3060     1.0  0.99589  0.76236  0.28200  1.0000
  H   H3061     1.0  0.80233  0.98730  0.40489  1.0000
  H   H3062     1.0  0.95160  0.97768  0.46934  1.0000
  C   C3835     1.0  0.82163  0.97466  0.04850  1.0000
  C   C3836     1.0  0.82004  0.95900  0.06251  1.0000
  C   C3837     1.0  0.78659  0.96183  0.06080  1.0000
  C   C3838     1.0  0.85865  0.96272  0.03369  1.0000
  H   H3063     1.0  0.84722  0.95150  0.34698  1.0000
  C   C3839     1.0  0.96350  0.96817  0.47162  1.0000
  H   H3064     1.0  0.80620  0.99609  0.03010  1.0000
  H   H3065     1.0  0.97459  0.97236  0.08760  1.0000
  C   C3840     1.0  0.87645  0.95923  0.04186  1.0000
  C   C3841     1.0  0.88710  0.94346  0.03576  1.0000
  H   H3066     1.0  0.82346  0.97796  0.32819  1.0000
  H   H3067     1.0  0.93107  0.80200  0.27898  1.0000
  C   C3842     1.0  0.92938  0.93899  0.00566  1.0000
  C   C3843     1.0  0.82431  0.99586  0.26472  1.0000
  H   H3068     1.0  0.70248  0.89123  0.42893  1.0000
  H   H3069     1.0  0.91675  0.77927  0.32848  1.0000
  H   H3070     1.0  0.96371  0.98634  0.02033  1.0000
  C   C3844     1.0  0.90241  0.75714  0.31461  1.0000
  C   C3845     1.0  0.80858  0.75290  0.27846  1.0000
  H   H3071     1.0  0.80145  0.94044  0.07930  1.0000
  C   C3846     1.0  0.90662  0.77567  0.31691  1.0000
  H   H3072     1.0  0.73855  0.90650  0.30941  1.0000
  H   H3073     1.0  0.83234  0.95174  0.06869  1.0000
  H   H3074     1.0  0.70888  0.85886  0.44205  1.0000
  H   H3075     1.0  0.88239  0.96860  0.05268  1.0000
  H   H3076     1.0  0.90093  0.94102  0.04180  1.0000
  S   S518      1.0  0.67712  0.89593  0.39251  1.0000
  H   H3077     1.0  0.82829  0.99277  0.08464  1.0000
  C   C3847     1.0  0.97795  0.96300  0.07449  1.0000
  C   C3848     1.0  0.85313  0.99490  0.06399  1.0000
  H   H3078     1.0  0.98968  0.84585  0.36477  1.0000
  C   C3849     1.0  0.88024  0.93118  0.02124  1.0000
  C   C3850     1.0  0.90915  0.87225  0.16744  1.0000
  C   C3851     1.0  0.98441  0.88137  0.32627  1.0000
  H   H3079     1.0  0.84407  0.79636  0.27059  1.0000
  P   P128      1.0  0.85487  0.99093  0.35129  1.0000
  H   H3080     1.0  0.68539  0.95248  0.30729  1.0000
  C   C3852     1.0  0.98945  0.95786  0.03744  1.0000
  H   H3081     1.0  0.95479  0.90809  0.35766  1.0000
  H   H3082     1.0  0.94596  0.93097  0.03311  1.0000
  H   H3083     1.0  0.98253  0.98984  0.47204  1.0000
  C   C3853     1.0  0.82524  0.98877  0.38169  1.0000
  H   H3084     1.0  0.93692  0.76324  0.12207  1.0000
  H   H3085     1.0  0.79466  0.93554  0.43720  1.0000
  C   C3854     1.0  0.94528  0.78348  0.05295  1.0000
  H   H3086     1.0  0.90111  0.80400  0.30571  1.0000
  C   C3855     1.0  0.86372  0.98707  0.22101  1.0000
  C   C3856     1.0  0.87547  0.76564  0.13348  1.0000
  C   C3857     1.0  0.78805  0.97749  0.04695  1.0000
  C   C3858     1.0  0.84248  0.99953  0.01871  1.0000
  H   H3087     1.0  0.96920  0.76463  0.05433  1.0000
  C   C3859     1.0  0.79150  0.92823  0.45246  1.0000
  C   C3860     1.0  0.73830  0.86201  0.44430  1.0000
  H   H3088     1.0  0.74003  0.97109  0.42559  1.0000
  C   C3861     1.0  0.99913  0.83504  0.35872  1.0000
  H   H3089     1.0  0.85120  0.82061  0.20640  1.0000
  C   C3862     1.0  0.93825  0.94222  0.02497  1.0000
  H   H3090     1.0  0.79123  0.97219  0.33979  1.0000
  C   C3863     1.0  0.92662  0.78642  0.05903  1.0000
  Fe  Fe259     1.0  0.98671  0.88083  0.02262  1.0000
  H   H3091     1.0  0.87458  0.76609  0.22050  1.0000
  C   C3864     1.0  0.75284  0.87406  0.44120  1.0000
  C   C3865     1.0  0.86115  0.75657  0.10072  1.0000
  C   C3866     1.0  0.99361  0.85261  0.27277  1.0000
  H   H3092     1.0  0.83904  0.99390  0.26169  1.0000
  C   C3867     1.0  0.72015  0.86824  0.44001  1.0000
  C   C3868     1.0  0.89079  0.99595  0.41137  1.0000
  H   H3093     1.0  0.83892  0.82263  0.24445  1.0000
  C   C3869     1.0  0.87961  0.98082  0.40968  1.0000
  H   H3094     1.0  0.90466  0.96395  0.30359  1.0000
  C   C3870     1.0  0.73068  0.99440  0.25766  1.0000
  P   P129      1.0  0.84433  0.98290  0.04134  1.0000
  C   C3871     1.0  0.97673  0.89713  0.33645  1.0000
  H   H3095     1.0  0.94001  0.87790  0.36325  1.0000
  C   C3872     1.0  0.89193  0.96138  0.31275  1.0000
  C   C3873     1.0  0.86324  0.79295  0.21112  1.0000
  C   C3874     1.0  0.99399  0.94353  0.47780  1.0000
  C   C3875     1.0  0.81911  0.97984  0.34505  1.0000
  H   H3096     1.0  0.74410  0.93991  0.30322  1.0000
  C   C3876     1.0  0.97636  0.93678  0.47566  1.0000
  H   H3097     1.0  0.74070  0.97356  0.38518  1.0000
  H   H3098     1.0  0.98321  0.91032  0.33409  1.0000
  C   C3877     1.0  0.88492  0.78503  0.28899  1.0000
  C   C3878     1.0  0.97525  0.94401  0.07751  1.0000
  H   H3099     1.0  0.99048  0.80907  0.23722  1.0000
  C   C3879     1.0  0.97974  0.93197  0.06062  1.0000
  C   C3880     1.0  0.72691  0.91652  0.30894  1.0000
  H   H3100     1.0  0.95910  0.78583  0.29383  1.0000
  C   C3881     1.0  0.95238  0.87888  0.35286  1.0000
  H   H3101     1.0  0.87860  0.79612  0.27916  1.0000
  C   C3882     1.0  0.80080  0.97658  0.35155  1.0000
  C   C3883     1.0  0.88260  0.97576  0.32398  1.0000
  H   H3102     1.0  0.74112  0.84774  0.44970  1.0000
  H   H3103     1.0  0.66763  0.94905  0.38443  1.0000
  S   S519      1.0  0.89845  0.75610  0.18397  1.0000
  C   C3884     1.0  0.80699  0.98523  0.38817  1.0000
  H   H3104     1.0  0.90309  0.77577  0.07644  1.0000
  C   C3885     1.0  0.66953  0.88233  0.29342  1.0000
  H   H3105     1.0  0.88825  0.98942  0.32348  1.0000
  C   C3886     1.0  0.88500  0.94360  0.31366  1.0000
  H   H3106     1.0  0.98757  0.98458  0.05261  1.0000
  C   C3887     1.0  0.98118  0.97503  0.47341  1.0000
  C   C3888     1.0  0.86911  0.97919  0.39120  1.0000
  C   C3889     1.0  0.86248  0.93438  0.01327  1.0000
  H   H3107     1.0  0.97807  0.91720  0.06286  1.0000
  C   C3890     1.0  0.99795  0.80142  0.24985  1.0000
  H   H3108     1.0  0.73864  0.98685  0.29037  1.0000
  C   C3891     1.0  0.73399  0.99802  0.27934  1.0000
  Fe  Fe260     1.0  0.90251  0.97847  0.49831  1.0000
  C   C3892     1.0  0.67148  0.88000  0.33267  1.0000
  C   C3893     1.0  0.88946  0.75253  0.29947  1.0000
  H   H3109     1.0  0.92438  0.76731  0.00317  1.0000
  H   H3110     1.0  0.99687  0.88259  0.31616  1.0000
  H   H3111     1.0  0.85273  0.75122  0.31279  1.0000
  H   H3112     1.0  0.83794  0.95229  0.01315  1.0000
  Fe  Fe261     1.0  0.94882  0.89251  0.00545  1.0000
  C   C3894     1.0  0.67154  0.85209  0.31189  1.0000
  H   H3113     1.0  0.67321  0.85230  0.34684  1.0000
  C   C3895     1.0  0.84190  0.75566  0.28045  1.0000
  C   C3896     1.0  0.82574  0.75633  0.26830  1.0000
  C   C3897     1.0  0.66881  0.93488  0.35406  1.0000
  H   H3114     1.0  0.95760  0.88615  0.49823  1.0000
  C   C3898     1.0  0.94548  0.75317  0.07119  1.0000
  H   H3115     1.0  0.90426  0.75824  0.13633  1.0000
  H   H3116     1.0  0.83422  0.99400  0.39357  1.0000
  H   H3117     1.0  0.66978  0.85626  0.27717  1.0000
  H   H3118     1.0  0.67210  0.83707  0.31134  1.0000
  H   H3119     1.0  0.85230  0.99723  0.30395  1.0000
  H   H3120     1.0  0.67207  0.88633  0.34830  1.0000
  C   C3899     1.0  0.84059  0.75164  0.30295  1.0000
  P   P130      1.0  0.99939  0.96640  0.01191  1.0000
  C   C3900     1.0  0.91810  0.97151  0.00410  1.0000
  C   C3901     1.0  0.84218  0.81214  0.79258  1.0000
  S   S520      1.0  0.97690  0.84004  0.95785  1.0000
  C   C3902     1.0  0.69744  0.91585  0.73812  1.0000
  Fe  Fe262     1.0  0.93281  0.81532  0.84352  1.0000
  S   S521      1.0  0.91076  0.79688  0.83224  1.0000
  S   S522      1.0  0.92776  0.83232  0.87407  1.0000
  Fe  Fe263     1.0  0.95827  0.80734  0.80344  1.0000
  S   S523      1.0  0.93821  0.78829  0.78994  1.0000
  S   S524      1.0  0.98401  0.81825  0.78552  1.0000
  Fe  Fe264     1.0  0.91604  0.81021  0.79878  1.0000
  S   S525      1.0  0.89475  0.81819  0.77253  1.0000
  Fe  Fe265     1.0  0.93443  0.77651  0.82440  1.0000
  S   S526      1.0  0.93637  0.82977  0.81067  1.0000
  S   S527      1.0  0.95616  0.79452  0.83735  1.0000
  Fe  Fe266     1.0  0.82604  0.90446  0.72472  1.0000
  S   S528      1.0  0.83386  0.92997  0.70467  1.0000
  S   S529      1.0  0.84662  0.89322  0.75046  1.0000
  Fe  Fe267     1.0  0.78717  0.90428  0.70402  1.0000
  S   S530      1.0  0.79283  0.92941  0.68271  1.0000
  S   S531      1.0  0.76057  0.88759  0.70528  1.0000
  Fe  Fe268     1.0  0.82133  0.91630  0.67654  1.0000
  S   S532      1.0  0.83587  0.91047  0.64355  1.0000
  Fe  Fe269     1.0  0.80493  0.94134  0.71261  1.0000
  S   S533      1.0  0.79658  0.97171  0.72012  1.0000
  S   S534      1.0  0.81513  0.89016  0.69622  1.0000
  S   S535      1.0  0.79766  0.91680  0.73433  1.0000
  C   C3903     1.0  0.93783  0.79421  0.94978  1.0000
  S   S536      1.0  0.90790  0.95952  0.52732  1.0000
  H   H3121     1.0  0.97665  0.84864  0.71443  1.0000
  C   C3904     1.0  0.89740  0.77002  0.76309  1.0000
  C   C3905     1.0  0.95346  0.90717  0.58936  1.0000
  Fe  Fe270     1.0  0.87685  0.95832  0.53153  1.0000
  S   S537      1.0  0.86123  0.96380  0.56395  1.0000
  H   H3122     1.0  0.68503  0.88850  0.56998  1.0000
  C   C3906     1.0  0.79331  0.93906  0.57427  1.0000
  C   C3907     1.0  0.80359  0.98604  0.74130  1.0000
  C   C3908     1.0  0.75632  0.95434  0.89446  1.0000
  H   H3123     1.0  0.79825  0.94879  0.61628  1.0000
  C   C3909     1.0  0.81625  0.97969  0.75693  1.0000
  C   C3910     1.0  0.78703  0.95941  0.81440  1.0000
  H   H3124     1.0  0.99074  0.81801  0.86122  1.0000
  H   H3125     1.0  0.82239  0.96576  0.75610  1.0000
  C   C3911     1.0  0.73916  0.88900  0.69128  1.0000
  C   C3912     1.0  0.73475  0.90320  0.67597  1.0000
  C   C3913     1.0  0.71756  0.90372  0.66549  1.0000
  C   C3914     1.0  0.70445  0.89013  0.67015  1.0000
  C   C3915     1.0  0.70891  0.87588  0.68536  1.0000
  C   C3916     1.0  0.72609  0.87537  0.69583  1.0000
  H   H3126     1.0  0.74466  0.91370  0.67221  1.0000
  H   H3127     1.0  0.71437  0.91477  0.65372  1.0000
  H   H3128     1.0  0.69907  0.86530  0.68918  1.0000
  H   H3129     1.0  0.72927  0.86430  0.70760  1.0000
  C   C3917     1.0  0.84291  0.92561  0.62172  1.0000
  C   C3918     1.0  0.83921  0.94479  0.62195  1.0000
  C   C3919     1.0  0.84496  0.95620  0.60414  1.0000
  C   C3920     1.0  0.85459  0.94865  0.58597  1.0000
  C   C3921     1.0  0.85856  0.92949  0.58589  1.0000
  C   C3922     1.0  0.85265  0.91805  0.60363  1.0000
  H   H3130     1.0  0.83185  0.95083  0.63580  1.0000
  H   H3131     1.0  0.84189  0.97102  0.60441  1.0000
  H   H3132     1.0  0.86596  0.92349  0.57207  1.0000
  H   H3133     1.0  0.85561  0.90323  0.60329  1.0000
  C   C3923     1.0  0.88227  0.83950  0.76588  1.0000
  C   C3924     1.0  0.88403  0.85563  0.77751  1.0000
  C   C3925     1.0  0.87313  0.87186  0.77238  1.0000
  C   C3926     1.0  0.86050  0.87239  0.75536  1.0000
  C   C3927     1.0  0.85916  0.85642  0.74325  1.0000
  C   C3928     1.0  0.86994  0.84010  0.74854  1.0000
  H   H3134     1.0  0.89348  0.85548  0.79081  1.0000
  H   H3135     1.0  0.87437  0.88410  0.78183  1.0000
  H   H3136     1.0  0.84962  0.85657  0.73005  1.0000
  H   H3137     1.0  0.86852  0.82777  0.73933  1.0000
  C   C3929     1.0  0.96316  0.83808  0.93456  1.0000
  C   C3930     1.0  0.96937  0.82611  0.91791  1.0000
  C   C3931     1.0  0.95871  0.82400  0.89936  1.0000
  C   C3932     1.0  0.94178  0.83403  0.89715  1.0000
  C   C3933     1.0  0.93555  0.84586  0.91387  1.0000
  C   C3934     1.0  0.94612  0.84787  0.93246  1.0000
  H   H3138     1.0  0.98247  0.81836  0.91943  1.0000
  H   H3139     1.0  0.96352  0.81459  0.88685  1.0000
  H   H3140     1.0  0.92247  0.85364  0.91238  1.0000
  H   H3141     1.0  0.94112  0.85707  0.94512  1.0000
  H   H3142     1.0  0.77735  0.96566  0.91349  1.0000
  H   H3143     1.0  0.79416  0.87683  0.65965  1.0000
  H   H3144     1.0  0.91561  0.92707  0.55563  1.0000
  H   H3145     1.0  0.94713  0.87288  0.62141  1.0000
  H   H3146     1.0  0.79875  0.97227  0.64426  1.0000
  H   H3147     1.0  0.94221  0.80183  0.93519  1.0000
  H   H3148     1.0  0.79321  0.95381  0.82917  1.0000
  C   C3935     1.0  0.78275  0.88068  0.64921  1.0000
  P   P131      1.0  0.76980  0.92258  0.60519  1.0000
  H   H3149     1.0  0.72393  0.91877  0.72149  1.0000
  H   H3150     1.0  0.82727  0.89607  0.56960  1.0000
  C   C3936     1.0  0.75269  0.89136  0.62348  1.0000
  H   H3151     1.0  0.74051  0.89564  0.61455  1.0000
  C   C3937     1.0  0.76883  0.90156  0.62190  1.0000
  C   C3938     1.0  0.94277  0.84399  0.61668  1.0000
  H   H3152     1.0  0.69358  0.89632  0.60729  1.0000
  C   C3939     1.0  0.67394  0.91960  0.60919  1.0000
  H   H3153     1.0  0.75636  0.89914  0.57219  1.0000
  H   H3154     1.0  0.72843  0.90115  0.54994  1.0000
  C   C3940     1.0  0.78992  0.92293  0.58694  1.0000
  C   C3941     1.0  0.86444  0.82415  0.82522  1.0000
  H   H3155     1.0  0.76573  0.85892  0.66211  1.0000
  C   C3942     1.0  0.84341  0.83112  0.79594  1.0000
  H   H3156     1.0  0.83239  0.76784  0.88040  1.0000
  H   H3157     1.0  0.78410  0.95128  0.57560  1.0000
  P   P132      1.0  0.85057  0.77434  0.80203  1.0000
  C   C3943     1.0  0.88715  0.77448  0.88072  1.0000
  H   H3158     1.0  0.83346  0.92494  0.54804  1.0000
  H   H3159     1.0  0.96474  0.96531  0.98829  1.0000
  C   C3944     1.0  0.83719  0.75863  0.76488  1.0000
  C   C3945     1.0  0.92673  0.76646  0.96810  1.0000
  C   C3946     1.0  0.84738  0.99456  0.99727  1.0000
  C   C3947     1.0  0.77111  0.96563  0.89771  1.0000
  C   C3948     1.0  0.97232  0.92495  0.53514  1.0000
  C   C3949     1.0  0.75176  0.87580  0.63759  1.0000
  H   H3160     1.0  0.98518  0.76492  0.81517  1.0000
  H   H3161     1.0  0.97023  0.86457  0.82260  1.0000
  H   H3162     1.0  0.87178  0.78629  0.76353  1.0000
  H   H3163     1.0  0.94842  0.95040  0.57151  1.0000
  C   C3950     1.0  0.84477  0.76161  0.82698  1.0000
  C   C3951     1.0  0.75514  0.94350  0.63938  1.0000
  C   C3952     1.0  0.89376  0.80421  0.89485  1.0000
  C   C3953     1.0  0.78639  0.96455  0.64253  1.0000
  C   C3954     1.0  0.77125  0.96730  0.65698  1.0000
  H   H3164     1.0  0.91609  0.80461  0.91648  1.0000
  H   H3165     1.0  0.96790  0.77641  0.93336  1.0000
  S   S538      1.0  0.94088  0.86295  0.00152  1.0000
  C   C3955     1.0  0.94150  0.86027  0.62842  1.0000
  C   C3956     1.0  0.68280  0.93750  0.70364  1.0000
  S   S539      1.0  0.87165  0.97927  0.50400  1.0000
  C   C3957     1.0  0.83978  0.77083  0.84623  1.0000
  H   H3166     1.0  0.91238  0.95131  0.98039  1.0000
  C   C3958     1.0  0.95171  0.76731  0.90683  1.0000
  C   C3959     1.0  0.93914  0.80251  0.96987  1.0000
  H   H3167     1.0  0.74318  0.93503  0.63878  1.0000
  C   C3960     1.0  0.67847  0.90050  0.57769  1.0000
  C   C3961     1.0  0.85168  0.79899  0.80599  1.0000
  C   C3962     1.0  0.97240  0.90268  0.58663  1.0000
  H   H3168     1.0  0.98037  0.98572  0.52588  1.0000
  Fe  Fe271     1.0  0.90570  0.93652  0.50416  1.0000
  H   H3169     1.0  0.89126  0.81914  0.89510  1.0000
  S   S540      1.0  0.87482  0.93377  0.51022  1.0000
  C   C3963     1.0  0.68322  0.90483  0.59872  1.0000
  H   H3170     1.0  0.77193  0.97712  0.66990  1.0000
  H   H3171     1.0  0.95616  0.94614  0.61879  1.0000
  C   C3964     1.0  0.93555  0.82771  0.62572  1.0000
  H   H3172     1.0  0.84728  0.98808  0.83468  1.0000
  H   H3173     1.0  0.94420  0.81641  0.97052  1.0000
  H   H3174     1.0  0.87365  0.82884  0.83725  1.0000
  C   C3965     1.0  0.72151  0.94148  0.57680  1.0000
  C   C3966     1.0  0.83302  0.76965  0.78298  1.0000
  C   C3967     1.0  0.92803  0.77483  0.98821  1.0000
  H   H3175     1.0  0.79405  0.93468  0.79648  1.0000
  H   H3176     1.0  0.73682  0.94558  0.87154  1.0000
  H   H3177     1.0  0.73962  0.95166  0.60010  1.0000
  C   C3968     1.0  0.73731  0.94044  0.58944  1.0000
  C   C3969     1.0  0.73093  0.91215  0.56092  1.0000
  C   C3970     1.0  0.81762  0.90797  0.57069  1.0000
  C   C3971     1.0  0.93418  0.79287  0.98908  1.0000
  C   C3972     1.0  0.70188  0.93334  0.70426  1.0000
  C   C3973     1.0  0.98132  0.85449  0.82642  1.0000
  H   H3178     1.0  0.93658  0.81508  0.61659  1.0000
  H   H3179     1.0  0.94654  0.98134  0.55391  1.0000
  C   C3974     1.0  0.99790  0.85422  0.81401  1.0000
  H   H3180     1.0  0.71100  0.93810  0.69112  1.0000
  H   H3181     1.0  0.85284  0.98078  0.99368  1.0000
  H   H3182     1.0  0.73908  0.86834  0.63931  1.0000
  C   C3975     1.0  0.70919  0.92244  0.72140  1.0000
  H   H3183     1.0  0.78124  0.90224  0.50745  1.0000
  H   H3184     1.0  0.83642  0.84128  0.78528  1.0000
  H   H3185     1.0  0.98959  0.93764  0.61442  1.0000
  C   C3976     1.0  0.76677  0.87048  0.65048  1.0000
  H   H3186     1.0  0.70591  0.92800  0.55308  1.0000
  H   H3187     1.0  0.89171  0.99090  0.58134  1.0000
  H   H3188     1.0  0.94470  0.93712  0.53073  1.0000
  C   C3977     1.0  0.96791  0.77278  0.91645  1.0000
  H   H3189     1.0  0.94938  0.84398  0.60057  1.0000
  C   C3978     1.0  0.74828  0.95434  0.87408  1.0000
  H   H3190     1.0  0.83056  0.98615  0.78582  1.0000
  H   H3191     1.0  0.91028  0.98271  0.99596  1.0000
  P   P133      1.0  0.93018  0.76539  0.92244  1.0000
  C   C3979     1.0  0.77109  0.97321  0.77603  1.0000
  C   C3980     1.0  0.76994  0.97695  0.86006  1.0000
  H   H3192     1.0  0.75109  0.94559  0.90773  1.0000
  H   H3193     1.0  0.96593  0.84161  0.85299  1.0000
  C   C3981     1.0  0.90805  0.79582  0.90702  1.0000
  C   C3982     1.0  0.97977  0.89652  0.51637  1.0000
  H   H3194     1.0  0.70312  0.90712  0.75118  1.0000
  H   H3195     1.0  0.83870  0.78582  0.84649  1.0000
  C   C3983     1.0  0.99201  0.95164  0.99094  1.0000
  C   C3984     1.0  0.83600  0.76067  0.86553  1.0000
  C   C3985     1.0  0.98538  0.76799  0.88262  1.0000
  C   C3986     1.0  0.96836  0.94286  0.96650  1.0000
  C   C3987     1.0  0.97428  0.95449  0.98237  1.0000
  H   H3196     1.0  0.85582  0.85185  0.81440  1.0000
  H   H3197     1.0  0.78938  0.98552  0.88352  1.0000
  C   C3988     1.0  0.87320  0.76701  0.79124  1.0000
  C   C3989     1.0  0.77898  0.97753  0.81362  1.0000
  H   H3198     1.0  0.76464  0.99814  0.79291  1.0000
  C   C3990     1.0  0.67837  0.92013  0.73769  1.0000
  C   C3991     1.0  0.98455  0.77346  0.90423  1.0000
  C   C3992     1.0  0.75505  0.96561  0.85694  1.0000
  C   C3993     1.0  0.98013  0.92841  0.95891  1.0000
  C   C3994     1.0  0.94891  0.91171  0.51349  1.0000
  C   C3995     1.0  0.91198  0.77659  0.90632  1.0000
  S   S541      1.0  0.92938  0.91661  0.99475  1.0000
  H   H3199     1.0  0.81201  0.95245  0.55122  1.0000
  C   C3996     1.0  0.93150  0.77614  0.94863  1.0000
  C   C3997     1.0  0.80897  0.93974  0.56030  1.0000
  H   H3200     1.0  0.94048  0.75739  0.87737  1.0000
  C   C3998     1.0  0.85444  0.83712  0.81233  1.0000
  H   H3201     1.0  0.81674  0.97787  0.82521  1.0000
  C   C3999     1.0  0.91936  0.98847  0.56722  1.0000
  H   H3202     1.0  0.95442  0.94470  0.96054  1.0000
  H   H3203     1.0  0.74867  0.96550  0.84123  1.0000
  C   C4000     1.0  0.77944  0.95538  0.77684  1.0000
  H   H3204     1.0  0.83421  0.80793  0.77917  1.0000
  H   H3205     1.0  0.92220  0.75241  0.96795  1.0000
  H   H3206     1.0  0.76531  0.97865  0.76093  1.0000
  H   H3207     1.0  0.74418  0.95846  0.66711  1.0000
  C   C4001     1.0  0.77094  0.98431  0.79425  1.0000
  C   C4002     1.0  0.95434  0.92573  0.52681  1.0000
  C   C4003     1.0  0.82080  0.99129  0.77386  1.0000
  H   H3208     1.0  0.89901  0.90416  0.53587  1.0000
  H   H3209     1.0  0.99683  0.77809  0.91164  1.0000
  C   C4004     1.0  0.98515  0.91041  0.52981  1.0000
  C   C4005     1.0  0.82109  0.92420  0.55848  1.0000
  Fe  Fe272     1.0  0.96963  0.85817  0.98723  1.0000
  C   C4006     1.0  0.92695  0.82768  0.64647  1.0000
  C   C4007     1.0  0.92552  0.84402  0.65832  1.0000
  C   C4008     1.0  0.93297  0.86029  0.64919  1.0000
  P   P134      1.0  0.91392  0.84462  0.68484  1.0000
  C   C4009     1.0  0.93051  0.84471  0.70621  1.0000
  C   C4010     1.0  0.89844  0.86499  0.68493  1.0000
  C   C4011     1.0  0.88981  0.87097  0.66559  1.0000
  C   C4012     1.0  0.87711  0.88612  0.66552  1.0000
  C   C4013     1.0  0.87268  0.89526  0.68477  1.0000
  C   C4014     1.0  0.88118  0.88946  0.70407  1.0000
  C   C4015     1.0  0.89399  0.87432  0.70422  1.0000
  C   C4016     1.0  0.94930  0.84779  0.70148  1.0000
  C   C4017     1.0  0.96211  0.84656  0.71811  1.0000
  C   C4018     1.0  0.95628  0.84227  0.73952  1.0000
  C   C4019     1.0  0.93764  0.83920  0.74434  1.0000
  C   C4020     1.0  0.92482  0.84036  0.72778  1.0000
  C   C4021     1.0  0.90038  0.82441  0.69011  1.0000
  C   C4022     1.0  0.90929  0.80739  0.69615  1.0000
  C   C4023     1.0  0.89895  0.79185  0.70133  1.0000
  C   C4024     1.0  0.87963  0.79321  0.70068  1.0000
  C   C4025     1.0  0.87064  0.81009  0.69468  1.0000
  C   C4026     1.0  0.88094  0.82565  0.68940  1.0000
  C   C4027     1.0  0.75564  0.95675  0.65543  1.0000
  H   H3210     1.0  0.92135  0.81496  0.65306  1.0000
  H   H3211     1.0  0.93204  0.87304  0.65810  1.0000
  H   H3212     1.0  0.89254  0.86371  0.65061  1.0000
  H   H3213     1.0  0.87038  0.89062  0.65062  1.0000
  H   H3214     1.0  0.86250  0.90674  0.68469  1.0000
  H   H3215     1.0  0.87751  0.89647  0.71905  1.0000
  H   H3216     1.0  0.89998  0.86979  0.71951  1.0000
  H   H3217     1.0  0.95424  0.85078  0.68501  1.0000
  C   C4028     1.0  0.97886  0.84147  0.84347  1.0000
  H   H3218     1.0  0.96624  0.84110  0.75237  1.0000
  H   H3219     1.0  0.93312  0.83562  0.76089  1.0000
  H   H3220     1.0  0.91050  0.83755  0.73181  1.0000
  H   H3221     1.0  0.92425  0.80621  0.69719  1.0000
  H   H3222     1.0  0.90594  0.77882  0.70614  1.0000
  H   H3223     1.0  0.87161  0.78124  0.70501  1.0000
  H   H3224     1.0  0.85564  0.81124  0.69444  1.0000
  H   H3225     1.0  0.87358  0.83862  0.68524  1.0000
  H   H3226     1.0  0.98948  0.88521  0.51224  1.0000
  S   S542      1.0  0.68276  0.89192  0.65670  1.0000
  C   C4029     1.0  0.78598  0.95124  0.62653  1.0000
  H   H3227     1.0  0.94379  0.89888  0.58134  1.0000
  H   H3228     1.0  0.97632  0.93569  0.54565  1.0000
  C   C4030     1.0  0.80208  0.90729  0.58486  1.0000
  C   C4031     1.0  0.77019  0.94082  0.62460  1.0000
  C   C4032     1.0  0.74982  0.92498  0.58824  1.0000
  C   C4033     1.0  0.87988  0.77530  0.77173  1.0000
  H   H3229     1.0  0.78006  0.94713  0.76239  1.0000
  C   C4034     1.0  0.83490  0.99510  0.84131  1.0000
  C   C4035     1.0  0.71826  0.92729  0.56266  1.0000
  H   H3230     1.0  0.71173  0.95326  0.57806  1.0000
  H   H3231     1.0  0.79603  0.90435  0.63491  1.0000
  H   H3232     1.0  0.89343  0.96038  0.59980  1.0000
  C   C4036     1.0  0.88321  0.79355  0.88186  1.0000
  H   H3233     1.0  0.79979  0.89461  0.59423  1.0000
  C   C4037     1.0  0.78375  0.89625  0.63514  1.0000
  C   C4038     1.0  0.74672  0.91105  0.57354  1.0000
  C   C4039     1.0  0.89973  0.90290  0.55344  1.0000
  C   C4040     1.0  0.89155  0.88811  0.56471  1.0000
  C   C4041     1.0  0.89280  0.88625  0.58731  1.0000
  C   C4042     1.0  0.90215  0.89924  0.59866  1.0000
  C   C4043     1.0  0.90999  0.91443  0.58746  1.0000
  C   C4044     1.0  0.90901  0.91597  0.56472  1.0000
  P   P135      1.0  0.92314  0.93048  0.60189  1.0000
  C   C4045     1.0  0.92149  0.95318  0.58823  1.0000
  C   C4046     1.0  0.91310  0.93187  0.62929  1.0000
  C   C4047     1.0  0.89375  0.93380  0.63236  1.0000
  C   C4048     1.0  0.88565  0.93451  0.65329  1.0000
  C   C4049     1.0  0.89677  0.93309  0.67145  1.0000
  C   C4050     1.0  0.91599  0.93073  0.66867  1.0000
  C   C4051     1.0  0.92415  0.93004  0.64770  1.0000
  C   C4052     1.0  0.93625  0.95930  0.57472  1.0000
  C   C4053     1.0  0.93526  0.97692  0.56455  1.0000
  C   C4054     1.0  0.78740  0.94846  0.79602  1.0000
  C   C4055     1.0  0.86309  0.80517  0.82201  1.0000
  C   C4056     1.0  0.90544  0.96480  0.59051  1.0000
  C   C4057     1.0  0.94734  0.92272  0.60129  1.0000
  C   C4058     1.0  0.97947  0.92902  0.60771  1.0000
  C   C4059     1.0  0.96053  0.93365  0.61036  1.0000
  H   H3234     1.0  0.88436  0.87805  0.55583  1.0000
  H   H3235     1.0  0.88651  0.87474  0.59605  1.0000
  H   H3236     1.0  0.90319  0.89741  0.61613  1.0000
  H   H3237     1.0  0.88480  0.93449  0.61857  1.0000
  H   H3238     1.0  0.87068  0.93597  0.65538  1.0000
  H   H3239     1.0  0.89043  0.93357  0.68768  1.0000
  H   H3240     1.0  0.92454  0.92933  0.68283  1.0000
  H   H3241     1.0  0.93899  0.92786  0.64610  1.0000
  C   C4060     1.0  0.98540  0.91360  0.59572  1.0000
  H   H3242     1.0  0.78692  0.77850  0.77497  1.0000
  H   H3243     1.0  0.97710  0.89116  0.57662  1.0000
  H   H3244     1.0  0.90280  0.77715  0.74863  1.0000
  C   C4061     1.0  0.90441  0.98233  0.58004  1.0000
  H   H3245     1.0  0.87229  0.80018  0.87235  1.0000
  H   H3246     1.0  0.67720  0.92251  0.62579  1.0000
  C   C4062     1.0  0.81472  0.77645  0.78676  1.0000
  H   H3247     1.0  0.87113  0.79525  0.83181  1.0000
  H   H3248     1.0  0.67749  0.94541  0.68979  1.0000
  C   C4063     1.0  0.99766  0.92528  0.96760  1.0000
  P   P136      1.0  0.77853  0.99136  0.83771  1.0000
  C   C4064     1.0  0.81745  0.98930  0.83599  1.0000
  C   C4065     1.0  0.77791  0.97692  0.88060  1.0000
  C   C4066     1.0  0.95267  0.76197  0.88506  1.0000
  H   H3249     1.0  0.66943  0.91465  0.75061  1.0000
  S   S543      1.0  0.97685  0.88817  0.98900  1.0000
  C   C4067     1.0  0.91936  0.95372  0.99527  1.0000
  H   H3250     1.0  0.97011  0.75741  0.85654  1.0000
  H   H3251     1.0  0.99369  0.77933  0.77564  1.0000
  C   C4068     1.0  0.67086  0.93096  0.72041  1.0000
  H   H3252     1.0  0.99386  0.79619  0.82429  1.0000
  C   C4069     1.0  0.80095  0.77294  0.77217  1.0000
  C   C4070     1.0  0.88446  0.75352  0.80212  1.0000
  H   H3253     1.0  0.81116  0.78466  0.80088  1.0000
  C   C4071     1.0  0.99291  0.82808  0.84802  1.0000
  H   H3254     1.0  0.80369  0.92733  0.50547  1.0000
  C   C4072     1.0  0.96950  0.76195  0.87320  1.0000
  H   H3255     1.0  0.67446  0.99393  0.56800  1.0000
  H   H3256     1.0  0.79462  0.75967  0.74259  1.0000
  H   H3257     1.0  0.97536  0.91917  0.94694  1.0000
  C   C4073     1.0  0.80529  0.76233  0.75392  1.0000
  H   H3258     1.0  0.87922  0.76622  0.87033  1.0000
  C   C4074     1.0  0.90827  0.75621  0.77368  1.0000
  C   C4075     1.0  0.90158  0.76607  0.89267  1.0000
  H   H3259     1.0  0.66734  0.96149  0.57669  1.0000
  C   C4076     1.0  0.80129  0.99877  0.84381  1.0000
  C   C4077     1.0  0.82337  0.75510  0.75035  1.0000
  H   H3260     1.0  0.92199  0.75233  0.76724  1.0000
  H   H3261     1.0  0.85103  0.75270  0.76190  1.0000
  C   C4078     1.0  0.96166  0.89704  0.50851  1.0000
  C   C4079     1.0  0.99876  0.76691  0.82150  1.0000
  H   H3262     1.0  0.99828  0.76833  0.87319  1.0000
  C   C4080     1.0  0.98004  0.99922  0.53314  1.0000
  H   H3263     1.0  0.90464  0.75135  0.89107  1.0000
  S   S544      1.0  0.92646  0.91187  0.50264  1.0000
  H   H3264     1.0  0.85723  0.92487  0.00192  1.0000
