data_image0
_chemical_formula_structural       FeS2HCHC2FeSFeSFeSHCSCFeSFeSH2SHC2HFeS2FeSHSCFeS2HCFeS3HC6H4C6H4C10H3CHCHSC6H2CHCH2C3PH4CSCHCH2C2H2C5H3CH4CHCHC4H3CHC2HCFeHC2HCH2C4HCHSC3HCHC6PC18H23C2H2CFeCHC3SHC6PC18H19C3H2C3H2SC2H3CHC3H2CHC3H2CHC2H3PCHC2FeC3H2CHCHCHCH3C2HFeHCHPCH2CH3C6HC2PC4SCHCSCHC2HCH2C4H2CH2CHC2HCH5CHCH2C2HC2H3SPCSCHSFeSHC2SFeS2FeS2FeSFeS3C6H3C6H4C6H4CPC4HC6H2SHC2H2C2H2C8PC18H20C6HPC3H3CH4C2HCSC3H3C4HCHC2HC4HFeCFe2C3PCHC3FeHC6H2C4H3PHC3H5C3H2C2HC3PC3HFeC5HCHC2SHCH3CSH5CHCHC3S2CH2C2FeCH3C2HCSH4C3H2C2HCHCSCHCHC5HC2H4CHCHCH2CHCFeCHCHC2H4SC3HCHSCHCSHCHCH2SH3CHCH6C2HC2HCH2CH2FeSHSC3HFeSCHSH4C2SCH2SHCSHFeSH2SCFeS2FeS2FeSFeS3C6H4C6H4C6H4CH2CH4C2HCH2CHCH2CHCH2C6H3CHSFeC4H2SCSH2SH2C5H2C2HFeH3CH4C4HC11HCH8C3H2CH2PC13H7C2H4CH3CSH3CHC6PC18H6C2H9CHC2SCPHSHC2HCHC5HC3HC3FeCHCHSHC4FeSC3HC2PSHCHC10HC3HC5H3PH2CH2C3H4C2HCHC3HC2HCPHCFeCHCH3CH2CH3CH2C3FeHCH3FeC3HSHC2HCH2C2HCH3C2FeH3CHC2H3CH4C2HCHSCHSFeSFeC2FeSHFeS2FeSFeS3HSFeS2HCH4CHCSCH3CH2C6H4C6H4C8H5C3HC2H2C4HCFeHCH2CHCHC3H3C4HSHCH2CS2HC8HSH4C2SH3C2SCHCHCHCH3CHCH3C3PC5HC8HC3H2CH4C2H2C2H4CFeHC7PC2HCHC3HSC4HCHCH5CH4C2H3CPCH2CFeC3SH4C2FeH2C4HC3H2FeHFeHCHCHCHSHSCH4FeCHC3HCSCS2CHCFeC2HFeSHSHC6HCH2C4H4CHSHC7HC2SC5S2H3CHSH2SCHC2SCFeC2HCHC2H2CH2C2PCH3CH3CH5CHC5SC6PC9HC8H11CH8SC3H2CHFeHPCPH2CHCHC2HCHC2H2CHCFeH3CH3CH2C2H4C3H3C2HC2HC2H2CHC2H3CH3C4HCFeS2FeS2FeSFeS5FeSC2FeS2CFe2S3C2HC3HC6H4C6H4C6H7CH3CH4CHC2H2C8PC4H4C7H4CH2C2H6PFeHC2SC3FeC2HCH3CHCHC3HC2H2C3H2C2PCHSCH2C2HC2H2C5H4C2HC2H2CHC2H2C6HCH2CHC2H3C4HCHC2HC4PC18HCH19CHCH2C3HCHC4HCHPHCHC2H2C2H2C2HCHSH2C2H3CH2PH5C3H2C4SHCH2C4HC2HSC3HC4H2C2HCH2S2H2C5HCH2CHCH2C3FeH2CHSCHC3HC2HCFeS2FeS2FeSFeS3CFeS2CHFeHSFeHCHCSCHSHC6H4C6H4C6H4C6H5C2PCH3C6PC4HFeC9HC2H7SH11C6PC2HCHC3H3CH2C3H8SCHCHFeHC2H2CH3CHSH3C8H8FeHC3HCSC2HCHPC9HC5HC4H2SC2H2CHCPC2H3C3H2CHC2HCHFeSC3H2CSHCHC4HC2HCHPHC2H7CHCHCHC4HCH2CH3C3H3FeSHFeS3FeSCSCHSCHCHSC2HCSCHCHC2HC4H2C2HC2HC2HC4SH2C5H2PCSCH2CHC5HCHCHC2H2CHCHCH3CH3C7HCHCH2PC2H2C2H5C2HC2HCHCH2CHC3HFeCHC6HFeHCH2C2HC2SCHC3H2C2PH2CHPCHFeHCH2CHCHC2H2C8H2C2HC2PC2H2C2H2CHPH2C2HC8H2CFe2H2C3HCH2C4HSHCH2CSCH3C2HCHC2HC4H2CSCH2CFeC2FeSHSCSHFeSHCHCHSCSHC6H4C6H5CHC2H3C2HC6H4C6HC2PFeSC2HC3H2C4HSHC2HC2H2CH2C3SHCH2CHCH3C3H2CHCFeSCH2C4HFeC2H4CHCHC8PC18HCH4C2H6C2HSC2H2C6HCHCH2SHSCFeH2C3H3PHC2HC2HC2HC3H3SCH2SC3H2FeH2SC4H3C2PC2H2CHCHC3H6CH2SH3S2H2CH2C3H2C2H2C2H2SFeSHSFeSFeS3FeS2FeS2FeSFeS3C3HC2HC2HC5H3C6H4C6H4C6H3C6H3CHC3H2CHCHCH2PC2H2CHFeHC3H2CH2CHCSC7PC18HCH6CH12C6PC18H6CHSH11CHCHSCHC3H2CH4C4HCH3SC3HC3HCH2C4HC3HC2HSC2SC3HFeHC6H2CH2PC2H2CHC4H2CHCHC2HC2HC2H3C3H2CPH5C2H2C2H2CHCPSC3H2C3H5C2HCH2C2H5CH2CSH2C3H4CHFeH3FeHCSH5C2HCH2CHC2H2C3HC2H2PCHFeCS2C3H2CSCH2CHCFeSC2FeS2FeS2FeSFeS3FeSFeSHC6H4C6H4SH4C6H8C2HC2HCH3C6H3PH2C2HSHC7HCSHCH2C2HC2HCH3CH8PC4H2C2PC4HC3H2CHC9H4CH2CHSHC3H2CH2CH2C2SHC3HSC5HC6PCFeC2HCHC8H2C6PH6C2H2SHC5HCH3CHCHFeC6PC17H18CHC8H10C2HC2H2C9H2CFeH3PC3SH2CHC4H4C2HCHS2H4FeC3SHSCH2C2FeS2FeSFeSHS3HSHFeS2FeHFeHS2C2HCHC2FeH2PCHC6H4C6H2SHC6H3CHC4H3C3H3C2HFeHCH2C4H2CHCHC2SCHSC4SC6PSC3H2FeHCHCH8CH5C7H5C3HC3H6C2H2C3HCHSH2FeC2HCHC4HFeSHCHC3PC3H4CSC4HCH2CFeCSC2H3C2H2CHPC2HCHC10SCSHCHCPHC2FeH4CH2CHC4FeS2HFeS2PFeSFeCSPCS2CFeSFeS4HFeSC3H3C6H3C2H2CSHC4HC2H2C2H2CHC4H2C2HCH3C5HC2FeH2FeHCHC4H3CH3SHSH2C2H5CHC2H3C4HCHCH4C7H2CH3CHCH3C4H4PCHCHC3H5C4HFeC2SCPHC2HCHSH2C2HC22PC10HC7H11CHCH8C4H3C6HCHC2HC6HC2H3CHFeCH4C2HCH3C2HCHSC2HSC2SCHC2HCHC6FeCPC4HC2H4C3HC4HSHC2FeH3CSC5FeS2FeS2FeSFeS3FeS4CH3SC2FeCSHSC7H4C6H4C6H4PH2CH2CH3SHC2H3CHFeC5PC18FeH13CH3CFeH2PC7H3CHCHCSHC3H3SC7PCHC10HC4H3C2HSH4CH2FeHCHCPC4HC2H2C6HC5HCHC2H6C7PC18H20SH4C3HFeH2SC7HC2PCH9CH2CFeCHC6PHC2H2FeCHC3H2CH2CHCH3C3HSCH4FeH2SCHCHCHCSC3HSHCS2C2H2CHC2HC2HSHC5HC7HCH2S2FeS2FeS2FeSFeS4HCHSC2FeS2FeSCPSC3HCHCH2SCH5C2HSC6H4C6H4C6H4C6H5CHC2PC3HCHC10H2CH3SH11C4FeHC2H2C2PH6C5PC3HCHC2H2CH2CHCHC3H3C2HC3HC3HC3H2C7H8C6HCHC2H2C2HCFeCH2SH2CH2C2H2CHC2HCH2C3H2C7PC4SHC6H3CHCH3SC4FeC2HCHCFeC2H2CH5FeCHCHCH4SCHSH2FeSH2CHCSCSCH2CSCH2C3HCH4SCH2FeCH2C4H7C7PC4H2C8H2C3HCHC2H5SHC2H5C2H2C2FeCHCH2C2HC2HCHPC5H2C2HCHC2HSH2C3SH2CHC2H2C3H4C3HC5H6C2HSC3H2CH3Fe
_chemical_formula_sum              "Fe176 S352 H2112 C2640 P88"
_cell_length_a       44.9705
_cell_length_b       89.4995
_cell_length_c       43.0961
_cell_angle_alpha    86.8372
_cell_angle_beta     88.9018
_cell_angle_gamma    85.0943

_space_group_name_H-M_alt    "P 1"
_space_group_IT_number       1

loop_
  _space_group_symop_operation_xyz
  'x, y, z'

loop_
  _atom_site_type_symbol
  _atom_site_label
  _atom_site_symmetry_multiplicity
  _atom_site_fract_x
  _atom_site_fract_y
  _atom_site_fract_z
  _atom_site_occupancy
  Fe  Fe1       1.0  0.46119  0.12818  0.14997  1.0000
  S   S1        1.0  0.44169  0.14451  0.11279  1.0000
  S   S2        1.0  0.43986  0.12812  0.19794  1.0000
  H   H1        1.0  0.41850  0.08048  0.43078  1.0000
  C   C1        1.0  0.46187  0.09114  0.02315  1.0000
  H   H2        1.0  0.09142  0.05708  0.30643  1.0000
  C   C2        1.0  0.09381  0.04953  0.45907  1.0000
  C   C3        1.0  0.48898  0.99780  0.04728  1.0000
  Fe  Fe2       1.0  0.44530  0.12497  0.08211  1.0000
  S   S3        1.0  0.41057  0.12178  0.04650  1.0000
  Fe  Fe3       1.0  0.12928  0.98595  0.25398  1.0000
  S   S4        1.0  0.46059  0.10831  0.12041  1.0000
  Fe  Fe4       1.0  0.48916  0.14719  0.09869  1.0000
  S   S5        1.0  0.44391  0.14167  0.37028  1.0000
  H   H3        1.0  0.01751  0.05543  0.33203  1.0000
  C   C4        1.0  0.23138  0.00007  0.22499  1.0000
  S   S6        1.0  0.44542  0.12827  0.44248  1.0000
  C   C5        1.0  0.43990  0.18820  0.03410  1.0000
  Fe  Fe5       1.0  0.43389  0.12023  0.39634  1.0000
  S   S7        1.0  0.39424  0.10729  0.38692  1.0000
  Fe  Fe6       1.0  0.45992  0.14878  0.41594  1.0000
  S   S8        1.0  0.44554  0.17265  0.42811  1.0000
  H   H4        1.0  0.41829  0.08324  0.02270  1.0000
  H   H5        1.0  0.26387  0.01678  0.09310  1.0000
  S   S9        1.0  0.19763  0.06342  0.42578  1.0000
  H   H6        1.0  0.42403  0.12655  0.26249  1.0000
  C   C6        1.0  0.48861  0.17539  0.47214  1.0000
  C   C7        1.0  0.07436  0.04055  0.33865  1.0000
  H   H7        1.0  0.36278  0.18379  0.21013  1.0000
  Fe  Fe7       1.0  0.28279  0.07013  0.04379  1.0000
  S   S10       1.0  0.23265  0.07353  0.04370  1.0000
  S   S11       1.0  0.31070  0.07778  0.08215  1.0000
  Fe  Fe8       1.0  0.23527  0.04895  0.03463  1.0000
  S   S12       1.0  0.20549  0.03233  0.05881  1.0000
  H   H8        1.0  0.42877  0.19531  0.11988  1.0000
  S   S13       1.0  0.28530  0.04527  0.03746  1.0000
  C   C8        1.0  0.41752  0.17893  0.15536  1.0000
  Fe  Fe9       1.0  0.14061  0.00796  0.30363  1.0000
  S   S14       1.0  0.16828  0.99878  0.26396  1.0000
  S   S15       1.0  0.16190  0.00800  0.35134  1.0000
  H   H9        1.0  0.36321  0.17535  0.40327  1.0000
  C   C9        1.0  0.39909  0.17560  0.18078  1.0000
  Fe  Fe10      1.0  0.14514  0.01753  0.23419  1.0000
  S   S16       1.0  0.17489  0.03234  0.20438  1.0000
  S   S17       1.0  0.11963  0.02753  0.27482  1.0000
  S   S18       1.0  0.27510  0.06039  0.46872  1.0000
  H   H10       1.0  0.11515  0.07028  0.34739  1.0000
  C   C10       1.0  0.19747  0.03228  0.09939  1.0000
  C   C11       1.0  0.17838  0.02198  0.11284  1.0000
  C   C12       1.0  0.17123  0.02176  0.14491  1.0000
  C   C13       1.0  0.18318  0.03188  0.16389  1.0000
  C   C14       1.0  0.20261  0.04203  0.15048  1.0000
  C   C15       1.0  0.20972  0.04225  0.11846  1.0000
  H   H11       1.0  0.16880  0.01425  0.09828  1.0000
  H   H12       1.0  0.15633  0.01385  0.15486  1.0000
  H   H13       1.0  0.21194  0.04992  0.16490  1.0000
  H   H14       1.0  0.22447  0.05022  0.10848  1.0000
  C   C16       1.0  0.18834  0.04788  0.40510  1.0000
  C   C17       1.0  0.17646  0.05039  0.37511  1.0000
  C   C18       1.0  0.16790  0.03837  0.35837  1.0000
  C   C19       1.0  0.17121  0.02370  0.37151  1.0000
  C   C20       1.0  0.18294  0.02125  0.40154  1.0000
  C   C21       1.0  0.19166  0.03322  0.41817  1.0000
  H   H15       1.0  0.17375  0.06172  0.36482  1.0000
  H   H16       1.0  0.15882  0.04045  0.33532  1.0000
  H   H17       1.0  0.18522  0.00999  0.41208  1.0000
  H   H18       1.0  0.20039  0.03114  0.44137  1.0000
  C   C22       1.0  0.35568  0.98061  0.46294  1.0000
  C   C23       1.0  0.49660  0.01229  0.05242  1.0000
  C   C24       1.0  0.48346  0.18260  0.06639  1.0000
  C   C25       1.0  0.46198  0.18140  0.45841  1.0000
  C   C26       1.0  0.36998  0.10425  0.41884  1.0000
  C   C27       1.0  0.36724  0.11422  0.44269  1.0000
  C   C28       1.0  0.34628  0.11230  0.46682  1.0000
  C   C29       1.0  0.32836  0.10022  0.46772  1.0000
  C   C30       1.0  0.37469  0.03707  0.03676  1.0000
  C   C31       1.0  0.49925  0.04923  0.05754  1.0000
  H   H19       1.0  0.38078  0.12358  0.44211  1.0000
  H   H20       1.0  0.14090  0.04529  0.44855  1.0000
  H   H21       1.0  0.50625  0.09818  0.01739  1.0000
  C   C32       1.0  0.40068  0.01945  0.47980  1.0000
  H   H22       1.0  0.49073  0.09452  0.31560  1.0000
  C   C33       1.0  0.45766  0.17808  0.05341  1.0000
  H   H23       1.0  0.45161  0.16671  0.05779  1.0000
  S   S19       1.0  0.47930  0.10861  0.38778  1.0000
  C   C34       1.0  0.38374  0.10899  0.05595  1.0000
  C   C35       1.0  0.38505  0.10021  0.08379  1.0000
  C   C36       1.0  0.36264  0.09059  0.09144  1.0000
  C   C37       1.0  0.33901  0.08954  0.07116  1.0000
  C   C38       1.0  0.33812  0.09802  0.04290  1.0000
  C   C39       1.0  0.36046  0.10772  0.03533  1.0000
  H   H24       1.0  0.40292  0.10105  0.09977  1.0000
  H   H25       1.0  0.36353  0.08403  0.11320  1.0000
  C   C40       1.0  0.44798  0.20283  0.02749  1.0000
  H   H26       1.0  0.44406  0.15657  0.49189  1.0000
  C   C41       1.0  0.46185  0.12819  0.23145  1.0000
  H   H27       1.0  0.43721  0.08334  0.37679  1.0000
  H   H28       1.0  0.45206  0.20265  0.31907  1.0000
  C   C42       1.0  0.38343  0.15432  0.46879  1.0000
  C   C43       1.0  0.46428  0.12842  0.28791  1.0000
  C   C44       1.0  0.44781  0.12756  0.26076  1.0000
  P   P1        1.0  0.43750  0.05967  0.48307  1.0000
  H   H29       1.0  0.28732  0.97443  0.05307  1.0000
  H   H30       1.0  0.45317  0.12788  0.31033  1.0000
  H   H31       1.0  0.06091  0.02726  0.01784  1.0000
  H   H32       1.0  0.47086  0.15696  0.20385  1.0000
  C   C45       1.0  0.24742  0.99130  0.24779  1.0000
  S   S20       1.0  0.10306  0.99337  0.29626  1.0000
  C   C46       1.0  0.36278  0.03906  0.46382  1.0000
  H   H33       1.0  0.42116  0.98806  0.43140  1.0000
  C   C47       1.0  0.47429  0.17763  0.22631  1.0000
  H   H34       1.0  0.50379  0.12979  0.20704  1.0000
  H   H35       1.0  0.47131  0.99299  0.06090  1.0000
  C   C48       1.0  0.15185  0.98337  0.10707  1.0000
  C   C49       1.0  0.08581  0.04269  0.39309  1.0000
  H   H36       1.0  0.48789  0.04494  0.44948  1.0000
  H   H37       1.0  0.42710  0.19938  0.45879  1.0000
  C   C50       1.0  0.10285  0.06064  0.35368  1.0000
  C   C51       1.0  0.47062  0.19417  0.31791  1.0000
  C   C52       1.0  0.10655  0.01862  0.44042  1.0000
  C   C53       1.0  0.00715  0.01693  0.46471  1.0000
  C   C54       1.0  0.13336  0.06171  0.48277  1.0000
  H   H38       1.0  0.12305  0.97874  0.18009  1.0000
  H   H39       1.0  0.02644  0.05145  0.41212  1.0000
  H   H40       1.0  0.25058  0.99576  0.27025  1.0000
  C   C55       1.0  0.49733  0.18826  0.16933  1.0000
  H   H41       1.0  0.24035  0.00403  0.13751  1.0000
  H   H42       1.0  0.45124  0.09116  0.47917  1.0000
  H   H43       1.0  0.50030  0.06658  0.48629  1.0000
  H   H44       1.0  0.40122  0.16443  0.19217  1.0000
  C   C56       1.0  0.47345  0.20744  0.04103  1.0000
  H   H45       1.0  0.35766  0.20912  0.18356  1.0000
  C   C57       1.0  0.13956  0.97912  0.16150  1.0000
  H   H46       1.0  0.14495  0.98655  0.08351  1.0000
  C   C58       1.0  0.33252  0.21997  0.10371  1.0000
  C   C59       1.0  0.43943  0.98455  0.44679  1.0000
  C   C60       1.0  0.14240  0.99171  0.45254  1.0000
  C   C61       1.0  0.44839  0.19505  0.46818  1.0000
  H   H47       1.0  0.16656  0.05926  0.03709  1.0000
  H   H48       1.0  0.48514  0.01841  0.07070  1.0000
  H   H49       1.0  0.10573  0.01127  0.39329  1.0000
  C   C62       1.0  0.36429  0.05224  0.03543  1.0000
  H   H50       1.0  0.15658  0.98144  0.45700  1.0000
  C   C63       1.0  0.26468  0.00460  0.09467  1.0000
  C   C64       1.0  0.35249  0.09198  0.41991  1.0000
  H   H51       1.0  0.33999  0.04249  0.45711  1.0000
  C   C65       1.0  0.22580  0.99418  0.19657  1.0000
  Fe  Fe11      1.0  0.22487  0.06243  0.47029  1.0000
  H   H52       1.0  0.43375  0.17041  0.14709  1.0000
  C   C66       1.0  0.38775  0.21089  0.25411  1.0000
  C   C67       1.0  0.38282  0.04989  0.46775  1.0000
  H   H53       1.0  0.11223  0.06117  0.40204  1.0000
  C   C68       1.0  0.44112  0.21254  0.25912  1.0000
  H   H54       1.0  0.34718  0.05625  0.05165  1.0000
  H   H55       1.0  0.29161  0.09358  0.38138  1.0000
  C   C69       1.0  0.33175  0.08994  0.44433  1.0000
  C   C70       1.0  0.36646  0.18400  0.44868  1.0000
  C   C71       1.0  0.08957  0.05320  0.33062  1.0000
  C   C72       1.0  0.44640  0.05660  0.06523  1.0000
  H   H56       1.0  0.31988  0.09738  0.02719  1.0000
  C   C73       1.0  0.35575  0.21085  0.04648  1.0000
  H   H57       1.0  0.16570  0.08696  0.02895  1.0000
  S   S21       1.0  0.10737  0.00415  0.22152  1.0000
  C   C74       1.0  0.48744  0.97611  0.48606  1.0000
  C   C75       1.0  0.37499  0.21387  0.07000  1.0000
  C   C76       1.0  0.49491  0.13010  0.28591  1.0000
  H   H58       1.0  0.35509  0.08403  0.40192  1.0000
  C   C77       1.0  0.37761  0.18654  0.19095  1.0000
  H   H59       1.0  0.47970  0.21872  0.03629  1.0000
  C   C78       1.0  0.28639  0.07171  0.17204  1.0000
  C   C79       1.0  0.27312  0.06758  0.20046  1.0000
  C   C80       1.0  0.28503  0.07166  0.22820  1.0000
  C   C81       1.0  0.31025  0.07984  0.22758  1.0000
  C   C82       1.0  0.32362  0.08412  0.19907  1.0000
  C   C83       1.0  0.31141  0.07998  0.17133  1.0000
  P   P2        1.0  0.35523  0.09544  0.19751  1.0000
  C   C84       1.0  0.38923  0.08453  0.18660  1.0000
  C   C85       1.0  0.34766  0.11079  0.16887  1.0000
  C   C86       1.0  0.31806  0.11618  0.16214  1.0000
  C   C87       1.0  0.31205  0.12725  0.13838  1.0000
  C   C88       1.0  0.33551  0.13318  0.12145  1.0000
  C   C89       1.0  0.36497  0.12827  0.12870  1.0000
  C   C90       1.0  0.37111  0.11720  0.15243  1.0000
  C   C91       1.0  0.38849  0.07155  0.16982  1.0000
  C   C92       1.0  0.41509  0.06373  0.16027  1.0000
  C   C93       1.0  0.44259  0.06876  0.16747  1.0000
  C   C94       1.0  0.44352  0.08158  0.18439  1.0000
  C   C95       1.0  0.41700  0.08937  0.19404  1.0000
  C   C96       1.0  0.36080  0.10276  0.23508  1.0000
  C   C97       1.0  0.37482  0.09342  0.25876  1.0000
  C   C98       1.0  0.37935  0.09897  0.28789  1.0000
  C   C99       1.0  0.36991  0.11385  0.29363  1.0000
  C   C100      1.0  0.35597  0.12321  0.27021  1.0000
  C   C101      1.0  0.35141  0.11772  0.24102  1.0000
  H   H60       1.0  0.27707  0.06872  0.15038  1.0000
  H   H61       1.0  0.25340  0.06138  0.20089  1.0000
  H   H62       1.0  0.27439  0.06868  0.25020  1.0000
  H   H63       1.0  0.31873  0.08304  0.24934  1.0000
  H   H64       1.0  0.32086  0.08337  0.14898  1.0000
  H   H65       1.0  0.29951  0.11165  0.17476  1.0000
  H   H66       1.0  0.28918  0.13099  0.13263  1.0000
  H   H67       1.0  0.33092  0.14145  0.10246  1.0000
  H   H68       1.0  0.38307  0.13271  0.11517  1.0000
  H   H69       1.0  0.39415  0.11350  0.15729  1.0000
  H   H70       1.0  0.36756  0.06751  0.16359  1.0000
  H   H71       1.0  0.41433  0.05386  0.14691  1.0000
  H   H72       1.0  0.46318  0.06284  0.15969  1.0000
  H   H73       1.0  0.46477  0.08568  0.18961  1.0000
  H   H74       1.0  0.41819  0.09939  0.20679  1.0000
  H   H75       1.0  0.38232  0.08187  0.25463  1.0000
  H   H76       1.0  0.39032  0.09180  0.30609  1.0000
  H   H77       1.0  0.37360  0.11811  0.31624  1.0000
  H   H78       1.0  0.34887  0.13478  0.27466  1.0000
  H   H79       1.0  0.34074  0.12519  0.22318  1.0000
  H   H80       1.0  0.36053  0.19552  0.44074  1.0000
  H   H81       1.0  0.04908  0.05648  0.47537  1.0000
  H   H82       1.0  0.02323  0.99086  0.25674  1.0000
  C   C102      1.0  0.16981  0.97583  0.16811  1.0000
  C   C103      1.0  0.41897  0.07641  0.49844  1.0000
  H   H83       1.0  0.48184  0.06774  0.35931  1.0000
  H   H84       1.0  0.06436  0.03467  0.32068  1.0000
  C   C104      1.0  0.41173  0.04559  0.47861  1.0000
  Fe  Fe12      1.0  0.08344  0.01238  0.26467  1.0000
  C   C105      1.0  0.33042  0.98769  0.41459  1.0000
  H   H85       1.0  0.13686  0.98790  0.40408  1.0000
  C   C106      1.0  0.41481  0.19316  0.14019  1.0000
  C   C107      1.0  0.13059  0.98299  0.13108  1.0000
  C   C108      1.0  0.45340  0.06759  0.08500  1.0000
  S   S22       1.0  0.03446  0.02196  0.26880  1.0000
  H   H86       1.0  0.11259  0.02224  0.48920  1.0000
  C   C109      1.0  0.24571  0.99934  0.40412  1.0000
  C   C110      1.0  0.24759  0.00306  0.43506  1.0000
  C   C111      1.0  0.26167  0.01573  0.44220  1.0000
  C   C112      1.0  0.27392  0.02469  0.41848  1.0000
  C   C113      1.0  0.27136  0.02128  0.38727  1.0000
  C   C114      1.0  0.25761  0.00837  0.38031  1.0000
  P   P3        1.0  0.29014  0.03177  0.35698  1.0000
  C   C115      1.0  0.29095  0.05126  0.36521  1.0000
  C   C116      1.0  0.32753  0.02277  0.35610  1.0000
  C   C117      1.0  0.34801  0.02596  0.37853  1.0000
  C   C118      1.0  0.37658  0.01846  0.37934  1.0000
  C   C119      1.0  0.38485  0.00766  0.35786  1.0000
  C   C120      1.0  0.36440  0.00423  0.33579  1.0000
  C   C121      1.0  0.33568  0.01162  0.33515  1.0000
  C   C122      1.0  0.31434  0.05950  0.35355  1.0000
  C   C123      1.0  0.31446  0.07474  0.35918  1.0000
  C   C124      1.0  0.29127  0.08184  0.37644  1.0000
  C   C125      1.0  0.26762  0.07379  0.38746  1.0000
  C   C126      1.0  0.26728  0.05860  0.38157  1.0000
  C   C127      1.0  0.27105  0.03224  0.32041  1.0000
  C   C128      1.0  0.23988  0.03202  0.32004  1.0000
  C   C129      1.0  0.22469  0.03339  0.29188  1.0000
  C   C130      1.0  0.24043  0.03531  0.26390  1.0000
  C   C131      1.0  0.27146  0.03564  0.26401  1.0000
  C   C132      1.0  0.28671  0.03431  0.29219  1.0000
  H   H87       1.0  0.23433  0.98965  0.39849  1.0000
  H   H88       1.0  0.23781  0.99627  0.45350  1.0000
  H   H89       1.0  0.26291  0.01869  0.46618  1.0000
  H   H90       1.0  0.28529  0.03426  0.42465  1.0000
  H   H91       1.0  0.25600  0.00524  0.35652  1.0000
  H   H92       1.0  0.34176  0.03415  0.39565  1.0000
  H   H93       1.0  0.39218  0.02098  0.39681  1.0000
  H   H94       1.0  0.40697  0.00182  0.35854  1.0000
  H   H95       1.0  0.37067  0.99570  0.31942  1.0000
  H   H96       1.0  0.31978  0.00848  0.31862  1.0000
  H   H97       1.0  0.33240  0.05419  0.34004  1.0000
  H   H98       1.0  0.33263  0.08108  0.35042  1.0000
  H   H99       1.0  0.24946  0.07929  0.40069  1.0000
  H   H100      1.0  0.24855  0.05260  0.38982  1.0000
  H   H101      1.0  0.22718  0.03104  0.34153  1.0000
  H   H102      1.0  0.20059  0.03313  0.29179  1.0000
  H   H103      1.0  0.22844  0.03668  0.24216  1.0000
  H   H104      1.0  0.28356  0.03715  0.24224  1.0000
  H   H105      1.0  0.31059  0.03513  0.29195  1.0000
  C   C133      1.0  0.47647  0.18434  0.34388  1.0000
  C   C134      1.0  0.47354  0.06625  0.38294  1.0000
  C   C135      1.0  0.44846  0.07511  0.39286  1.0000
  H   H106      1.0  0.35570  0.01560  0.46800  1.0000
  H   H107      1.0  0.37552  0.06163  0.46287  1.0000
  C   C136      1.0  0.47709  0.05363  0.43406  1.0000
  C   C137      1.0  0.48325  0.06971  0.09040  1.0000
  C   C138      1.0  0.49267  0.12938  0.22947  1.0000
  H   H108      1.0  0.22195  0.01124  0.22977  1.0000
  H   H109      1.0  0.37816  0.14910  0.42105  1.0000
  S   S23       1.0  0.49148  0.12901  0.06466  1.0000
  C   C139      1.0  0.15652  0.08042  0.01159  1.0000
  C   C140      1.0  0.47764  0.16828  0.20137  1.0000
  H   H110      1.0  0.39883  0.21216  0.06593  1.0000
  H   H111      1.0  0.34913  0.97718  0.37407  1.0000
  H   H112      1.0  0.31823  0.08053  0.44486  1.0000
  C   C141      1.0  0.04432  0.03218  0.44055  1.0000
  H   H113      1.0  0.21169  0.00092  0.18016  1.0000
  C   C142      1.0  0.48284  0.19239  0.22311  1.0000
  C   C143      1.0  0.25133  0.99724  0.12007  1.0000
  C   C144      1.0  0.15712  0.06483  0.01608  1.0000
  H   H114      1.0  0.36536  0.02934  0.05375  1.0000
  H   H115      1.0  0.36494  0.20722  0.02441  1.0000
  C   C145      1.0  0.49995  0.17311  0.34299  1.0000
  H   H116      1.0  0.31259  0.99410  0.40201  1.0000
  C   C146      1.0  0.37170  0.02387  0.46984  1.0000
  C   C147      1.0  0.37489  0.20087  0.17595  1.0000
  C   C148      1.0  0.07224  0.03539  0.36974  1.0000
  H   H117      1.0  0.06023  0.02559  0.37546  1.0000
  H   H118      1.0  0.42590  0.20883  0.39727  1.0000
  C   C149      1.0  0.10116  0.05537  0.38480  1.0000
  H   H119      1.0  0.47950  0.20867  0.38450  1.0000
  C   C150      1.0  0.45271  0.06299  0.44457  1.0000
  C   C151      1.0  0.48954  0.17350  0.17309  1.0000
  H   H120      1.0  0.46526  0.17323  0.24813  1.0000
  H   H121      1.0  0.45849  0.09570  0.04586  1.0000
  H   H122      1.0  0.28782  0.00218  0.05086  1.0000
  P   P4        1.0  0.47905  0.20428  0.25585  1.0000
  C   C152      1.0  0.46396  0.99321  0.44666  1.0000
  H   H123      1.0  0.00841  0.07694  0.36589  1.0000
  C   C153      1.0  0.27757  0.98076  0.07201  1.0000
  C   C154      1.0  0.41718  0.20485  0.24969  1.0000
  Fe  Fe13      1.0  0.49177  0.11813  0.43228  1.0000
  C   C155      1.0  0.39663  0.03186  0.01572  1.0000
  C   C156      1.0  0.03702  0.01978  0.45971  1.0000
  C   C157      1.0  0.36795  0.17265  0.42756  1.0000
  H   H124      1.0  0.42327  0.05526  0.06034  1.0000
  H   H125      1.0  0.43573  0.07480  0.09535  1.0000
  C   C158      1.0  0.43805  0.07353  0.42356  1.0000
  H   H126      1.0  0.42012  0.18460  0.02385  1.0000
  C   C159      1.0  0.46920  0.04761  0.05110  1.0000
  H   H127      1.0  0.50408  0.16535  0.36291  1.0000
  C   C160      1.0  0.48798  0.98897  0.46628  1.0000
  H   H128      1.0  0.37229  0.18952  0.49570  1.0000
  C   C161      1.0  0.39378  0.20431  0.15071  1.0000
  H   H129      1.0  0.19815  0.98046  0.09451  1.0000
  H   H130      1.0  0.40436  0.02003  0.01628  1.0000
  H   H131      1.0  0.44312  0.02660  0.49166  1.0000
  C   C162      1.0  0.02130  0.04176  0.42678  1.0000
  C   C163      1.0  0.25824  0.97661  0.24196  1.0000
  H   H132      1.0  0.36931  0.20488  0.24716  1.0000
  Fe  Fe14      1.0  0.49019  0.13063  0.36512  1.0000
  H   H133      1.0  0.35936  0.11447  0.01373  1.0000
  C   C164      1.0  0.33271  0.98891  0.44660  1.0000
  H   H134      1.0  0.46430  0.00327  0.43156  1.0000
  P   P5        1.0  0.38850  0.22213  0.12919  1.0000
  C   C165      1.0  0.43878  0.21735  0.40601  1.0000
  H   H135      1.0  0.50052  0.20902  0.19075  1.0000
  H   H136      1.0  0.31663  0.99627  0.45889  1.0000
  C   C166      1.0  0.27793  0.99638  0.07073  1.0000
  H   H137      1.0  0.40727  0.00770  0.48540  1.0000
  H   H138      1.0  0.05430  0.01227  0.47074  1.0000
  H   H139      1.0  0.42107  0.19410  0.23935  1.0000
  C   C167      1.0  0.36352  0.21898  0.09837  1.0000
  C   C168      1.0  0.31327  0.21690  0.08017  1.0000
  C   C169      1.0  0.37641  0.15782  0.43761  1.0000
  C   C170      1.0  0.48811  0.19267  0.29067  1.0000
  C   C171      1.0  0.13113  0.99527  0.42283  1.0000
  C   C172      1.0  0.11768  0.01486  0.47037  1.0000
  H   H140      1.0  0.46335  0.03948  0.03504  1.0000
  C   C173      1.0  0.11336  0.00867  0.41673  1.0000
  C   C174      1.0  0.25104  0.98151  0.12181  1.0000
  P   P6        1.0  0.08282  0.03579  0.43320  1.0000
  C   C175      1.0  0.37327  0.18052  0.47993  1.0000
  C   C176      1.0  0.50611  0.06073  0.07641  1.0000
  C   C177      1.0  0.13567  0.00151  0.47631  1.0000
  C   C178      1.0  0.12421  0.05158  0.46211  1.0000
  S   S24       1.0  0.30204  0.09855  0.49834  1.0000
  C   C179      1.0  0.46229  0.20323  0.48981  1.0000
  H   H141      1.0  0.39024  0.14281  0.47620  1.0000
  C   C180      1.0  0.07264  0.05785  0.47704  1.0000
  S   S25       1.0  0.42569  0.21501  0.00229  1.0000
  C   C181      1.0  0.42076  0.03025  0.48393  1.0000
  H   H142      1.0  0.34385  0.12021  0.48487  1.0000
  C   C182      1.0  0.48865  0.09270  0.00694  1.0000
  C   C183      1.0  0.48772  0.05544  0.40351  1.0000
  H   H143      1.0  0.15692  0.06323  0.48487  1.0000
  C   C184      1.0  0.49116  0.19734  0.06047  1.0000
  H   H144      1.0  0.31003  0.21011  0.03316  1.0000
  H   H145      1.0  0.44945  0.21797  0.15314  1.0000
  C   C185      1.0  0.19135  0.97624  0.14415  1.0000
  C   C186      1.0  0.18211  0.97996  0.11350  1.0000
  C   C187      1.0  0.38171  0.16561  0.49027  1.0000
  C   C188      1.0  0.35111  0.97819  0.39885  1.0000
  H   H146      1.0  0.46250  0.18517  0.36463  1.0000
  H   H147      1.0  0.32320  0.22305  0.12605  1.0000
  C   C189      1.0  0.50436  0.21890  0.25045  1.0000
  H   H148      1.0  0.48840  0.13828  0.49495  1.0000
  H   H149      1.0  0.48884  0.07850  0.10502  1.0000
  C   C190      1.0  0.32488  0.21246  0.05146  1.0000
  H   H150      1.0  0.28934  0.21785  0.08423  1.0000
  C   C191      1.0  0.23743  0.97963  0.19000  1.0000
  C   C192      1.0  0.43110  0.09027  0.49317  1.0000
  H   H151      1.0  0.10716  0.98578  0.12623  1.0000
  C   C193      1.0  0.46931  0.21714  0.39919  1.0000
  H   H152      1.0  0.35699  0.98178  0.48771  1.0000
  H   H153      1.0  0.45180  0.21385  0.49664  1.0000
  H   H154      1.0  0.32442  0.22277  0.45053  1.0000
  H   H155      1.0  0.50607  0.19228  0.14704  1.0000
  H   H156      1.0  0.49410  0.09575  0.25808  1.0000
  C   C194      1.0  0.49399  0.19771  0.19421  1.0000
  H   H157      1.0  0.49885  0.16466  0.46542  1.0000
  C   C195      1.0  0.37562  0.06220  0.01299  1.0000
  H   H158      1.0  0.36716  0.07389  0.01244  1.0000
  H   H159      1.0  0.49228  0.16615  0.15393  1.0000
  C   C196      1.0  0.08189  0.06796  0.49783  1.0000
  C   C197      1.0  0.50414  0.98946  0.02451  1.0000
  H   H160      1.0  0.49810  0.97827  0.02028  1.0000
  C   C198      1.0  0.50241  0.18350  0.49410  1.0000
  C   C199      1.0  0.43913  0.08399  0.00993  1.0000
  H   H161      1.0  0.29685  0.15126  0.84644  1.0000
  H   H162      1.0  0.09491  0.99962  0.94452  1.0000
  H   H163      1.0  0.18949  0.21366  0.78502  1.0000
  S   S26       1.0  0.46145  0.00269  0.88339  1.0000
  P   P7        1.0  0.48401  0.04726  0.67366  1.0000
  C   C200      1.0  0.44016  0.04282  0.87733  1.0000
  S   S27       1.0  0.27238  0.06459  0.54484  1.0000
  C   C201      1.0  0.48373  0.08216  0.73132  1.0000
  H   H164      1.0  0.25349  0.12419  0.91587  1.0000
  S   S28       1.0  0.22193  0.04636  0.51190  1.0000
  Fe  Fe15      1.0  0.22231  0.06671  0.54101  1.0000
  S   S29       1.0  0.18934  0.06854  0.58224  1.0000
  H   H165      1.0  0.39891  0.00768  0.72051  1.0000
  C   C202      1.0  0.24711  0.14809  0.92058  1.0000
  C   C203      1.0  0.47080  0.13775  0.51244  1.0000
  S   S30       1.0  0.21418  0.09724  0.96280  1.0000
  Fe  Fe16      1.0  0.14167  0.12086  0.72755  1.0000
  S   S31       1.0  0.11130  0.14168  0.73664  1.0000
  S   S32       1.0  0.16529  0.12004  0.67983  1.0000
  Fe  Fe17      1.0  0.13878  0.10958  0.79598  1.0000
  S   S33       1.0  0.10822  0.12928  0.80932  1.0000
  S   S34       1.0  0.15523  0.09068  0.83097  1.0000
  Fe  Fe18      1.0  0.08311  0.12645  0.76560  1.0000
  S   S35       1.0  0.03306  0.13372  0.76974  1.0000
  Fe  Fe19      1.0  0.13803  0.14318  0.77953  1.0000
  S   S36       1.0  0.14780  0.16500  0.80031  1.0000
  S   S37       1.0  0.11166  0.10534  0.75388  1.0000
  S   S38       1.0  0.17050  0.12361  0.76889  1.0000
  C   C204      1.0  0.17015  0.17773  0.78031  1.0000
  C   C205      1.0  0.17096  0.19216  0.79121  1.0000
  C   C206      1.0  0.18920  0.20252  0.77658  1.0000
  C   C207      1.0  0.20654  0.19851  0.75065  1.0000
  C   C208      1.0  0.20609  0.18397  0.74002  1.0000
  C   C209      1.0  0.18781  0.17362  0.75466  1.0000
  H   H166      1.0  0.15699  0.19541  0.81073  1.0000
  H   H167      1.0  0.21974  0.18073  0.72017  1.0000
  H   H168      1.0  0.18745  0.16248  0.74616  1.0000
  C   C210      1.0  0.17147  0.09297  0.86751  1.0000
  C   C211      1.0  0.17065  0.10690  0.88091  1.0000
  C   C212      1.0  0.18371  0.10806  0.91012  1.0000
  C   C213      1.0  0.19714  0.09528  0.92652  1.0000
  C   C214      1.0  0.19733  0.08134  0.91340  1.0000
  C   C215      1.0  0.18500  0.08025  0.88390  1.0000
  H   H169      1.0  0.16000  0.11676  0.86874  1.0000
  H   H170      1.0  0.18327  0.11890  0.92013  1.0000
  H   H171      1.0  0.20757  0.07143  0.92569  1.0000
  H   H172      1.0  0.18591  0.06946  0.87369  1.0000
  C   C216      1.0  0.18338  0.08292  0.60935  1.0000
  C   C217      1.0  0.16280  0.08111  0.63407  1.0000
  C   C218      1.0  0.15703  0.09227  0.65589  1.0000
  C   C219      1.0  0.17175  0.10545  0.65324  1.0000
  C   C220      1.0  0.19230  0.10727  0.62850  1.0000
  C   C221      1.0  0.19818  0.09608  0.60677  1.0000
  H   H173      1.0  0.15112  0.07103  0.63625  1.0000
  H   H174      1.0  0.14092  0.09074  0.67450  1.0000
  H   H175      1.0  0.20375  0.11742  0.62608  1.0000
  H   H176      1.0  0.21398  0.09769  0.58788  1.0000
  C   C222      1.0  0.38706  0.00406  0.95527  1.0000
  P   P8        1.0  0.27821  0.18212  0.86454  1.0000
  C   C223      1.0  0.34344  0.02865  0.95120  1.0000
  C   C224      1.0  0.36586  0.02692  0.92829  1.0000
  C   C225      1.0  0.38773  0.01474  0.93040  1.0000
  C   C226      1.0  0.49241  0.08750  0.97704  1.0000
  H   H177      1.0  0.40486  0.01354  0.91261  1.0000
  C   C227      1.0  0.38752  0.02201  0.57245  1.0000
  C   C228      1.0  0.36891  0.03539  0.56931  1.0000
  C   C229      1.0  0.34291  0.03614  0.55151  1.0000
  C   C230      1.0  0.33499  0.02342  0.53724  1.0000
  C   C231      1.0  0.35375  0.01005  0.54023  1.0000
  C   C232      1.0  0.38015  0.00942  0.55745  1.0000
  H   H178      1.0  0.37439  0.04517  0.58091  1.0000
  H   H179      1.0  0.32887  0.04652  0.54912  1.0000
  S   S39       1.0  0.41405  0.98856  0.95852  1.0000
  H   H180      1.0  0.23291  0.14707  0.94109  1.0000
  C   C233      1.0  0.25879  0.13517  0.90637  1.0000
  C   C234      1.0  0.07063  0.21408  0.68659  1.0000
  H   H181      1.0  0.26967  0.18725  0.74990  1.0000
  H   H182      1.0  0.36625  0.03500  0.90873  1.0000
  C   C235      1.0  0.17188  0.03857  0.86170  1.0000
  C   C236      1.0  0.18981  0.19788  0.86493  1.0000
  H   H183      1.0  0.16872  0.03711  0.83722  1.0000
  H   H184      1.0  0.04456  0.21085  0.61358  1.0000
  C   C237      1.0  0.40586  0.06100  0.90215  1.0000
  C   C238      1.0  0.15155  0.04577  0.91196  1.0000
  C   C239      1.0  0.21875  0.09461  0.72156  1.0000
  C   C240      1.0  0.19683  0.08517  0.73134  1.0000
  C   C241      1.0  0.19535  0.07989  0.76239  1.0000
  C   C242      1.0  0.21600  0.08390  0.78363  1.0000
  C   C243      1.0  0.23834  0.09322  0.77388  1.0000
  C   C244      1.0  0.23918  0.09881  0.74282  1.0000
  P   P9        1.0  0.26347  0.09953  0.80150  1.0000
  C   C245      1.0  0.24995  0.11872  0.80777  1.0000
  C   C246      1.0  0.26471  0.08743  0.83651  1.0000
  C   C247      1.0  0.26177  0.09332  0.86603  1.0000
  C   C248      1.0  0.26439  0.08377  0.89278  1.0000
  C   C249      1.0  0.26978  0.06829  0.89034  1.0000
  C   C250      1.0  0.27306  0.06232  0.86110  1.0000
  C   C251      1.0  0.27070  0.07185  0.83425  1.0000
  C   C252      1.0  0.26315  0.13072  0.79209  1.0000
  C   C253      1.0  0.25103  0.14550  0.79519  1.0000
  C   C254      1.0  0.22562  0.14841  0.81378  1.0000
  C   C255      1.0  0.21207  0.13652  0.82896  1.0000
  C   C256      1.0  0.22395  0.12173  0.82562  1.0000
  C   C257      1.0  0.30137  0.09805  0.78682  1.0000
  C   C258      1.0  0.30998  0.08856  0.76274  1.0000
  C   C259      1.0  0.33970  0.08710  0.75237  1.0000
  C   C260      1.0  0.36108  0.09490  0.76627  1.0000
  C   C261      1.0  0.35279  0.10410  0.79072  1.0000
  C   C262      1.0  0.32307  0.10560  0.80111  1.0000
  H   H185      1.0  0.21928  0.09902  0.69762  1.0000
  H   H186      1.0  0.18054  0.08226  0.71500  1.0000
  H   H187      1.0  0.17761  0.07307  0.77028  1.0000
  H   H188      1.0  0.21379  0.08008  0.80777  1.0000
  H   H189      1.0  0.25528  0.10658  0.73507  1.0000
  H   H190      1.0  0.25715  0.10520  0.86869  1.0000
  H   H191      1.0  0.26130  0.08830  0.91554  1.0000
  H   H192      1.0  0.27114  0.06092  0.91117  1.0000
  H   H193      1.0  0.27748  0.05030  0.85936  1.0000
  H   H194      1.0  0.27346  0.06708  0.81171  1.0000
  H   H195      1.0  0.28206  0.12869  0.77656  1.0000
  H   H196      1.0  0.26070  0.15469  0.78240  1.0000
  H   H197      1.0  0.21576  0.15981  0.81554  1.0000
  H   H198      1.0  0.19155  0.13875  0.84220  1.0000
  H   H199      1.0  0.21229  0.11258  0.83601  1.0000
  H   H200      1.0  0.29393  0.08214  0.75212  1.0000
  H   H201      1.0  0.34613  0.07981  0.73367  1.0000
  H   H202      1.0  0.38410  0.09370  0.75827  1.0000
  H   H203      1.0  0.36942  0.10999  0.80179  1.0000
  H   H204      1.0  0.31700  0.11255  0.82042  1.0000
  C   C263      1.0  0.18009  0.04272  0.92467  1.0000
  C   C264      1.0  0.49319  0.05912  0.70407  1.0000
  C   C265      1.0  0.21616  0.18839  0.86446  1.0000
  C   C266      1.0  0.24403  0.19435  0.86526  1.0000
  C   C267      1.0  0.29184  0.18085  0.82501  1.0000
  C   C268      1.0  0.27292  0.18475  0.79978  1.0000
  H   H205      1.0  0.24961  0.18849  0.80336  1.0000
  P   P10       1.0  0.41244  0.07006  0.96284  1.0000
  C   C269      1.0  0.21865  0.21949  0.86439  1.0000
  C   C270      1.0  0.32199  0.17617  0.81931  1.0000
  C   C271      1.0  0.09273  0.01038  0.95506  1.0000
  H   H206      1.0  0.49171  0.20585  0.96480  1.0000
  H   H207      1.0  0.42401  0.03717  0.97657  1.0000
  H   H208      1.0  0.44868  0.04563  0.73257  1.0000
  C   C272      1.0  0.36855  0.11180  0.94563  1.0000
  H   H209      1.0  0.31684  0.20637  0.84939  1.0000
  H   H210      1.0  0.16843  0.19312  0.86480  1.0000
  H   H211      1.0  0.33700  0.17319  0.83845  1.0000
  H   H212      1.0  0.35560  0.21716  0.87847  1.0000
  C   C273      1.0  0.33565  0.19086  0.93319  1.0000
  C   C274      1.0  0.46965  0.08041  0.96360  1.0000
  H   H213      1.0  0.32275  0.17926  0.74020  1.0000
  C   C275      1.0  0.35495  0.08186  0.94700  1.0000
  S   S40       1.0  0.28719  0.07622  0.99301  1.0000
  C   C276      1.0  0.10921  0.21457  0.77260  1.0000
  C   C277      1.0  0.44315  0.03678  0.71819  1.0000
  C   C278      1.0  0.11224  0.06986  0.50075  1.0000
  H   H214      1.0  0.21923  0.03233  0.85985  1.0000
  H   H215      1.0  0.03477  0.08842  0.86196  1.0000
  H   H216      1.0  0.34277  0.14363  0.50750  1.0000
  C   C279      1.0  0.39340  0.07553  0.51752  1.0000
  C   C280      1.0  0.19102  0.21343  0.86467  1.0000
  C   C281      1.0  0.37980  0.20098  0.57305  1.0000
  C   C282      1.0  0.27133  0.16368  0.88126  1.0000
  H   H217      1.0  0.42220  0.00454  0.66833  1.0000
  C   C283      1.0  0.42403  0.06013  0.92849  1.0000
  H   H218      1.0  0.26603  0.21502  0.86428  1.0000
  C   C284      1.0  0.46684  0.05387  0.51020  1.0000
  C   C285      1.0  0.14484  0.08756  0.98430  1.0000
  H   H219      1.0  0.47277  0.07686  0.94011  1.0000
  C   C286      1.0  0.42714  0.18207  0.55045  1.0000
  C   C287      1.0  0.46999  0.98370  0.77049  1.0000
  C   C288      1.0  0.39080  0.10024  0.95240  1.0000
  C   C289      1.0  0.03691  0.19724  0.74327  1.0000
  H   H220      1.0  0.38855  0.97417  0.57714  1.0000
  Fe  Fe20      1.0  0.28573  0.05164  0.98631  1.0000
  C   C290      1.0  0.41398  0.05242  0.87668  1.0000
  Fe  Fe21      1.0  0.45347  0.00124  0.59533  1.0000
  Fe  Fe22      1.0  0.46872  0.98312  0.85285  1.0000
  C   C291      1.0  0.14612  0.05636  0.99323  1.0000
  C   C292      1.0  0.10961  0.21641  0.74000  1.0000
  C   C293      1.0  0.28415  0.18405  0.76935  1.0000
  P   P11       1.0  0.09214  0.20349  0.71663  1.0000
  C   C294      1.0  0.12022  0.19103  0.69819  1.0000
  H   H221      1.0  0.30211  0.17562  0.92807  1.0000
  C   C295      1.0  0.33309  0.17551  0.78883  1.0000
  C   C296      1.0  0.44564  0.14808  0.51075  1.0000
  C   C297      1.0  0.42525  0.13618  0.55727  1.0000
  Fe  Fe23      1.0  0.50225  0.98310  0.63291  1.0000
  H   H222      1.0  0.41266  0.02808  0.75259  1.0000
  C   C298      1.0  0.14876  0.19561  0.69087  1.0000
  C   C299      1.0  0.16990  0.18607  0.67575  1.0000
  C   C300      1.0  0.16306  0.17175  0.66845  1.0000
  C   C301      1.0  0.13477  0.16710  0.67554  1.0000
  C   C302      1.0  0.11332  0.17673  0.69003  1.0000
  C   C303      1.0  0.06752  0.19267  0.74071  1.0000
  H   H223      1.0  0.40802  0.13538  0.57497  1.0000
  H   H224      1.0  0.46399  0.04912  0.94931  1.0000
  C   C304      1.0  0.02960  0.17536  0.77740  1.0000
  C   C305      1.0  0.06009  0.17095  0.77544  1.0000
  C   C306      1.0  0.07902  0.17963  0.75744  1.0000
  C   C307      1.0  0.42811  0.01349  0.68239  1.0000
  H   H225      1.0  0.30311  0.13040  0.53390  1.0000
  H   H226      1.0  0.37368  0.12340  0.94590  1.0000
  H   H227      1.0  0.38023  0.11231  0.53354  1.0000
  P   P12       1.0  0.12031  0.05245  0.93603  1.0000
  H   H228      1.0  0.32224  0.11735  0.93455  1.0000
  C   C308      1.0  0.43265  0.19559  0.56324  1.0000
  C   C309      1.0  0.14754  0.04339  0.88040  1.0000
  C   C310      1.0  0.05090  0.08157  0.87616  1.0000
  H   H229      1.0  0.15516  0.20640  0.69709  1.0000
  H   H230      1.0  0.19196  0.18966  0.67056  1.0000
  H   H231      1.0  0.17973  0.16416  0.65761  1.0000
  H   H232      1.0  0.12967  0.15589  0.67012  1.0000
  H   H233      1.0  0.09147  0.17289  0.69506  1.0000
  C   C311      1.0  0.45829  0.04182  0.90343  1.0000
  C   C312      1.0  0.40903  0.20505  0.57444  1.0000
  C   C313      1.0  0.10364  0.03653  0.95452  1.0000
  H   H234      1.0  0.06907  0.16066  0.78766  1.0000
  H   H235      1.0  0.10264  0.17605  0.75635  1.0000
  C   C314      1.0  0.45551  0.98349  0.74198  1.0000
  C   C315      1.0  0.20439  0.03790  0.90593  1.0000
  H   H236      1.0  0.39459  0.99917  0.55962  1.0000
  C   C316      1.0  0.36449  0.00572  0.97813  1.0000
  C   C317      1.0  0.42252  0.14732  0.53295  1.0000
  C   C318      1.0  0.33293  0.09344  0.93974  1.0000
  P   P13       1.0  0.39028  0.16090  0.53068  1.0000
  C   C319      1.0  0.35901  0.15238  0.54940  1.0000
  C   C320      1.0  0.39785  0.17782  0.54916  1.0000
  C   C321      1.0  0.37417  0.18743  0.56044  1.0000
  H   H237      1.0  0.38506  0.06799  0.90129  1.0000
  Fe  Fe24      1.0  0.45048  0.98592  0.92153  1.0000
  C   C322      1.0  0.35447  0.15297  0.58168  1.0000
  C   C323      1.0  0.33137  0.14566  0.59650  1.0000
  C   C324      1.0  0.31287  0.13755  0.57930  1.0000
  C   C325      1.0  0.31729  0.13685  0.54724  1.0000
  C   C326      1.0  0.34007  0.14432  0.53231  1.0000
  H   H238      1.0  0.06559  0.07428  0.51188  1.0000
  C   C327      1.0  0.31417  0.17950  0.76386  1.0000
  H   H239      1.0  0.44373  0.08251  0.56564  1.0000
  C   C328      1.0  0.08139  0.08256  0.87069  1.0000
  C   C329      1.0  0.50121  0.98276  0.77086  1.0000
  S   S41       1.0  0.46625  0.98982  0.55177  1.0000
  H   H240      1.0  0.11953  0.07759  0.51702  1.0000
  C   C330      1.0  0.45081  0.07612  0.58672  1.0000
  H   H241      1.0  0.21459  0.17642  0.86333  1.0000
  H   H242      1.0  0.02398  0.10701  0.73529  1.0000
  H   H243      1.0  0.07498  0.19647  0.65377  1.0000
  C   C331      1.0  0.13385  0.07914  0.96137  1.0000
  S   S42       1.0  0.41935  0.02133  0.59593  1.0000
  H   H244      1.0  0.34918  0.07032  0.94791  1.0000
  H   H245      1.0  0.36901  0.15892  0.59548  1.0000
  H   H246      1.0  0.32789  0.14617  0.62138  1.0000
  H   H247      1.0  0.29512  0.13175  0.59075  1.0000
  H   H248      1.0  0.11850  0.02109  0.91928  1.0000
  C   C332      1.0  0.37944  0.08846  0.52997  1.0000
  H   H249      1.0  0.14533  0.09960  0.98043  1.0000
  C   C333      1.0  0.06218  0.06290  0.91820  1.0000
  H   H250      1.0  0.22645  0.03587  0.91586  1.0000
  C   C334      1.0  0.27703  0.13644  0.87988  1.0000
  C   C335      1.0  0.04815  0.21578  0.63547  1.0000
  C   C336      1.0  0.10615  0.02259  0.94084  1.0000
  S   S43       1.0  0.22848  0.21138  0.73038  1.0000
  S   S44       1.0  0.49783  0.98168  0.93776  1.0000
  C   C337      1.0  0.28321  0.15061  0.86730  1.0000
  H   H251      1.0  0.47869  0.03317  0.57804  1.0000
  H   H252      1.0  0.48903  0.08852  0.59281  1.0000
  C   C338      1.0  0.24501  0.21001  0.86472  1.0000
  C   C339      1.0  0.30644  0.19009  0.88641  1.0000
  Fe  Fe25      1.0  0.23719  0.07743  0.99151  1.0000
  C   C340      1.0  0.06552  0.20768  0.65832  1.0000
  H   H253      1.0  0.31049  0.09077  0.93513  1.0000
  H   H254      1.0  0.43858  0.04146  0.54168  1.0000
  H   H255      1.0  0.05420  0.05544  0.93648  1.0000
  C   C341      1.0  0.31352  0.18464  0.91683  1.0000
  C   C342      1.0  0.45034  0.12576  0.55875  1.0000
  H   H256      1.0  0.35892  0.08783  0.54347  1.0000
  C   C343      1.0  0.20033  0.03590  0.87442  1.0000
  S   S45       1.0  0.31607  0.04388  0.94682  1.0000
  H   H257      1.0  0.35133  0.18459  0.55899  1.0000
  H   H258      1.0  0.41294  0.10321  0.95748  1.0000
  H   H259      1.0  0.32551  0.01928  0.99390  1.0000
  H   H260      1.0  0.02640  0.13920  0.69382  1.0000
  C   C344      1.0  0.48963  0.19762  0.50249  1.0000
  C   C345      1.0  0.35087  0.20254  0.91937  1.0000
  C   C346      1.0  0.45654  0.03500  0.68871  1.0000
  H   H261      1.0  0.12571  0.04543  0.87007  1.0000
  H   H262      1.0  0.08901  0.09017  0.85229  1.0000
  C   C347      1.0  0.34405  0.20798  0.88912  1.0000
  C   C348      1.0  0.47734  0.07319  0.70712  1.0000
  H   H263      1.0  0.34779  0.00018  0.52927  1.0000
  C   C349      1.0  0.50570  0.07708  0.75284  1.0000
  H   H264      1.0  0.44579  0.17518  0.54112  1.0000
  C   C350      1.0  0.48363  0.04012  0.55760  1.0000
  S   S46       1.0  0.30224  0.02397  0.51502  1.0000
  C   C351      1.0  0.47305  0.12651  0.53625  1.0000
  H   H265      1.0  0.36157  0.20845  0.58159  1.0000
  C   C352      1.0  0.01807  0.18863  0.76172  1.0000
  H   H266      1.0  0.35645  0.17215  0.78455  1.0000
  C   C353      1.0  0.47631  0.07949  0.60204  1.0000
  C   C354      1.0  0.09290  0.06379  0.91272  1.0000
  C   C355      1.0  0.10225  0.07374  0.88890  1.0000
  C   C356      1.0  0.39140  0.10227  0.52430  1.0000
  C   C357      1.0  0.04130  0.07176  0.89994  1.0000
  H   H267      1.0  0.36786  0.20744  0.93213  1.0000
  C   C358      1.0  0.32197  0.20182  0.87271  1.0000
  C   C359      1.0  0.42255  0.02690  0.72964  1.0000
  H   H268      1.0  0.45211  0.11704  0.57722  1.0000
  H   H269      1.0  0.45530  0.19886  0.56403  1.0000
  H   H270      1.0  0.24407  0.17219  0.91947  1.0000
  H   H271      1.0  0.28605  0.12645  0.86878  1.0000
  C   C360      1.0  0.44302  0.07830  0.98026  1.0000
  H   H272      1.0  0.39950  0.05287  0.85679  1.0000
  C   C361      1.0  0.33960  0.10840  0.93932  1.0000
  H   H273      1.0  0.18379  0.04421  0.94895  1.0000
  C   C362      1.0  0.46085  0.04486  0.53684  1.0000
  H   H274      1.0  0.09949  0.20510  0.78430  1.0000
  H   H275      1.0  0.12571  0.07468  0.88433  1.0000
  C   C363      1.0  0.41487  0.01533  0.71165  1.0000
  H   H276      1.0  0.43131  0.04660  0.63308  1.0000
  C   C364      1.0  0.34282  0.01805  0.97624  1.0000
  Fe  Fe26      1.0  0.27218  0.04575  0.51250  1.0000
  C   C365      1.0  0.50315  0.98129  0.71436  1.0000
  H   H277      1.0  0.44608  0.03587  0.85794  1.0000
  C   C366      1.0  0.25343  0.16229  0.90821  1.0000
  H   H278      1.0  0.01762  0.07103  0.90419  1.0000
  C   C367      1.0  0.38414  0.08514  0.95324  1.0000
  C   C368      1.0  0.45025  0.05040  0.92887  1.0000
  H   H279      1.0  0.41335  0.21563  0.58397  1.0000
  H   H280      1.0  0.46053  0.98212  0.69230  1.0000
  H   H281      1.0  0.34102  0.18665  0.95665  1.0000
  H   H282      1.0  0.50570  0.07369  0.64031  1.0000
  S   S47       1.0  0.45423  0.97972  0.62489  1.0000
  C   C369      1.0  0.48576  0.07100  0.62885  1.0000
  C   C370      1.0  0.13421  0.06346  0.96572  1.0000
  C   C371      1.0  0.40777  0.04173  0.99300  1.0000
  H   H283      1.0  0.01504  0.16835  0.79092  1.0000
  C   C372      1.0  0.47198  0.98236  0.71403  1.0000
  H   H284      1.0  0.12575  0.08493  0.94012  1.0000
  S   S48       1.0  0.44814  0.98499  0.80492  1.0000
  C   C373      1.0  0.08688  0.03817  0.98217  1.0000
  H   H285      1.0  0.45986  0.07717  0.69099  1.0000
  C   C374      1.0  0.44918  0.02313  0.67121  1.0000
  S   S49       1.0  0.23578  0.05308  0.98229  1.0000
  H   H286      1.0  0.41500  0.06162  0.58637  1.0000
  C   C375      1.0  0.43463  0.06435  0.59837  1.0000
  H   H287      1.0  0.02750  0.20735  0.73098  1.0000
  C   C376      1.0  0.44419  0.05573  0.62496  1.0000
  H   H288      1.0  0.45945  0.02144  0.64864  1.0000
  H   H289      1.0  0.02923  0.16540  0.70815  1.0000
  S   S50       1.0  0.50046  0.00554  0.60677  1.0000
  H   H290      1.0  0.43140  0.98410  0.74156  1.0000
  H   H291      1.0  0.47152  0.09304  0.73344  1.0000
  H   H292      1.0  0.49234  0.11834  0.53695  1.0000
  C   C377      1.0  0.39742  0.05704  0.99144  1.0000
  H   H293      1.0  0.40744  0.97833  0.52345  1.0000
  C   C378      1.0  0.47008  0.05886  0.64029  1.0000
  H   H294      1.0  0.38400  0.06490  0.52270  1.0000
  H   H295      1.0  0.47816  0.03403  0.90423  1.0000
  H   H296      1.0  0.42641  0.11385  0.50147  1.0000
  H   H297      1.0  0.14741  0.04425  0.99698  1.0000
  H   H298      1.0  0.49586  0.18021  0.99009  1.0000
  H   H299      1.0  0.17062  0.22080  0.86430  1.0000
  C   C379      1.0  0.07652  0.01204  0.98284  1.0000
  C   C380      1.0  0.49550  0.05887  0.50569  1.0000
  H   H300      1.0  0.35040  0.22164  0.50112  1.0000
  C   C381      1.0  0.00659  0.14703  0.69274  1.0000
  C   C382      1.0  0.00814  0.16183  0.70086  1.0000
  H   H301      1.0  0.08417  0.04891  0.99281  1.0000
  C   C383      1.0  0.41727  0.10315  0.50603  1.0000
  H   H302      1.0  0.36384  0.99749  0.99740  1.0000
  H   H303      1.0  0.06618  0.00257  0.99388  1.0000
  C   C384      1.0  0.07355  0.02594  0.99635  1.0000
  H   H304      1.0  0.12205  0.22321  0.81562  1.0000
  H   H305      1.0  0.14456  0.99882  0.49933  1.0000
  Fe  Fe27      1.0  0.27209  0.07935  0.50083  1.0000
  S   S51       1.0  0.22192  0.08286  0.49911  1.0000
  H   H306      1.0  0.12658  0.44534  0.06156  1.0000
  S   S52       1.0  0.41184  0.27207  0.26356  1.0000
  C   C385      1.0  0.04474  0.47357  0.45612  1.0000
  C   C386      1.0  0.01673  0.33203  0.22331  1.0000
  C   C387      1.0  0.16769  0.44421  0.08701  1.0000
  H   H307      1.0  0.48379  0.26898  0.40344  1.0000
  Fe  Fe28      1.0  0.45460  0.28414  0.25735  1.0000
  S   S53       1.0  0.44479  0.30886  0.25489  1.0000
  C   C388      1.0  0.01643  0.33860  0.29106  1.0000
  H   H308      1.0  0.14051  0.46600  0.02472  1.0000
  S   S54       1.0  0.05997  0.30502  0.41857  1.0000
  H   H309      1.0  0.43178  0.24716  0.45207  1.0000
  H   H310      1.0  0.20324  0.38399  0.16904  1.0000
  H   H311      1.0  0.37437  0.44015  0.33902  1.0000
  H   H312      1.0  0.50033  0.24888  0.29920  1.0000
  C   C389      1.0  0.22546  0.44076  0.40615  1.0000
  C   C390      1.0  0.21381  0.43113  0.26108  1.0000
  S   S55       1.0  0.05455  0.31049  0.12046  1.0000
  C   C391      1.0  0.39190  0.25191  0.37583  1.0000
  H   H313      1.0  0.23845  0.46436  0.27956  1.0000
  H   H314      1.0  0.27732  0.43661  0.15239  1.0000
  S   S56       1.0  0.35209  0.44305  0.27088  1.0000
  H   H315      1.0  0.23109  0.39403  0.32514  1.0000
  C   C392      1.0  0.02924  0.33725  0.32072  1.0000
  S   S57       1.0  0.36231  0.45846  0.20117  1.0000
  H   H316      1.0  0.07048  0.28370  0.47913  1.0000
  Fe  Fe29      1.0  0.32913  0.44417  0.22517  1.0000
  S   S58       1.0  0.31551  0.42417  0.20059  1.0000
  H   H317      1.0  0.24872  0.43667  0.40795  1.0000
  H   H318      1.0  0.34173  0.32241  0.45607  1.0000
  S   S59       1.0  0.48194  0.31686  0.33802  1.0000
  C   C393      1.0  0.38600  0.32805  0.31510  1.0000
  Fe  Fe30      1.0  0.23892  0.31864  0.25956  1.0000
  S   S60       1.0  0.23018  0.33449  0.29804  1.0000
  S   S61       1.0  0.27368  0.29816  0.26492  1.0000
  Fe  Fe31      1.0  0.19103  0.33568  0.21855  1.0000
  S   S62       1.0  0.18073  0.35306  0.25357  1.0000
  S   S63       1.0  0.16728  0.33995  0.17208  1.0000
  Fe  Fe32      1.0  0.22986  0.35279  0.26024  1.0000
  S   S64       1.0  0.24898  0.37375  0.27596  1.0000
  Fe  Fe33      1.0  0.18115  0.33388  0.28940  1.0000
  S   S65       1.0  0.14598  0.34029  0.32655  1.0000
  S   S66       1.0  0.24100  0.33702  0.22196  1.0000
  S   S67       1.0  0.18916  0.31624  0.25379  1.0000
  C   C394      1.0  0.29643  0.41033  0.22135  1.0000
  C   C395      1.0  0.28978  0.41144  0.25295  1.0000
  C   C396      1.0  0.27539  0.40005  0.26925  1.0000
  C   C397      1.0  0.26713  0.38758  0.25407  1.0000
  C   C398      1.0  0.27368  0.38646  0.22241  1.0000
  C   C399      1.0  0.28834  0.39783  0.20610  1.0000
  H   H319      1.0  0.29598  0.42101  0.26487  1.0000
  H   H320      1.0  0.27082  0.40089  0.29379  1.0000
  H   H321      1.0  0.26751  0.37686  0.21056  1.0000
  H   H322      1.0  0.29348  0.39694  0.18161  1.0000
  C   C400      1.0  0.08434  0.31948  0.13610  1.0000
  C   C401      1.0  0.09473  0.33244  0.12157  1.0000
  C   C402      1.0  0.11984  0.33863  0.13318  1.0000
  C   C403      1.0  0.13461  0.33213  0.15975  1.0000
  C   C404      1.0  0.12366  0.31944  0.17492  1.0000
  C   C405      1.0  0.09877  0.31311  0.16303  1.0000
  H   H323      1.0  0.08390  0.33748  0.10087  1.0000
  H   H324      1.0  0.12806  0.34843  0.12125  1.0000
  H   H325      1.0  0.13489  0.31426  0.19523  1.0000
  H   H326      1.0  0.09095  0.30309  0.17446  1.0000
  C   C406      1.0  0.12118  0.33017  0.35049  1.0000
  C   C407      1.0  0.12048  0.31458  0.35014  1.0000
  C   C408      1.0  0.10126  0.30708  0.37078  1.0000
  C   C409      1.0  0.08244  0.31506  0.39178  1.0000
  C   C410      1.0  0.08267  0.33067  0.39158  1.0000
  C   C411      1.0  0.10193  0.33816  0.37105  1.0000
  H   H327      1.0  0.13502  0.30831  0.33433  1.0000
  H   H328      1.0  0.10120  0.29500  0.37071  1.0000
  H   H329      1.0  0.06846  0.33694  0.40770  1.0000
  H   H330      1.0  0.10225  0.35022  0.37147  1.0000
  C   C412      1.0  0.35422  0.26141  0.18884  1.0000
  H   H331      1.0  0.42979  0.30073  0.46928  1.0000
  H   H332      1.0  0.02511  0.30727  0.29698  1.0000
  C   C413      1.0  0.47095  0.30434  0.13203  1.0000
  H   H333      1.0  0.14384  0.39026  0.39622  1.0000
  H   H334      1.0  0.35673  0.25961  0.27731  1.0000
  H   H335      1.0  0.40128  0.24295  0.28802  1.0000
  H   H336      1.0  0.39376  0.33169  0.20147  1.0000
  C   C414      1.0  0.39673  0.40165  0.27409  1.0000
  C   C415      1.0  0.35293  0.34853  0.25941  1.0000
  H   H337      1.0  0.19714  0.39037  0.11268  1.0000
  C   C416      1.0  0.45991  0.29942  0.07778  1.0000
  H   H338      1.0  0.33597  0.27621  0.02530  1.0000
  H   H339      1.0  0.25958  0.46411  0.14681  1.0000
  C   C417      1.0  0.15566  0.46163  0.04302  1.0000
  H   H340      1.0  0.40133  0.28922  0.37731  1.0000
  C   C418      1.0  0.20717  0.41340  0.11581  1.0000
  H   H341      1.0  0.48638  0.28374  0.35358  1.0000
  H   H342      1.0  0.45215  0.24900  0.05445  1.0000
  C   C419      1.0  0.40753  0.30074  0.46012  1.0000
  H   H343      1.0  0.41565  0.45405  0.31625  1.0000
  C   C420      1.0  0.18369  0.45658  0.42585  1.0000
  H   H344      1.0  0.20403  0.37122  0.32765  1.0000
  H   H345      1.0  0.22740  0.45440  0.44578  1.0000
  C   C421      1.0  0.31283  0.29226  0.26371  1.0000
  C   C422      1.0  0.33556  0.30179  0.25614  1.0000
  C   C423      1.0  0.36611  0.29600  0.25599  1.0000
  C   C424      1.0  0.37418  0.28067  0.26368  1.0000
  C   C425      1.0  0.35128  0.27138  0.27129  1.0000
  C   C426      1.0  0.32117  0.27706  0.27116  1.0000
  H   H346      1.0  0.32964  0.31356  0.25040  1.0000
  H   H347      1.0  0.38319  0.30341  0.24974  1.0000
  H   H348      1.0  0.30406  0.26955  0.27715  1.0000
  C   C427      1.0  0.47782  0.28582  0.07980  1.0000
  H   H349      1.0  0.03463  0.45058  0.45267  1.0000
  S   S68       1.0  0.49237  0.28378  0.29109  1.0000
  Fe  Fe34      1.0  0.02327  0.32165  0.08311  1.0000
  C   C428      1.0  0.40328  0.33745  0.37239  1.0000
  C   C429      1.0  0.48159  0.28816  0.43171  1.0000
  C   C430      1.0  0.48329  0.28107  0.40337  1.0000
  C   C431      1.0  0.48444  0.28955  0.37470  1.0000
  H   H350      1.0  0.40453  0.24032  0.07355  1.0000
  H   H351      1.0  0.16965  0.45138  0.15883  1.0000
  S   S69       1.0  0.43337  0.45068  0.25248  1.0000
  C   C432      1.0  0.21423  0.40615  0.17937  1.0000
  S   S70       1.0  0.48530  0.27424  0.04746  1.0000
  H   H352      1.0  0.41660  0.34653  0.14284  1.0000
  H   H353      1.0  0.16029  0.36922  0.36290  1.0000
  S   S71       1.0  0.29594  0.46291  0.32712  1.0000
  H   H354      1.0  0.40747  0.32022  0.13827  1.0000
  H   H355      1.0  0.30411  0.39709  0.41795  1.0000
  C   C433      1.0  0.20628  0.39528  0.15971  1.0000
  C   C434      1.0  0.26084  0.41690  0.36308  1.0000
  C   C435      1.0  0.26845  0.40822  0.39035  1.0000
  C   C436      1.0  0.29780  0.27523  0.41192  1.0000
  C   C437      1.0  0.42980  0.25911  0.33865  1.0000
  H   H356      1.0  0.14278  0.45697  0.40069  1.0000
  H   H357      1.0  0.38309  0.35920  0.35750  1.0000
  C   C438      1.0  0.20285  0.39890  0.12794  1.0000
  C   C439      1.0  0.48310  0.30532  0.37368  1.0000
  H   H358      1.0  0.01426  0.28321  0.21173  1.0000
  Fe  Fe35      1.0  0.02248  0.31529  0.44934  1.0000
  H   H359      1.0  0.24974  0.27854  0.41023  1.0000
  H   H360      1.0  0.34621  0.24869  0.11698  1.0000
  H   H361      1.0  0.05506  0.28396  0.31365  1.0000
  C   C440      1.0  0.35652  0.25605  0.44257  1.0000
  H   H362      1.0  0.44582  0.25633  0.32034  1.0000
  H   H363      1.0  0.34408  0.40444  0.38105  1.0000
  H   H364      1.0  0.40624  0.30634  0.33017  1.0000
  H   H365      1.0  0.48543  0.24658  0.44118  1.0000
  C   C441      1.0  0.21944  0.43189  0.31698  1.0000
  C   C442      1.0  0.37080  0.25534  0.47142  1.0000
  C   C443      1.0  0.29839  0.40377  0.39684  1.0000
  C   C444      1.0  0.32090  0.40790  0.37607  1.0000
  H   H366      1.0  0.17030  0.41325  0.39381  1.0000
  C   C445      1.0  0.37444  0.33667  0.21379  1.0000
  C   C446      1.0  0.45706  0.30873  0.10344  1.0000
  C   C447      1.0  0.37791  0.34248  0.24283  1.0000
  C   C448      1.0  0.32279  0.35814  0.31767  1.0000
  C   C449      1.0  0.31133  0.37205  0.32834  1.0000
  C   C450      1.0  0.28533  0.37300  0.34666  1.0000
  C   C451      1.0  0.27086  0.36013  0.35489  1.0000
  C   C452      1.0  0.28244  0.34623  0.34479  1.0000
  C   C453      1.0  0.30810  0.34524  0.32597  1.0000
  C   C454      1.0  0.35702  0.38521  0.27023  1.0000
  C   C455      1.0  0.21547  0.45619  0.15008  1.0000
  H   H367      1.0  0.02483  0.45815  0.02871  1.0000
  C   C456      1.0  0.34616  0.33741  0.20064  1.0000
  H   H368      1.0  0.40006  0.34209  0.25252  1.0000
  H   H369      1.0  0.32215  0.38218  0.32255  1.0000
  H   H370      1.0  0.27605  0.38378  0.35392  1.0000
  H   H371      1.0  0.25044  0.36095  0.36866  1.0000
  H   H372      1.0  0.27119  0.33624  0.35108  1.0000
  H   H373      1.0  0.31661  0.33439  0.31804  1.0000
  H   H374      1.0  0.33540  0.38328  0.26124  1.0000
  H   H375      1.0  0.35620  0.40761  0.24888  1.0000
  C   C457      1.0  0.36860  0.24293  0.49228  1.0000
  C   C458      1.0  0.23811  0.46500  0.15833  1.0000
  C   C459      1.0  0.27056  0.27967  0.39758  1.0000
  H   H376      1.0  0.07453  0.35218  0.29478  1.0000
  H   H377      1.0  0.16087  0.46963  0.19976  1.0000
  C   C460      1.0  0.01205  0.34085  0.34705  1.0000
  H   H378      1.0  0.49537  0.44058  0.24607  1.0000
  H   H379      1.0  0.40192  0.22787  0.43172  1.0000
  P   P14       1.0  0.03908  0.33355  0.25730  1.0000
  C   C461      1.0  0.06009  0.31590  0.26754  1.0000
  C   C462      1.0  0.06574  0.34713  0.24726  1.0000
  C   C463      1.0  0.07467  0.34962  0.21604  1.0000
  C   C464      1.0  0.09664  0.35937  0.20824  1.0000
  C   C465      1.0  0.11007  0.36662  0.23143  1.0000
  C   C466      1.0  0.10175  0.36403  0.26253  1.0000
  C   C467      1.0  0.07971  0.35433  0.27047  1.0000
  C   C468      1.0  0.08939  0.31292  0.25624  1.0000
  C   C469      1.0  0.10609  0.29959  0.26556  1.0000
  C   C470      1.0  0.09371  0.28915  0.28620  1.0000
  C   C471      1.0  0.06446  0.29194  0.29725  1.0000
  C   C472      1.0  0.04759  0.30521  0.28780  1.0000
  C   C473      1.0  0.49236  0.28163  0.10798  1.0000
  H   H380      1.0  0.37877  0.24329  0.38591  1.0000
  H   H381      1.0  0.41619  0.27902  0.44158  1.0000
  H   H382      1.0  0.44930  0.30308  0.05604  1.0000
  H   H383      1.0  0.26735  0.46350  0.38716  1.0000
  H   H384      1.0  0.43530  0.45736  0.17145  1.0000
  H   H385      1.0  0.43525  0.39236  0.29968  1.0000
  H   H386      1.0  0.44454  0.31954  0.10073  1.0000
  C   C474      1.0  0.34963  0.30043  0.43795  1.0000
  C   C475      1.0  0.48113  0.30388  0.43078  1.0000
  H   H387      1.0  0.06553  0.34369  0.19765  1.0000
  H   H388      1.0  0.10399  0.36089  0.18424  1.0000
  H   H389      1.0  0.12767  0.37384  0.22536  1.0000
  H   H390      1.0  0.11314  0.36910  0.28069  1.0000
  C   C476      1.0  0.49436  0.45223  0.25178  1.0000
  H   H391      1.0  0.09965  0.32093  0.24063  1.0000
  H   H392      1.0  0.12885  0.29750  0.25712  1.0000
  H   H393      1.0  0.10693  0.27897  0.29387  1.0000
  C   C477      1.0  0.35377  0.24871  0.14066  1.0000
  S   S72       1.0  0.02454  0.32754  0.49343  1.0000
  H   H394      1.0  0.34679  0.27082  0.20268  1.0000
  H   H395      1.0  0.21774  0.40317  0.20384  1.0000
  H   H396      1.0  0.48376  0.44714  0.15031  1.0000
  C   C478      1.0  0.18753  0.45796  0.16512  1.0000
  H   H397      1.0  0.05249  0.33318  0.32370  1.0000
  C   C479      1.0  0.26485  0.30729  0.12285  1.0000
  C   C480      1.0  0.25983  0.30413  0.15451  1.0000
  C   C481      1.0  0.28400  0.30079  0.17428  1.0000
  C   C482      1.0  0.31322  0.30070  0.16253  1.0000
  C   C483      1.0  0.31858  0.30375  0.13064  1.0000
  C   C484      1.0  0.29405  0.30717  0.11095  1.0000
  P   P15       1.0  0.35617  0.30550  0.11571  1.0000
  C   C485      1.0  0.38329  0.29292  0.13700  1.0000
  C   C486      1.0  0.35914  0.30101  0.07532  1.0000
  C   C487      1.0  0.37925  0.30810  0.05531  1.0000
  C   C488      1.0  0.38338  0.30384  0.02467  1.0000
  C   C489      1.0  0.36759  0.29244  0.01382  1.0000
  C   C490      1.0  0.34779  0.28521  0.03369  1.0000
  C   C491      1.0  0.34368  0.28939  0.06441  1.0000
  C   C492      1.0  0.39021  0.29560  0.16774  1.0000
  C   C493      1.0  0.41212  0.28637  0.18364  1.0000
  C   C494      1.0  0.42717  0.27427  0.16927  1.0000
  C   C495      1.0  0.42061  0.27150  0.13872  1.0000
  C   C496      1.0  0.39884  0.28077  0.12258  1.0000
  C   C497      1.0  0.36342  0.32493  0.11877  1.0000
  C   C498      1.0  0.34187  0.33647  0.10914  1.0000
  C   C499      1.0  0.34703  0.35153  0.11212  1.0000
  C   C500      1.0  0.37387  0.35519  0.12435  1.0000
  C   C501      1.0  0.39561  0.34379  0.13349  1.0000
  C   C502      1.0  0.39037  0.32876  0.13077  1.0000
  H   H398      1.0  0.24602  0.31011  0.10766  1.0000
  H   H399      1.0  0.23720  0.30448  0.16385  1.0000
  H   H400      1.0  0.28003  0.29851  0.19891  1.0000
  H   H401      1.0  0.33126  0.29840  0.17868  1.0000
  H   H402      1.0  0.29736  0.31009  0.08649  1.0000
  H   H403      1.0  0.39233  0.31667  0.06352  1.0000
  C   C503      1.0  0.47276  0.23841  0.43093  1.0000
  C   C504      1.0  0.22812  0.44659  0.31260  1.0000
  H   H404      1.0  0.32893  0.28338  0.07975  1.0000
  H   H405      1.0  0.37953  0.30514  0.17919  1.0000
  H   H406      1.0  0.41796  0.28886  0.20688  1.0000
  H   H407      1.0  0.44439  0.26726  0.18159  1.0000
  H   H408      1.0  0.43305  0.26245  0.12720  1.0000
  H   H409      1.0  0.39494  0.27851  0.09869  1.0000
  H   H410      1.0  0.32102  0.33391  0.09944  1.0000
  H   H411      1.0  0.33019  0.36037  0.10495  1.0000
  H   H412      1.0  0.37786  0.36684  0.12672  1.0000
  C   C505      1.0  0.46630  0.46017  0.25622  1.0000
  H   H413      1.0  0.48088  0.32446  0.40203  1.0000
  C   C506      1.0  0.35786  0.31290  0.45292  1.0000
  C   C507      1.0  0.40589  0.47313  0.34422  1.0000
  S   S73       1.0  0.46633  0.31630  0.16444  1.0000
  C   C508      1.0  0.42358  0.22808  0.11435  1.0000
  P   P16       1.0  0.35781  0.35614  0.29666  1.0000
  H   H414      1.0  0.29978  0.34506  0.20561  1.0000
  S   S74       1.0  0.48830  0.28341  0.21791  1.0000
  H   H415      1.0  0.20522  0.41591  0.09102  1.0000
  C   C509      1.0  0.18248  0.46828  0.18828  1.0000
  C   C510      1.0  0.36871  0.39901  0.26318  1.0000
  H   H416      1.0  0.29773  0.27089  0.43589  1.0000
  C   C511      1.0  0.31352  0.41656  0.34892  1.0000
  H   H417      1.0  0.33088  0.41989  0.33282  1.0000
  C   C512      1.0  0.42531  0.22801  0.42548  1.0000
  C   C513      1.0  0.42506  0.27393  0.34726  1.0000
  C   C514      1.0  0.21843  0.42068  0.16737  1.0000
  C   C515      1.0  0.33973  0.24420  0.43524  1.0000
  C   C516      1.0  0.03157  0.46050  0.46608  1.0000
  H   H418      1.0  0.24907  0.28928  0.35583  1.0000
  C   C517      1.0  0.17210  0.37934  0.36195  1.0000
  C   C518      1.0  0.38775  0.26669  0.38541  1.0000
  C   C519      1.0  0.28367  0.42112  0.34248  1.0000
  H   H419      1.0  0.49706  0.22710  0.13353  1.0000
  C   C520      1.0  0.40168  0.37655  0.29881  1.0000
  C   C521      1.0  0.37317  0.37397  0.28858  1.0000
  C   C522      1.0  0.48167  0.31234  0.40213  1.0000
  Fe  Fe36      1.0  0.48295  0.30854  0.28844  1.0000
  C   C523      1.0  0.17780  0.40435  0.37884  1.0000
  H   H420      1.0  0.34271  0.43671  0.07874  1.0000
  C   C524      1.0  0.41325  0.39040  0.29178  1.0000
  H   H421      1.0  0.42127  0.31458  0.38129  1.0000
  S   S75       1.0  0.03336  0.32748  0.03262  1.0000
  H   H422      1.0  0.27880  0.42793  0.32139  1.0000
  C   C525      1.0  0.21198  0.39347  0.34060  1.0000
  C   C526      1.0  0.21429  0.42450  0.13557  1.0000
  C   C527      1.0  0.48881  0.29070  0.13382  1.0000
  C   C528      1.0  0.41328  0.24808  0.35298  1.0000
  Fe  Fe37      1.0  0.38364  0.45878  0.24806  1.0000
  S   S76       1.0  0.29690  0.46363  0.23678  1.0000
  C   C529      1.0  0.38503  0.23813  0.18294  1.0000
  C   C530      1.0  0.38204  0.22463  0.26786  1.0000
  C   C531      1.0  0.37519  0.25025  0.20075  1.0000
  H   H423      1.0  0.25119  0.40492  0.40659  1.0000
  C   C532      1.0  0.38845  0.34774  0.35114  1.0000
  C   C533      1.0  0.37047  0.28806  0.43365  1.0000
  P   P17       1.0  0.22201  0.42262  0.35537  1.0000
  S   S77       1.0  0.47957  0.27757  0.46818  1.0000
  H   H424      1.0  0.30528  0.35482  0.25737  1.0000
  C   C534      1.0  0.22351  0.44552  0.25689  1.0000
  H   H425      1.0  0.47539  0.23279  0.21881  1.0000
  C   C535      1.0  0.40101  0.31784  0.33626  1.0000
  C   C536      1.0  0.38017  0.34318  0.32208  1.0000
  C   C537      1.0  0.39961  0.28838  0.44463  1.0000
  C   C538      1.0  0.35942  0.45743  0.36993  1.0000
  C   C539      1.0  0.40447  0.27769  0.37084  1.0000
  C   C540      1.0  0.16278  0.39123  0.38053  1.0000
  C   C541      1.0  0.34352  0.26064  0.15880  1.0000
  C   C542      1.0  0.40951  0.32250  0.36496  1.0000
  C   C543      1.0  0.49668  0.23153  0.23043  1.0000
  C   C544      1.0  0.19678  0.38045  0.34210  1.0000
  H   H426      1.0  0.41008  0.34102  0.39459  1.0000
  C   C545      1.0  0.25958  0.44098  0.10618  1.0000
  C   C546      1.0  0.29692  0.28740  0.35078  1.0000
  C   C547      1.0  0.17778  0.44240  0.38037  1.0000
  H   H427      1.0  0.24985  0.44339  0.05688  1.0000
  C   C548      1.0  0.20222  0.40573  0.35828  1.0000
  C   C549      1.0  0.31235  0.43634  0.11794  1.0000
  C   C550      1.0  0.26693  0.44174  0.07431  1.0000
  C   C551      1.0  0.19565  0.44994  0.08939  1.0000
  C   C552      1.0  0.31955  0.43773  0.08631  1.0000
  H   H428      1.0  0.34459  0.28437  0.35175  1.0000
  H   H429      1.0  0.41527  0.36787  0.31168  1.0000
  H   H430      1.0  0.43722  0.28254  0.33541  1.0000
  P   P18       1.0  0.22123  0.44302  0.11982  1.0000
  H   H431      1.0  0.48022  0.30958  0.45231  1.0000
  H   H432      1.0  0.29121  0.47116  0.09450  1.0000
  C   C553      1.0  0.32147  0.34411  0.21630  1.0000
  H   H433      1.0  0.37863  0.32392  0.29370  1.0000
  H   H434      1.0  0.34328  0.33295  0.17821  1.0000
  C   C554      1.0  0.20745  0.43616  0.38273  1.0000
  C   C555      1.0  0.29683  0.44031  0.06449  1.0000
  C   C556      1.0  0.23030  0.45332  0.28269  1.0000
  H   H435      1.0  0.40577  0.41235  0.26838  1.0000
  H   H436      1.0  0.40166  0.22972  0.19235  1.0000
  H   H437      1.0  0.32984  0.43415  0.13498  1.0000
  H   H438      1.0  0.38424  0.25122  0.22358  1.0000
  C   C557      1.0  0.32474  0.34963  0.24565  1.0000
  C   C558      1.0  0.28250  0.43780  0.12779  1.0000
  H   H439      1.0  0.30237  0.44126  0.03992  1.0000
  C   C559      1.0  0.20256  0.46215  0.06947  1.0000
  H   H440      1.0  0.35925  0.22936  0.27117  1.0000
  C   C560      1.0  0.16588  0.45245  0.40207  1.0000
  C   C561      1.0  0.47679  0.22983  0.12051  1.0000
  C   C562      1.0  0.40143  0.45889  0.33434  1.0000
  H   H441      1.0  0.16373  0.43926  0.36207  1.0000
  C   C563      1.0  0.32484  0.27665  0.39555  1.0000
  C   C564      1.0  0.47761  0.23862  0.09272  1.0000
  H   H442      1.0  0.32701  0.30058  0.42979  1.0000
  C   C565      1.0  0.45149  0.24222  0.07595  1.0000
  P   P19       1.0  0.36000  0.27177  0.41474  1.0000
  H   H443      1.0  0.32770  0.26944  0.14935  1.0000
  C   C566      1.0  0.42452  0.23714  0.08679  1.0000
  Fe  Fe38      1.0  0.47826  0.30824  0.21483  1.0000
  C   C567      1.0  0.01420  0.46021  0.49329  1.0000
  H   H444      1.0  0.22334  0.46727  0.07176  1.0000
  C   C568      1.0  0.37400  0.23715  0.15293  1.0000
  H   H445      1.0  0.20878  0.42501  0.24111  1.0000
  H   H446      1.0  0.22561  0.42877  0.18280  1.0000
  H   H447      1.0  0.29648  0.29231  0.32724  1.0000
  C   C569      1.0  0.14791  0.44996  0.06371  1.0000
  H   H448      1.0  0.16103  0.43534  0.10307  1.0000
  H   H449      1.0  0.38377  0.26422  0.47812  1.0000
  C   C570      1.0  0.18296  0.46773  0.04599  1.0000
  H   H450      1.0  0.17446  0.46418  0.44302  1.0000
  H   H451      1.0  0.45314  0.23237  0.28110  1.0000
  H   H452      1.0  0.11964  0.29395  0.48177  1.0000
  C   C571      1.0  0.21167  0.42433  0.29096  1.0000
  H   H453      1.0  0.39923  0.30919  0.00941  1.0000
  H   H454      1.0  0.34067  0.45161  0.37898  1.0000
  C   C572      1.0  0.35205  0.23118  0.48472  1.0000
  C   C573      1.0  0.48665  0.22751  0.41203  1.0000
  C   C574      1.0  0.38678  0.31303  0.46410  1.0000
  Fe  Fe39      1.0  0.46698  0.26634  0.00183  1.0000
  H   H455      1.0  0.49055  0.23424  0.34800  1.0000
  C   C575      1.0  0.32420  0.28286  0.36486  1.0000
  H   H456      1.0  0.03297  0.30905  0.21528  1.0000
  H   H457      1.0  0.23476  0.45257  0.33219  1.0000
  H   H458      1.0  0.32839  0.24450  0.41323  1.0000
  Fe  Fe40      1.0  0.32224  0.46377  0.28128  1.0000
  C   C576      1.0  0.45475  0.46368  0.17251  1.0000
  C   C577      1.0  0.21354  0.45091  0.42762  1.0000
  C   C578      1.0  0.27013  0.28575  0.36700  1.0000
  H   H459      1.0  0.49834  0.24276  0.08409  1.0000
  S   S78       1.0  0.02599  0.37131  0.02367  1.0000
  H   H460      1.0  0.02214  0.33970  0.36981  1.0000
  C   C579      1.0  0.37823  0.45103  0.34721  1.0000
  C   C580      1.0  0.44216  0.23873  0.43733  1.0000
  H   H461      1.0  0.20472  0.41307  0.29322  1.0000
  C   C581      1.0  0.01836  0.31869  0.20748  1.0000
  H   H462      1.0  0.41678  0.23660  0.34616  1.0000
  H   H463      1.0  0.08676  0.30492  0.00430  1.0000
  C   C582      1.0  0.43516  0.22630  0.27314  1.0000
  C   C583      1.0  0.48234  0.45786  0.16093  1.0000
  H   H464      1.0  0.22638  0.45049  0.23367  1.0000
  C   C584      1.0  0.40574  0.23230  0.27737  1.0000
  H   H465      1.0  0.05778  0.47361  0.43478  1.0000
  H   H466      1.0  0.39314  0.32259  0.47603  1.0000
  H   H467      1.0  0.50090  0.28735  0.15474  1.0000
  C   C585      1.0  0.36382  0.47166  0.37994  1.0000
  C   C586      1.0  0.33752  0.23183  0.45624  1.0000
  Fe  Fe41      1.0  0.00727  0.34955  0.04079  1.0000
  H   H468      1.0  0.31391  0.47316  0.14604  1.0000
  H   H469      1.0  0.49264  0.45665  0.04699  1.0000
  H   H470      1.0  0.50149  0.46738  0.09720  1.0000
  C   C587      1.0  0.44982  0.22462  0.13141  1.0000
  H   H471      1.0  0.38565  0.29126  0.70397  1.0000
  C   C588      1.0  0.03556  0.23026  0.64077  1.0000
  C   C589      1.0  0.21190  0.29993  0.61028  1.0000
  H   H472      1.0  0.28928  0.28880  0.71148  1.0000
  H   H473      1.0  0.02097  0.36383  0.83087  1.0000
  H   H474      1.0  0.02222  0.23663  0.62307  1.0000
  C   C590      1.0  0.36827  0.28967  0.60419  1.0000
  H   H475      1.0  0.05553  0.23875  0.91290  1.0000
  H   H476      1.0  0.13821  0.30117  0.53177  1.0000
  H   H477      1.0  0.15836  0.31821  0.56426  1.0000
  H   H478      1.0  0.06139  0.31954  0.55931  1.0000
  C   C591      1.0  0.35871  0.35091  0.72059  1.0000
  C   C592      1.0  0.48280  0.25637  0.79799  1.0000
  H   H479      1.0  0.50337  0.28693  0.73075  1.0000
  C   C593      1.0  0.36238  0.46452  0.89224  1.0000
  H   H480      1.0  0.04726  0.44328  0.75763  1.0000
  S   S79       1.0  0.44960  0.24368  0.51779  1.0000
  C   C594      1.0  0.36923  0.28483  0.78039  1.0000
  H   H481      1.0  0.42370  0.25540  0.86528  1.0000
  S   S80       1.0  0.45956  0.27144  0.56152  1.0000
  Fe  Fe42      1.0  0.43543  0.25037  0.56593  1.0000
  S   S81       1.0  0.38657  0.24824  0.57958  1.0000
  Fe  Fe43      1.0  0.47700  0.26362  0.51492  1.0000
  C   C595      1.0  0.46281  0.25817  0.68657  1.0000
  C   C596      1.0  0.12207  0.22482  0.79053  1.0000
  Fe  Fe44      1.0  0.49075  0.25060  0.94209  1.0000
  S   S82       1.0  0.21850  0.24518  0.79065  1.0000
  H   H482      1.0  0.01795  0.41463  0.79229  1.0000
  Fe  Fe45      1.0  0.28416  0.25662  0.73540  1.0000
  S   S83       1.0  0.26537  0.27089  0.77407  1.0000
  S   S84       1.0  0.32738  0.26308  0.71123  1.0000
  Fe  Fe46      1.0  0.26594  0.24925  0.80302  1.0000
  S   S85       1.0  0.28421  0.24499  0.85230  1.0000
  Fe  Fe47      1.0  0.21934  0.26599  0.75870  1.0000
  S   S86       1.0  0.18232  0.28548  0.75265  1.0000
  S   S87       1.0  0.28658  0.23526  0.76533  1.0000
  S   S88       1.0  0.23842  0.25373  0.71737  1.0000
  H   H483      1.0  0.30881  0.30786  0.75748  1.0000
  S   S89       1.0  0.47149  0.27412  0.95083  1.0000
  Fe  Fe48      1.0  0.42642  0.26491  0.94501  1.0000
  S   S90       1.0  0.39137  0.27616  0.91161  1.0000
  S   S91       1.0  0.44613  0.24205  0.93394  1.0000
  H   H484      1.0  0.34960  0.32976  0.74278  1.0000
  C   C597      1.0  0.06735  0.25207  0.83863  1.0000
  H   H485      1.0  0.10682  0.42381  0.73435  1.0000
  H   H486      1.0  0.01024  0.44206  0.98769  1.0000
  H   H487      1.0  0.40590  0.27734  0.75063  1.0000
  H   H488      1.0  0.09835  0.44979  0.75018  1.0000
  C   C598      1.0  0.02423  0.40323  0.88576  1.0000
  H   H489      1.0  0.06252  0.24984  0.81488  1.0000
  C   C599      1.0  0.10674  0.29216  0.50295  1.0000
  S   S92       1.0  0.04399  0.31130  0.75515  1.0000
  C   C600      1.0  0.07309  0.33744  0.94401  1.0000
  H   H490      1.0  0.11504  0.33201  0.82190  1.0000
  H   H491      1.0  0.37813  0.27859  0.80089  1.0000
  H   H492      1.0  0.11957  0.46073  0.50638  1.0000
  C   C601      1.0  0.11717  0.29624  0.53144  1.0000
  H   H493      1.0  0.21982  0.23156  0.86366  1.0000
  H   H494      1.0  0.37746  0.28417  0.58388  1.0000
  C   C602      1.0  0.14326  0.29153  0.75439  1.0000
  C   C603      1.0  0.12070  0.28203  0.76265  1.0000
  C   C604      1.0  0.09019  0.28777  0.76323  1.0000
  C   C605      1.0  0.08191  0.30307  0.75564  1.0000
  C   C606      1.0  0.10462  0.31243  0.74773  1.0000
  C   C607      1.0  0.13479  0.30675  0.74710  1.0000
  H   H495      1.0  0.12671  0.27031  0.76860  1.0000
  H   H496      1.0  0.07323  0.28034  0.76969  1.0000
  H   H497      1.0  0.09886  0.32422  0.74189  1.0000
  H   H498      1.0  0.15177  0.31428  0.74084  1.0000
  C   C608      1.0  0.31535  0.25323  0.86727  1.0000
  C   C609      1.0  0.32672  0.26594  0.85271  1.0000
  C   C610      1.0  0.35011  0.27273  0.86642  1.0000
  C   C611      1.0  0.36313  0.26664  0.89429  1.0000
  C   C612      1.0  0.35233  0.25367  0.90838  1.0000
  C   C613      1.0  0.32824  0.24719  0.89525  1.0000
  H   H499      1.0  0.31690  0.27073  0.83134  1.0000
  H   H500      1.0  0.35804  0.28285  0.85555  1.0000
  H   H501      1.0  0.36187  0.24891  0.92996  1.0000
  H   H502      1.0  0.31936  0.23752  0.90701  1.0000
  C   C614      1.0  0.38491  0.28418  0.75213  1.0000
  C   C615      1.0  0.37146  0.25091  0.61747  1.0000
  C   C616      1.0  0.34176  0.24780  0.62403  1.0000
  C   C617      1.0  0.32822  0.25091  0.65305  1.0000
  C   C618      1.0  0.34422  0.25729  0.67573  1.0000
  C   C619      1.0  0.37413  0.26008  0.66938  1.0000
  C   C620      1.0  0.38776  0.25682  0.64051  1.0000
  C   C621      1.0  0.13575  0.23686  0.77610  1.0000
  H   H503      1.0  0.30520  0.24873  0.65759  1.0000
  H   H504      1.0  0.38674  0.26496  0.68674  1.0000
  H   H505      1.0  0.41052  0.25935  0.63568  1.0000
  H   H506      1.0  0.33640  0.33462  0.64360  1.0000
  H   H507      1.0  0.22773  0.33554  0.67981  1.0000
  C   C622      1.0  0.07899  0.28633  0.50142  1.0000
  C   C623      1.0  0.05734  0.22851  0.69196  1.0000
  C   C624      1.0  0.27251  0.32508  0.68527  1.0000
  H   H508      1.0  0.07203  0.36486  0.58098  1.0000
  C   C625      1.0  0.16816  0.31029  0.58190  1.0000
  C   C626      1.0  0.11941  0.46636  0.52796  1.0000
  H   H509      1.0  0.36488  0.35552  0.74207  1.0000
  H   H510      1.0  0.35187  0.36045  0.64340  1.0000
  C   C627      1.0  0.05759  0.24279  0.86321  1.0000
  C   C628      1.0  0.06735  0.33376  0.91374  1.0000
  C   C629      1.0  0.03026  0.36315  0.65413  1.0000
  C   C630      1.0  0.34189  0.29344  0.78215  1.0000
  H   H511      1.0  0.14631  0.24460  0.78998  1.0000
  C   C631      1.0  0.37405  0.30541  0.64725  1.0000
  Fe  Fe49      1.0  0.44373  0.23678  0.98519  1.0000
  H   H512      1.0  0.04503  0.23338  0.85857  1.0000
  C   C632      1.0  0.00706  0.37084  0.67042  1.0000
  H   H513      1.0  0.28260  0.33520  0.67754  1.0000
  H   H514      1.0  0.38784  0.31234  0.65969  1.0000
  C   C633      1.0  0.33008  0.30130  0.75563  1.0000
  H   H515      1.0  0.44531  0.25382  0.76822  1.0000
  C   C634      1.0  0.03003  0.35563  0.94247  1.0000
  H   H516      1.0  0.30645  0.29070  0.65065  1.0000
  C   C635      1.0  0.33960  0.28704  0.61499  1.0000
  C   C636      1.0  0.32819  0.29343  0.64211  1.0000
  C   C637      1.0  0.49155  0.26394  0.73098  1.0000
  H   H517      1.0  0.32671  0.27950  0.60302  1.0000
  H   H518      1.0  0.08145  0.32507  0.90289  1.0000
  H   H519      1.0  0.19877  0.27846  0.81606  1.0000
  C   C638      1.0  0.34561  0.30067  0.72706  1.0000
  C   C639      1.0  0.27619  0.29905  0.70430  1.0000
  C   C640      1.0  0.22761  0.31244  0.69654  1.0000
  C   C641      1.0  0.24509  0.29930  0.70530  1.0000
  H   H520      1.0  0.35329  0.45368  0.89281  1.0000
  S   S93       1.0  0.01364  0.27351  0.76701  1.0000
  H   H521      1.0  0.32970  0.29391  0.80404  1.0000
  C   C642      1.0  0.10352  0.45986  0.70365  1.0000
  H   H522      1.0  0.13827  0.30297  0.98226  1.0000
  H   H523      1.0  0.04750  0.39170  0.77555  1.0000
  C   C643      1.0  0.09646  0.47136  0.57826  1.0000
  S   S94       1.0  0.06821  0.46932  0.60674  1.0000
  S   S95       1.0  0.48964  0.24337  0.99291  1.0000
  H   H524      1.0  0.02175  0.44027  0.70808  1.0000
  C   C644      1.0  0.09674  0.46410  0.55032  1.0000
  C   C645      1.0  0.04313  0.34113  0.89766  1.0000
  C   C646      1.0  0.01089  0.38352  0.75171  1.0000
  C   C647      1.0  0.34525  0.30276  0.65835  1.0000
  C   C648      1.0  0.10058  0.32349  0.83000  1.0000
  C   C649      1.0  0.06447  0.34259  0.56814  1.0000
  C   C650      1.0  0.47002  0.25704  0.85304  1.0000
  C   C651      1.0  0.06338  0.24587  0.89387  1.0000
  H   H525      1.0  0.14725  0.24804  0.73255  1.0000
  S   S96       1.0  0.47306  0.23627  0.58940  1.0000
  H   H526      1.0  0.22911  0.26401  0.85660  1.0000
  H   H527      1.0  0.21261  0.31696  0.57303  1.0000
  H   H528      1.0  0.03626  0.33030  0.69803  1.0000
  H   H529      1.0  0.23451  0.28933  0.71328  1.0000
  C   C652      1.0  0.43154  0.25426  0.81589  1.0000
  C   C653      1.0  0.44015  0.25555  0.84653  1.0000
  S   S97       1.0  0.02156  0.43917  0.56393  1.0000
  H   H530      1.0  0.03047  0.24780  0.67301  1.0000
  H   H531      1.0  0.37969  0.24246  0.51451  1.0000
  H   H532      1.0  0.05856  0.35110  0.98200  1.0000
  C   C654      1.0  0.10955  0.45679  0.67246  1.0000
  C   C655      1.0  0.02803  0.34161  0.69023  1.0000
  S   S98       1.0  0.01755  0.44364  0.90654  1.0000
  C   C656      1.0  0.06729  0.29700  0.96370  1.0000
  H   H533      1.0  0.04472  0.29830  0.97306  1.0000
  C   C657      1.0  0.06184  0.28436  0.52844  1.0000
  H   H534      1.0  0.02864  0.31484  0.82540  1.0000
  C   C658      1.0  0.35944  0.35961  0.69268  1.0000
  H   H535      1.0  0.06023  0.23358  0.71382  1.0000
  C   C659      1.0  0.12000  0.29969  0.96883  1.0000
  H   H536      1.0  0.40801  0.30056  0.61230  1.0000
  H   H537      1.0  0.47671  0.25801  0.87682  1.0000
  H   H538      1.0  0.04199  0.40881  0.89566  1.0000
  C   C660      1.0  0.34232  0.33015  0.69310  1.0000
  H   H539      1.0  0.05796  0.34243  0.65077  1.0000
  C   C661      1.0  0.01849  0.39670  0.98511  1.0000
  H   H540      1.0  0.32897  0.24322  0.60638  1.0000
  H   H541      1.0  0.47896  0.29464  0.68101  1.0000
  H   H542      1.0  0.03560  0.38243  0.91129  1.0000
  C   C662      1.0  0.11200  0.31108  0.84852  1.0000
  C   C663      1.0  0.09367  0.29965  0.85780  1.0000
  C   C664      1.0  0.06329  0.30133  0.85018  1.0000
  P   P20       1.0  0.10787  0.28393  0.88270  1.0000
  C   C665      1.0  0.14639  0.27782  0.87434  1.0000
  C   C666      1.0  0.10173  0.29009  0.92169  1.0000
  C   C667      1.0  0.07257  0.29172  0.93398  1.0000
  C   C668      1.0  0.47780  0.28330  0.69083  1.0000
  C   C669      1.0  0.19890  0.30972  0.58700  1.0000
  H   H543      1.0  0.01327  0.41641  0.95377  1.0000
  C   C670      1.0  0.12533  0.29452  0.93899  1.0000
  C   C671      1.0  0.15907  0.28075  0.84481  1.0000
  C   C672      1.0  0.18889  0.27591  0.83865  1.0000
  C   C673      1.0  0.20598  0.26771  0.86148  1.0000
  C   C674      1.0  0.19315  0.26415  0.89042  1.0000
  C   C675      1.0  0.16339  0.26907  0.89678  1.0000
  C   C676      1.0  0.08788  0.26789  0.87546  1.0000
  C   C677      1.0  0.08260  0.26454  0.84471  1.0000
  H   H544      1.0  0.10978  0.46581  0.65471  1.0000
  C   C678      1.0  0.46329  0.27299  0.67468  1.0000
  C   C679      1.0  0.02414  0.39365  0.76960  1.0000
  C   C680      1.0  0.07860  0.25835  0.90003  1.0000
  H   H545      1.0  0.00921  0.23551  0.74652  1.0000
  H   H546      1.0  0.01542  0.36384  0.95412  1.0000
  C   C681      1.0  0.07060  0.32480  0.82155  1.0000
  H   H547      1.0  0.13514  0.31037  0.85533  1.0000
  H   H548      1.0  0.04832  0.29297  0.85803  1.0000
  H   H549      1.0  0.05383  0.28906  0.92047  1.0000
  H   H550      1.0  0.23567  0.29953  0.61439  1.0000
  C   C682      1.0  0.37325  0.29211  0.72558  1.0000
  C   C683      1.0  0.05188  0.31384  0.83203  1.0000
  H   H551      1.0  0.14779  0.29419  0.92944  1.0000
  H   H552      1.0  0.14609  0.28669  0.82636  1.0000
  C   C684      1.0  0.49183  0.27883  0.71893  1.0000
  C   C685      1.0  0.07321  0.32726  0.57195  1.0000
  H   H553      1.0  0.20639  0.25757  0.90787  1.0000
  H   H554      1.0  0.15364  0.26603  0.91918  1.0000
  H   H555      1.0  0.08990  0.27169  0.82546  1.0000
  H   H556      1.0  0.20347  0.31259  0.69792  1.0000
  C   C686      1.0  0.47694  0.25364  0.71456  1.0000
  Fe  Fe50      1.0  0.23965  0.23317  0.75018  1.0000
  H   H557      1.0  0.08285  0.26056  0.92391  1.0000
  C   C687      1.0  0.05440  0.34835  0.95837  1.0000
  C   C688      1.0  0.06735  0.29391  0.67743  1.0000
  C   C689      1.0  0.06846  0.27825  0.67966  1.0000
  C   C690      1.0  0.08159  0.26997  0.65568  1.0000
  C   C691      1.0  0.09343  0.27736  0.62944  1.0000
  C   C692      1.0  0.09241  0.29312  0.62710  1.0000
  C   C693      1.0  0.07942  0.30135  0.65140  1.0000
  P   P21       1.0  0.11013  0.30243  0.59438  1.0000
  C   C694      1.0  0.15017  0.30093  0.59985  1.0000
  C   C695      1.0  0.09983  0.29453  0.55869  1.0000
  H   H558      1.0  0.11317  0.35598  0.61687  1.0000
  C   C696      1.0  0.02333  0.44537  0.75643  1.0000
  H   H559      1.0  0.04657  0.34639  0.55241  1.0000
  C   C697      1.0  0.07893  0.35295  0.58416  1.0000
  C   C698      1.0  0.07218  0.28841  0.55693  1.0000
  C   C699      1.0  0.10214  0.34793  0.60428  1.0000
  H   H560      1.0  0.06194  0.33416  0.80646  1.0000
  S   S99       1.0  0.03095  0.43312  0.63960  1.0000
  C   C700      1.0  0.19418  0.29068  0.62844  1.0000
  C   C701      1.0  0.16348  0.29116  0.62330  1.0000
  C   C702      1.0  0.09703  0.32213  0.59147  1.0000
  C   C703      1.0  0.11112  0.33257  0.60805  1.0000
  H   H561      1.0  0.45215  0.25011  0.67363  1.0000
  C   C704      1.0  0.34275  0.33903  0.66520  1.0000
  H   H562      1.0  0.07949  0.45682  0.54587  1.0000
  C   C705      1.0  0.38553  0.29881  0.62037  1.0000
  H   H563      1.0  0.05678  0.30031  0.69579  1.0000
  H   H564      1.0  0.05889  0.27259  0.69989  1.0000
  H   H565      1.0  0.08265  0.25784  0.65739  1.0000
  H   H566      1.0  0.10370  0.27080  0.61110  1.0000
  H   H567      1.0  0.07840  0.31347  0.65038  1.0000
  C   C706      1.0  0.13630  0.23878  0.74371  1.0000
  H   H568      1.0  0.03989  0.28028  0.52720  1.0000
  H   H569      1.0  0.45334  0.27631  0.65237  1.0000
  H   H570      1.0  0.00900  0.26168  0.92191  1.0000
  H   H571      1.0  0.05771  0.28750  0.57720  1.0000
  C   C707      1.0  0.29023  0.31191  0.69431  1.0000
  C   C708      1.0  0.04039  0.34847  0.66372  1.0000
  H   H572      1.0  0.20419  0.28318  0.64672  1.0000
  H   H573      1.0  0.15037  0.28401  0.63809  1.0000
  H   H574      1.0  0.12913  0.32887  0.62372  1.0000
  C   C709      1.0  0.35140  0.35368  0.66502  1.0000
  P   P22       1.0  0.33058  0.31133  0.69316  1.0000
  C   C710      1.0  0.35006  0.33626  0.72087  1.0000
  H   H575      1.0  0.47674  0.24206  0.72320  1.0000
  H   H576      1.0  0.40766  0.45543  0.88429  1.0000
  C   C711      1.0  0.24132  0.32533  0.68645  1.0000
  Fe  Fe51      1.0  0.03391  0.45237  0.60395  1.0000
  C   C712      1.0  0.11422  0.44198  0.66358  1.0000
  C   C713      1.0  0.11325  0.43009  0.68586  1.0000
  C   C714      1.0  0.10785  0.43302  0.71708  1.0000
  S   S100      1.0  0.02615  0.45183  0.81773  1.0000
  H   H577      1.0  0.36620  0.37096  0.69253  1.0000
  H   H578      1.0  0.40837  0.25296  0.81097  1.0000
  H   H579      1.0  0.11786  0.43979  0.63923  1.0000
  H   H580      1.0  0.11634  0.41861  0.67884  1.0000
  C   C715      1.0  0.10303  0.44785  0.72599  1.0000
  C   C716      1.0  0.45270  0.25471  0.79168  1.0000
  Fe  Fe52      1.0  0.48911  0.23120  0.54098  1.0000
  H   H581      1.0  0.04021  0.36862  0.63391  1.0000
  H   H582      1.0  0.09181  0.33177  0.95652  1.0000
  C   C717      1.0  0.02444  0.35225  0.91184  1.0000
  C   C718      1.0  0.09101  0.30082  0.98126  1.0000
  C   C719      1.0  0.49131  0.25732  0.82899  1.0000
  C   C720      1.0  0.00752  0.40654  0.77913  1.0000
  H   H583      1.0  0.01479  0.35087  0.78242  1.0000
  C   C721      1.0  0.00696  0.44969  0.78301  1.0000
  C   C722      1.0  0.12314  0.22867  0.72572  1.0000
  C   C723      1.0  0.04014  0.23657  0.66901  1.0000
  H   H584      1.0  0.12380  0.23032  0.70063  1.0000
  H   H585      1.0  0.03887  0.33793  0.87449  1.0000
  Fe  Fe53      1.0  0.00733  0.46552  0.92922  1.0000
  H   H586      1.0  0.02442  0.37383  0.74385  1.0000
  Fe  Fe54      1.0  0.01386  0.42081  0.60017  1.0000
  H   H587      1.0  0.04155  0.39812  0.99002  1.0000
  C   C724      1.0  0.39299  0.46551  0.88747  1.0000
  H   H588      1.0  0.50356  0.28601  0.79914  1.0000
  C   C725      1.0  0.02043  0.38823  0.89463  1.0000
  H   H589      1.0  0.37105  0.28906  0.99009  1.0000
  C   C726      1.0  0.00886  0.44360  0.72835  1.0000
  H   H590      1.0  0.01406  0.23307  0.80395  1.0000
  S   S101      1.0  0.02402  0.39578  0.59619  1.0000
  H   H591      1.0  0.07749  0.47342  0.82768  1.0000
  S   S102      1.0  0.42050  0.25910  0.99631  1.0000
  C   C727      1.0  0.01056  0.47287  0.51099  1.0000
  H   H592      1.0  0.00742  0.42285  0.85806  1.0000
  H   H593      1.0  0.01211  0.36559  0.58442  1.0000
  H   H594      1.0  0.06490  0.47061  0.77326  1.0000
  H   H595      1.0  0.04837  0.46643  0.67672  1.0000
  Fe  Fe55      1.0  0.49853  0.25684  0.58282  1.0000
  C   C728      1.0  0.00655  0.37257  0.56376  1.0000
  H   H596      1.0  0.01346  0.30725  0.63074  1.0000
  C   C729      1.0  0.00967  0.38804  0.56336  1.0000
  C   C730      1.0  0.07417  0.56317  0.02452  1.0000
  C   C731      1.0  0.45227  0.47752  0.18619  1.0000
  H   H597      1.0  0.02804  0.56836  0.48023  1.0000
  C   C732      1.0  0.03278  0.52630  0.41541  1.0000
  S   S103      1.0  0.01716  0.63855  0.42544  1.0000
  C   C733      1.0  0.05334  0.69504  0.42797  1.0000
  S   S104      1.0  0.05561  0.56446  0.40334  1.0000
  S   S105      1.0  0.19213  0.51520  0.46554  1.0000
  C   C734      1.0  0.30304  0.48304  0.13410  1.0000
  H   H598      1.0  0.07583  0.71838  0.14513  1.0000
  C   C735      1.0  0.29549  0.49232  0.34495  1.0000
  Fe  Fe56      1.0  0.24201  0.51492  0.46674  1.0000
  C   C736      1.0  0.00766  0.70429  0.40131  1.0000
  C   C737      1.0  0.34157  0.50313  0.45885  1.0000
  H   H599      1.0  0.11967  0.50594  0.12230  1.0000
  Fe  Fe57      1.0  0.17717  0.53461  0.02966  1.0000
  S   S106      1.0  0.25835  0.49229  0.05321  1.0000
  H   H600      1.0  0.15701  0.48911  0.09502  1.0000
  S   S107      1.0  0.14947  0.54530  0.06847  1.0000
  H   H601      1.0  0.11320  0.57779  0.49226  1.0000
  C   C738      1.0  0.08465  0.56197  0.43047  1.0000
  C   C739      1.0  0.08774  0.57231  0.45311  1.0000
  C   C740      1.0  0.11084  0.56976  0.47481  1.0000
  C   C741      1.0  0.13080  0.55682  0.47411  1.0000
  C   C742      1.0  0.12772  0.54654  0.45135  1.0000
  C   C743      1.0  0.10485  0.54916  0.42949  1.0000
  H   H602      1.0  0.07251  0.58232  0.45377  1.0000
  C   C744      1.0  0.16413  0.49642  0.11217  1.0000
  H   H603      1.0  0.14286  0.53655  0.45060  1.0000
  H   H604      1.0  0.10281  0.54118  0.41188  1.0000
  C   C745      1.0  0.05768  0.57006  0.04862  1.0000
  C   C746      1.0  0.06924  0.56903  0.07860  1.0000
  C   C747      1.0  0.09725  0.56123  0.08436  1.0000
  C   C748      1.0  0.11398  0.55453  0.06023  1.0000
  H   H605      1.0  0.34828  0.47654  0.39678  1.0000
  H   H606      1.0  0.03501  0.59827  0.25608  1.0000
  H   H607      1.0  0.05679  0.57447  0.09714  1.0000
  H   H608      1.0  0.10626  0.56060  0.10743  1.0000
  C   C749      1.0  0.11542  0.49735  0.44667  1.0000
  H   H609      1.0  0.25607  0.48363  0.42431  1.0000
  S   S108      1.0  0.35530  0.47958  0.26183  1.0000
  H   H610      1.0  0.01622  0.54361  0.38194  1.0000
  C   C750      1.0  0.03159  0.69328  0.40599  1.0000
  C   C751      1.0  0.33565  0.53255  0.31688  1.0000
  C   C752      1.0  0.48409  0.49355  0.37799  1.0000
  C   C753      1.0  0.36263  0.50137  0.48242  1.0000
  C   C754      1.0  0.05402  0.52925  0.21280  1.0000
  C   C755      1.0  0.50519  0.47960  0.17745  1.0000
  C   C756      1.0  0.35072  0.50214  0.42780  1.0000
  H   H611      1.0  0.49985  0.50884  0.44513  1.0000
  C   C757      1.0  0.10226  0.55542  0.03029  1.0000
  C   C758      1.0  0.03653  0.68626  0.08296  1.0000
  S   S109      1.0  0.02272  0.57987  0.04069  1.0000
  C   C759      1.0  0.46533  0.47523  0.26368  1.0000
  C   C760      1.0  0.36465  0.50858  0.32426  1.0000
  C   C761      1.0  0.40214  0.49760  0.44382  1.0000
  C   C762      1.0  0.30687  0.51417  0.00427  1.0000
  C   C763      1.0  0.02022  0.52376  0.11521  1.0000
  S   S110      1.0  0.01571  0.59515  0.19399  1.0000
  S   S111      1.0  0.01721  0.60409  0.37332  1.0000
  H   H612      1.0  0.10525  0.49350  0.35837  1.0000
  H   H613      1.0  0.32208  0.54054  0.30221  1.0000
  H   H614      1.0  0.08493  0.57842  0.28093  1.0000
  C   C764      1.0  0.43893  0.51615  0.36314  1.0000
  H   H615      1.0  0.34337  0.51655  0.28139  1.0000
  S   S112      1.0  0.24093  0.53432  0.49855  1.0000
  H   H616      1.0  0.05413  0.52036  0.23086  1.0000
  H   H617      1.0  0.30031  0.51549  0.02839  1.0000
  S   S113      1.0  0.22714  0.53536  0.03032  1.0000
  C   C765      1.0  0.27478  0.50071  0.39479  1.0000
  H   H618      1.0  0.26373  0.51832  0.09066  1.0000
  C   C766      1.0  0.38107  0.49942  0.41994  1.0000
  C   C767      1.0  0.30171  0.49687  0.14787  1.0000
  S   S114      1.0  0.17900  0.50949  0.02859  1.0000
  C   C768      1.0  0.23312  0.47524  0.18158  1.0000
  Fe  Fe58      1.0  0.01996  0.58375  0.40648  1.0000
  C   C769      1.0  0.06528  0.57273  0.28752  1.0000
  C   C770      1.0  0.26684  0.48614  0.40219  1.0000
  H   H619      1.0  0.30648  0.49480  0.32298  1.0000
  C   C771      1.0  0.28790  0.50962  0.13174  1.0000
  H   H620      1.0  0.05562  0.53636  0.46748  1.0000
  C   C772      1.0  0.02555  0.52235  0.29301  1.0000
  C   C773      1.0  0.04065  0.48644  0.47344  1.0000
  H   H621      1.0  0.44400  0.48149  0.26724  1.0000
  H   H622      1.0  0.07140  0.68636  0.43183  1.0000
  C   C774      1.0  0.34109  0.53571  0.34756  1.0000
  H   H623      1.0  0.49103  0.49394  0.27170  1.0000
  H   H624      1.0  0.36227  0.52800  0.39032  1.0000
  C   C775      1.0  0.49146  0.50765  0.36624  1.0000
  C   C776      1.0  0.13654  0.49245  0.39572  1.0000
  P   P23       1.0  0.39256  0.49818  0.37957  1.0000
  C   C777      1.0  0.08319  0.49813  0.40211  1.0000
  H   H625      1.0  0.06845  0.70928  0.46215  1.0000
  H   H626      1.0  0.40918  0.49722  0.49329  1.0000
  H   H627      1.0  0.11497  0.55029  0.01155  1.0000
  C   C778      1.0  0.43129  0.50198  0.37470  1.0000
  H   H628      1.0  0.43096  0.48186  0.19569  1.0000
  H   H629      1.0  0.00774  0.59977  0.30661  1.0000
  H   H630      1.0  0.08805  0.51734  0.18556  1.0000
  C   C779      1.0  0.05330  0.57384  0.31752  1.0000
  H   H631      1.0  0.20150  0.48483  0.21448  1.0000
  H   H632      1.0  0.37364  0.49818  0.31472  1.0000
  H   H633      1.0  0.07372  0.48706  0.00746  1.0000
  H   H634      1.0  0.02017  0.65277  0.01893  1.0000
  H   H635      1.0  0.08897  0.53773  0.14382  1.0000
  C   C780      1.0  0.01047  0.53781  0.06636  1.0000
  H   H636      1.0  0.04456  0.67361  0.12635  1.0000
  C   C781      1.0  0.03472  0.54237  0.21481  1.0000
  C   C782      1.0  0.01698  0.69655  0.06633  1.0000
  C   C783      1.0  0.07344  0.52754  0.18719  1.0000
  C   C784      1.0  0.46891  0.51894  0.35890  1.0000
  C   C785      1.0  0.39291  0.49859  0.47492  1.0000
  S   S115      1.0  0.31660  0.49857  0.18526  1.0000
  C   C786      1.0  0.26808  0.55350  0.15984  1.0000
  C   C787      1.0  0.26695  0.55567  0.12750  1.0000
  C   C788      1.0  0.24419  0.55000  0.11125  1.0000
  C   C789      1.0  0.22289  0.54190  0.12718  1.0000
  C   C790      1.0  0.22442  0.53927  0.15959  1.0000
  C   C791      1.0  0.24664  0.54553  0.17591  1.0000
  P   P24       1.0  0.19609  0.52944  0.18033  1.0000
  C   C792      1.0  0.18298  0.51618  0.15474  1.0000
  C   C793      1.0  0.21130  0.51822  0.21350  1.0000
  C   C794      1.0  0.19266  0.51409  0.23851  1.0000
  C   C795      1.0  0.20454  0.50556  0.26432  1.0000
  C   C796      1.0  0.23493  0.50073  0.26496  1.0000
  C   C797      1.0  0.25333  0.50424  0.23960  1.0000
  C   C798      1.0  0.24158  0.51282  0.21387  1.0000
  C   C799      1.0  0.20380  0.50635  0.13974  1.0000
  C   C800      1.0  0.19445  0.49660  0.11839  1.0000
  H   H637      1.0  0.02237  0.69991  0.04252  1.0000
  C   C801      1.0  0.14312  0.50589  0.12761  1.0000
  C   C802      1.0  0.15249  0.51567  0.14902  1.0000
  C   C803      1.0  0.16762  0.54400  0.19038  1.0000
  C   C804      1.0  0.15001  0.55165  0.16694  1.0000
  C   C805      1.0  0.12861  0.56326  0.17431  1.0000
  C   C806      1.0  0.12472  0.56741  0.20497  1.0000
  C   C807      1.0  0.14287  0.56026  0.22823  1.0000
  C   C808      1.0  0.16458  0.54879  0.22090  1.0000
  H   H638      1.0  0.28557  0.55803  0.17246  1.0000
  H   H639      1.0  0.28355  0.56185  0.11502  1.0000
  H   H640      1.0  0.24294  0.55192  0.08624  1.0000
  H   H641      1.0  0.20522  0.53778  0.11406  1.0000
  H   H642      1.0  0.24752  0.54418  0.20100  1.0000
  H   H643      1.0  0.16898  0.51749  0.23815  1.0000
  H   H644      1.0  0.19025  0.50272  0.28392  1.0000
  H   H645      1.0  0.24428  0.49422  0.28502  1.0000
  H   H646      1.0  0.27683  0.50031  0.23984  1.0000
  H   H647      1.0  0.25627  0.51515  0.19431  1.0000
  H   H648      1.0  0.22736  0.50641  0.14418  1.0000
  C   C809      1.0  0.02952  0.68171  0.11354  1.0000
  H   H649      1.0  0.06377  0.58021  0.33437  1.0000
  H   H650      1.0  0.03949  0.71897  0.10251  1.0000
  H   H651      1.0  0.13605  0.52298  0.16054  1.0000
  H   H652      1.0  0.15308  0.54880  0.14285  1.0000
  H   H653      1.0  0.11523  0.56923  0.15620  1.0000
  H   H654      1.0  0.10811  0.57644  0.21050  1.0000
  H   H655      1.0  0.14053  0.56384  0.25184  1.0000
  H   H656      1.0  0.17932  0.54398  0.23903  1.0000
  S   S116      1.0  0.26934  0.51528  0.42129  1.0000
  C   C810      1.0  0.49208  0.48225  0.26621  1.0000
  C   C811      1.0  0.01390  0.55856  0.30446  1.0000
  C   C812      1.0  0.28892  0.50372  0.36596  1.0000
  H   H657      1.0  0.06122  0.49952  0.39199  1.0000
  H   H658      1.0  0.01083  0.54831  0.05260  1.0000
  C   C813      1.0  0.10804  0.49458  0.38301  1.0000
  H   H659      1.0  0.06528  0.56392  0.00128  1.0000
  Fe  Fe59      1.0  0.22880  0.51043  0.02648  1.0000
  H   H660      1.0  0.31803  0.50530  0.46457  1.0000
  P   P25       1.0  0.05461  0.50387  0.45895  1.0000
  C   C814      1.0  0.36967  0.51151  0.35532  1.0000
  P   P26       1.0  0.01000  0.54515  0.24794  1.0000
  H   H661      1.0  0.01872  0.65591  0.32282  1.0000
  H   H662      1.0  0.42565  0.49544  0.43862  1.0000
  C   C815      1.0  0.35825  0.52531  0.36665  1.0000
  H   H663      1.0  0.33164  0.54614  0.35673  1.0000
  C   C816      1.0  0.05166  0.70791  0.44508  1.0000
  H   H664      1.0  0.03675  0.50522  0.32898  1.0000
  C   C817      1.0  0.02554  0.51479  0.43701  1.0000
  C   C818      1.0  0.02169  0.50893  0.31023  1.0000
  H   H665      1.0  0.05568  0.52905  0.41219  1.0000
  C   C819      1.0  0.27552  0.49456  0.08918  1.0000
  H   H666      1.0  0.03338  0.68317  0.39321  1.0000
  C   C820      1.0  0.01097  0.59831  0.25681  1.0000
  C   C821      1.0  0.14014  0.49372  0.42754  1.0000
  H   H667      1.0  0.16216  0.49188  0.43755  1.0000
  H   H668      1.0  0.01778  0.68293  0.33230  1.0000
  C   C822      1.0  0.27471  0.50848  0.10260  1.0000
  H   H669      1.0  0.25088  0.48198  0.18769  1.0000
  C   C823      1.0  0.03555  0.55378  0.19124  1.0000
  Fe  Fe60      1.0  0.33167  0.47794  0.21618  1.0000
  H   H670      1.0  0.02760  0.52331  0.13900  1.0000
  H   H671      1.0  0.29501  0.51495  0.35999  1.0000
  H   H672      1.0  0.05689  0.68166  0.07191  1.0000
  C   C824      1.0  0.34757  0.51902  0.30518  1.0000
  H   H673      1.0  0.42185  0.52504  0.35712  1.0000
  H   H674      1.0  0.28708  0.52042  0.14198  1.0000
  H   H675      1.0  0.33402  0.50354  0.40994  1.0000
  C   C825      1.0  0.08676  0.49982  0.43403  1.0000
  H   H676      1.0  0.47465  0.52984  0.34957  1.0000
  H   H677      1.0  0.02622  0.66716  0.44899  1.0000
  C   C826      1.0  0.20531  0.47689  0.19654  1.0000
  C   C827      1.0  0.05516  0.55212  0.16593  1.0000
  H   H678      1.0  0.21087  0.48943  0.10619  1.0000
  H   H679      1.0  0.02102  0.56403  0.19253  1.0000
  H   H680      1.0  0.04386  0.52881  0.29861  1.0000
  H   H681      1.0  0.05566  0.56111  0.14805  1.0000
  C   C828      1.0  0.07403  0.53898  0.16376  1.0000
  C   C829      1.0  0.47745  0.48548  0.18860  1.0000
  C   C830      1.0  0.29015  0.48193  0.10485  1.0000
  H   H682      1.0  0.01811  0.56795  0.34896  1.0000
  H   H683      1.0  0.11896  0.49817  0.47128  1.0000
  H   H684      1.0  0.06107  0.56410  0.24270  1.0000
  C   C831      1.0  0.01042  0.53459  0.39813  1.0000
  C   C832      1.0  0.05151  0.56460  0.26585  1.0000
  H   H685      1.0  0.44872  0.47971  0.39127  1.0000
  C   C833      1.0  0.02750  0.56687  0.32584  1.0000
  C   C834      1.0  0.38736  0.47956  0.36747  1.0000
  H   H686      1.0  0.47566  0.49603  0.19992  1.0000
  C   C835      1.0  0.45412  0.49072  0.38230  1.0000
  C   C836      1.0  0.06444  0.53018  0.48799  1.0000
  H   H687      1.0  0.42345  0.47918  0.33319  1.0000
  H   H688      1.0  0.15592  0.48977  0.38107  1.0000
  C   C837      1.0  0.28785  0.47774  0.35251  1.0000
  H   H689      1.0  0.09077  0.71778  0.02137  1.0000
  C   C838      1.0  0.06597  0.51443  0.49066  1.0000
  C   C839      1.0  0.02576  0.55735  0.27422  1.0000
  H   H690      1.0  0.02814  0.54708  0.10630  1.0000
  H   H691      1.0  0.04880  0.53414  0.01555  1.0000
  H   H692      1.0  0.31548  0.49022  0.01028  1.0000
  C   C840      1.0  0.02815  0.71898  0.44031  1.0000
  H   H693      1.0  0.50158  0.48475  0.38341  1.0000
  H   H694      1.0  0.18905  0.47678  0.02997  1.0000
  H   H695      1.0  0.49542  0.48769  0.48425  1.0000
  C   C841      1.0  0.27334  0.47474  0.38112  1.0000
  C   C842      1.0  0.01198  0.56131  0.49113  1.0000
  C   C843      1.0  0.02041  0.53714  0.09694  1.0000
  C   C844      1.0  0.01050  0.51098  0.10269  1.0000
  H   H696      1.0  0.01062  0.50056  0.11671  1.0000
  C   C845      1.0  0.10306  0.72225  0.00170  1.0000
  Fe  Fe61      1.0  0.32686  0.57328  0.70531  1.0000
  S   S117      1.0  0.34682  0.55482  0.73790  1.0000
  S   S118      1.0  0.30902  0.57209  0.65607  1.0000
  Fe  Fe62      1.0  0.33318  0.59711  0.75292  1.0000
  S   S119      1.0  0.35338  0.58017  0.78902  1.0000
  S   S120      1.0  0.32914  0.62134  0.76692  1.0000
  Fe  Fe63      1.0  0.38103  0.57089  0.74911  1.0000
  S   S121      1.0  0.43042  0.56184  0.75220  1.0000
  Fe  Fe64      1.0  0.31781  0.56573  0.77520  1.0000
  S   S122      1.0  0.28735  0.55145  0.80537  1.0000
  S   S123      1.0  0.36288  0.58865  0.71391  1.0000
  S   S124      1.0  0.29587  0.58330  0.74176  1.0000
  S   S125      1.0  0.23082  0.70462  0.79111  1.0000
  S   S126      1.0  0.17161  0.70399  0.74792  1.0000
  Fe  Fe65      1.0  0.22037  0.69622  0.74466  1.0000
  S   S127      1.0  0.22931  0.67291  0.72587  1.0000
  C   C846      1.0  0.11786  0.48415  0.81649  1.0000
  C   C847      1.0  0.11213  0.51295  0.65020  1.0000
  Fe  Fe66      1.0  0.24208  0.51690  0.53821  1.0000
  S   S128      1.0  0.26925  0.51676  0.58287  1.0000
  S   S129      1.0  0.19207  0.51659  0.54188  1.0000
  C   C848      1.0  0.09459  0.70062  0.77225  1.0000
  Fe  Fe67      1.0  0.18027  0.51351  0.97672  1.0000
  Fe  Fe68      1.0  0.22473  0.53725  0.97779  1.0000
  S   S130      1.0  0.25280  0.55370  0.94998  1.0000
  S   S131      1.0  0.23038  0.51225  0.97416  1.0000
  S   S132      1.0  0.17445  0.53873  0.97767  1.0000
  C   C849      1.0  0.46417  0.57115  0.75021  1.0000
  C   C850      1.0  0.07547  0.53822  0.51154  1.0000
  H   H697      1.0  0.25691  0.59291  0.67452  1.0000
  C   C851      1.0  0.49175  0.59339  0.75256  1.0000
  C   C852      1.0  0.46444  0.58660  0.75355  1.0000
  C   C853      1.0  0.31550  0.49990  0.99399  1.0000
  H   H698      1.0  0.44362  0.59327  0.75734  1.0000
  C   C854      1.0  0.29960  0.63493  0.75659  1.0000
  C   C855      1.0  0.28152  0.63350  0.73111  1.0000
  C   C856      1.0  0.25983  0.64518  0.72228  1.0000
  C   C857      1.0  0.25618  0.65839  0.73868  1.0000
  C   C858      1.0  0.27394  0.65970  0.76448  1.0000
  C   C859      1.0  0.29534  0.64794  0.77350  1.0000
  H   H699      1.0  0.28459  0.62353  0.71791  1.0000
  H   H700      1.0  0.24612  0.64409  0.70230  1.0000
  H   H701      1.0  0.27122  0.66977  0.77737  1.0000
  H   H702      1.0  0.30867  0.64888  0.79374  1.0000
  C   C860      1.0  0.27755  0.55278  0.84544  1.0000
  C   C861      1.0  0.25611  0.54363  0.85843  1.0000
  C   C862      1.0  0.24797  0.54399  0.89018  1.0000
  C   C863      1.0  0.26142  0.55341  0.90949  1.0000
  C   C864      1.0  0.28257  0.56275  0.89642  1.0000
  C   C865      1.0  0.29064  0.56244  0.86459  1.0000
  H   H703      1.0  0.24580  0.53613  0.84389  1.0000
  H   H704      1.0  0.23133  0.53695  0.89979  1.0000
  H   H705      1.0  0.29300  0.57016  0.91109  1.0000
  H   H706      1.0  0.30720  0.56955  0.85499  1.0000
  C   C866      1.0  0.29820  0.55650  0.63620  1.0000
  C   C867      1.0  0.28488  0.55910  0.60688  1.0000
  C   C868      1.0  0.27608  0.54713  0.59012  1.0000
  C   C869      1.0  0.28064  0.53233  0.60245  1.0000
  C   C870      1.0  0.29426  0.52972  0.63164  1.0000
  C   C871      1.0  0.30275  0.54172  0.64855  1.0000
  H   H707      1.0  0.28124  0.57049  0.59704  1.0000
  H   H708      1.0  0.26578  0.54936  0.56767  1.0000
  H   H709      1.0  0.29815  0.51833  0.64127  1.0000
  H   H710      1.0  0.31298  0.53951  0.67102  1.0000
  H   H711      1.0  0.10593  0.69727  0.87475  1.0000
  H   H712      1.0  0.36922  0.54409  0.65515  1.0000
  H   H713      1.0  0.15858  0.49046  0.56580  1.0000
  C   C872      1.0  0.04418  0.71300  0.73996  1.0000
  H   H714      1.0  0.21181  0.54171  0.58210  1.0000
  H   H715      1.0  0.29847  0.67169  0.85962  1.0000
  H   H716      1.0  0.38808  0.69372  0.70797  1.0000
  C   C873      1.0  0.20427  0.56889  0.69560  1.0000
  H   H717      1.0  0.24910  0.56601  0.67649  1.0000
  H   H718      1.0  0.15216  0.52772  0.69542  1.0000
  H   H719      1.0  0.02290  0.70659  0.67527  1.0000
  H   H720      1.0  0.33633  0.66553  0.81929  1.0000
  C   C874      1.0  0.29240  0.69510  0.84514  1.0000
  H   H721      1.0  0.38897  0.62919  0.78716  1.0000
  C   C875      1.0  0.41015  0.71326  0.71701  1.0000
  C   C876      1.0  0.15211  0.53258  0.71784  1.0000
  H   H722      1.0  0.32611  0.52543  0.83950  1.0000
  H   H723      1.0  0.11836  0.52932  0.78904  1.0000
  C   C877      1.0  0.25198  0.54144  0.72401  1.0000
  C   C878      1.0  0.15461  0.55091  0.64832  1.0000
  C   C879      1.0  0.37892  0.56345  0.62604  1.0000
  C   C880      1.0  0.38317  0.55335  0.65178  1.0000
  C   C881      1.0  0.40455  0.55557  0.67377  1.0000
  C   C882      1.0  0.42173  0.56785  0.66998  1.0000
  C   C883      1.0  0.41814  0.57784  0.64382  1.0000
  C   C884      1.0  0.39606  0.57576  0.62222  1.0000
  P   P27       1.0  0.43865  0.59433  0.64076  1.0000
  C   C885      1.0  0.47690  0.59011  0.65271  1.0000
  C   C886      1.0  0.44125  0.60131  0.60086  1.0000
  C   C887      1.0  0.43791  0.61680  0.59308  1.0000
  C   C888      1.0  0.44828  0.59125  0.57743  1.0000
  H   H724      1.0  0.02296  0.69025  0.79546  1.0000
  H   H725      1.0  0.26694  0.51211  0.91990  1.0000
  H   H726      1.0  0.39971  0.54826  0.90236  1.0000
  H   H727      1.0  0.19222  0.58733  0.92410  1.0000
  C   C889      1.0  0.32322  0.49808  0.96272  1.0000
  C   C890      1.0  0.41767  0.60777  0.66419  1.0000
  C   C891      1.0  0.38959  0.61412  0.65420  1.0000
  C   C892      1.0  0.37197  0.62362  0.67321  1.0000
  C   C893      1.0  0.38218  0.62678  0.70237  1.0000
  C   C894      1.0  0.41000  0.62042  0.71254  1.0000
  C   C895      1.0  0.42757  0.61085  0.69366  1.0000
  H   H728      1.0  0.36140  0.56204  0.60977  1.0000
  H   H729      1.0  0.43752  0.56969  0.68774  1.0000
  H   H730      1.0  0.39148  0.58379  0.60285  1.0000
  H   H731      1.0  0.43344  0.62479  0.61089  1.0000
  C   C896      1.0  0.49390  0.60172  0.66088  1.0000
  H   H732      1.0  0.47839  0.56628  0.64510  1.0000
  H   H733      1.0  0.31762  0.49877  0.83858  1.0000
  C   C897      1.0  0.08324  0.71536  0.77686  1.0000
  C   C898      1.0  0.03757  0.51581  0.93763  1.0000
  H   H734      1.0  0.22216  0.49844  0.84086  1.0000
  H   H735      1.0  0.38086  0.61130  0.63221  1.0000
  H   H736      1.0  0.34986  0.62802  0.66592  1.0000
  H   H737      1.0  0.36801  0.63366  0.71755  1.0000
  H   H738      1.0  0.41751  0.62242  0.73553  1.0000
  H   H739      1.0  0.44833  0.60549  0.70259  1.0000
  P   P28       1.0  0.09386  0.47901  0.71401  1.0000
  Fe  Fe69      1.0  0.18239  0.71385  0.79280  1.0000
  H   H740      1.0  0.07018  0.47624  0.91182  1.0000
  C   C899      1.0  0.34761  0.52462  0.88432  1.0000
  C   C900      1.0  0.10912  0.48693  0.92486  1.0000
  S   S133      1.0  0.24708  0.49745  0.50632  1.0000
  C   C901      1.0  0.45096  0.59658  0.54646  1.0000
  C   C902      1.0  0.14168  0.47598  0.53331  1.0000
  C   C903      1.0  0.01386  0.51725  0.95901  1.0000
  Fe  Fe70      1.0  0.19679  0.49885  0.50694  1.0000
  C   C904      1.0  0.27006  0.49819  0.83631  1.0000
  C   C905      1.0  0.08807  0.53067  0.53791  1.0000
  H   H741      1.0  0.05089  0.50035  0.74404  1.0000
  C   C906      1.0  0.35502  0.49164  0.89557  1.0000
  H   H742      1.0  0.22027  0.51964  0.67347  1.0000
  H   H743      1.0  0.15390  0.54803  0.80012  1.0000
  H   H744      1.0  0.08068  0.49475  0.51983  1.0000
  C   C907      1.0  0.50199  0.69620  0.76422  1.0000
  H   H745      1.0  0.06686  0.71052  0.90718  1.0000
  C   C908      1.0  0.21195  0.59351  0.92298  1.0000
  H   H746      1.0  0.04525  0.69155  0.71916  1.0000
  C   C909      1.0  0.30529  0.68041  0.84328  1.0000
  C   C910      1.0  0.01553  0.50523  0.58413  1.0000
  C   C911      1.0  0.00760  0.49627  0.72808  1.0000
  H   H747      1.0  0.34574  0.65753  0.67095  1.0000
  C   C912      1.0  0.09741  0.50393  0.67208  1.0000
  C   C913      1.0  0.14242  0.50959  0.64345  1.0000
  H   H748      1.0  0.09754  0.53694  0.55552  1.0000
  H   H749      1.0  0.03481  0.51037  0.91615  1.0000
  C   C914      1.0  0.39326  0.70124  0.72554  1.0000
  C   C915      1.0  0.23608  0.52324  0.68955  1.0000
  C   C916      1.0  0.03873  0.49389  0.72885  1.0000
  H   H750      1.0  0.11427  0.69591  0.78469  1.0000
  H   H751      1.0  0.03931  0.50256  0.58069  1.0000
  C   C917      1.0  0.30876  0.67351  0.68076  1.0000
  C   C918      1.0  0.39021  0.70911  0.77851  1.0000
  P   P29       1.0  0.36119  0.68355  0.76720  1.0000
  C   C919      1.0  0.05565  0.69822  0.73540  1.0000
  H   H752      1.0  0.29316  0.53516  0.74786  1.0000
  S   S134      1.0  0.00941  0.71539  0.60246  1.0000
  C   C920      1.0  0.17160  0.54353  0.72367  1.0000
  H   H753      1.0  0.16780  0.60291  0.70989  1.0000
  H   H754      1.0  0.27567  0.69779  0.86286  1.0000
  C   C921      1.0  0.05119  0.70041  0.62764  1.0000
  C   C922      1.0  0.37823  0.54848  0.85813  1.0000
  H   H755      1.0  0.40735  0.54802  0.69427  1.0000
  C   C923      1.0  0.08125  0.71690  0.89215  1.0000
  C   C924      1.0  0.03136  0.71157  0.65393  1.0000
  H   H756      1.0  0.09012  0.68071  0.74761  1.0000
  H   H757      1.0  0.35322  0.54608  0.81688  1.0000
  C   C925      1.0  0.26151  0.51370  0.69698  1.0000
  C   C926      1.0  0.32150  0.70287  0.80012  1.0000
  C   C927      1.0  0.32229  0.51060  0.94146  1.0000
  C   C928      1.0  0.13318  0.53328  0.77081  1.0000
  C   C929      1.0  0.06506  0.52099  0.94432  1.0000
  H   H758      1.0  0.26542  0.50305  0.68616  1.0000
  H   H759      1.0  0.10620  0.70119  0.97936  1.0000
  H   H760      1.0  0.07443  0.70118  0.57595  1.0000
  H   H761      1.0  0.00954  0.60110  0.97695  1.0000
  C   C930      1.0  0.12391  0.49313  0.94886  1.0000
  C   C931      1.0  0.10348  0.70942  0.87374  1.0000
  H   H762      1.0  0.11745  0.51932  0.73649  1.0000
  C   C932      1.0  0.11119  0.49304  0.97874  1.0000
  C   C933      1.0  0.24183  0.50526  0.88234  1.0000
  H   H763      1.0  0.39543  0.50321  0.89006  1.0000
  H   H764      1.0  0.01398  0.49166  0.62677  1.0000
  C   C934      1.0  0.21289  0.59965  0.69230  1.0000
  H   H765      1.0  0.29597  0.67098  0.66093  1.0000
  C   C935      1.0  0.14496  0.55062  0.61767  1.0000
  C   C936      1.0  0.23142  0.57390  0.68455  1.0000
  H   H766      1.0  0.49161  0.60533  0.75535  1.0000
  H   H767      1.0  0.07513  0.55032  0.50884  1.0000
  C   C937      1.0  0.23143  0.53731  0.70256  1.0000
  C   C938      1.0  0.29583  0.50584  0.88120  1.0000
  C   C939      1.0  0.05384  0.48285  0.71103  1.0000
  C   C940      1.0  0.23578  0.58920  0.68313  1.0000
  C   C941      1.0  0.38365  0.54318  0.88877  1.0000
  C   C942      1.0  0.18562  0.59477  0.70306  1.0000
  H   H768      1.0  0.27404  0.59754  0.96436  1.0000
  C   C943      1.0  0.13269  0.52764  0.74122  1.0000
  H   H769      1.0  0.15369  0.51636  0.62598  1.0000
  H   H770      1.0  0.27074  0.49450  0.81278  1.0000
  C   C944      1.0  0.27730  0.53184  0.73146  1.0000
  H   H771      1.0  0.45408  0.65855  0.81303  1.0000
  C   C945      1.0  0.23223  0.59167  0.94730  1.0000
  C   C946      1.0  0.41690  0.72324  0.73911  1.0000
  H   H772      1.0  0.07377  0.50650  0.67633  1.0000
  H   H773      1.0  0.02494  0.56511  0.53759  1.0000
  H   H774      1.0  0.01362  0.69626  0.85043  1.0000
  C   C947      1.0  0.02366  0.48594  0.50108  1.0000
  C   C948      1.0  0.19574  0.54408  0.60066  1.0000
  C   C949      1.0  0.34228  0.53007  0.85358  1.0000
  C   C950      1.0  0.28219  0.51803  0.71781  1.0000
  H   H775      1.0  0.09988  0.52235  0.63792  1.0000
  C   C951      1.0  0.12288  0.71748  0.85452  1.0000
  H   H776      1.0  0.01070  0.51912  0.54216  1.0000
  C   C952      1.0  0.06274  0.70820  0.59265  1.0000
  C   C953      1.0  0.10376  0.48091  0.75406  1.0000
  H   H777      1.0  0.08035  0.70505  0.67338  1.0000
  C   C954      1.0  0.38296  0.69913  0.75632  1.0000
  C   C955      1.0  0.26388  0.60869  0.91967  1.0000
  C   C956      1.0  0.24370  0.61053  0.89498  1.0000
  C   C957      1.0  0.21754  0.60297  0.89698  1.0000
  P   P30       1.0  0.25142  0.62209  0.86048  1.0000
  C   C958      1.0  0.29028  0.62581  0.85969  1.0000
  C   C959      1.0  0.24397  0.61192  0.82674  1.0000
  C   C960      1.0  0.23596  0.61961  0.79842  1.0000
  C   C961      1.0  0.22959  0.61164  0.77269  1.0000
  C   C962      1.0  0.23112  0.59596  0.77504  1.0000
  C   C963      1.0  0.23964  0.58822  0.80289  1.0000
  C   C964      1.0  0.24636  0.59613  0.82854  1.0000
  C   C965      1.0  0.31163  0.61649  0.84412  1.0000
  C   C966      1.0  0.34172  0.61935  0.84394  1.0000
  C   C967      1.0  0.35074  0.63151  0.85928  1.0000
  C   C968      1.0  0.32969  0.64072  0.87524  1.0000
  C   C969      1.0  0.29957  0.63786  0.87555  1.0000
  C   C970      1.0  0.22861  0.63977  0.85973  1.0000
  C   C971      1.0  0.23688  0.65190  0.84036  1.0000
  C   C972      1.0  0.21898  0.66547  0.83866  1.0000
  C   C973      1.0  0.19286  0.66713  0.85663  1.0000
  C   C974      1.0  0.18462  0.65520  0.87631  1.0000
  C   C975      1.0  0.20237  0.64154  0.87787  1.0000
  H   H778      1.0  0.15975  0.57588  0.71216  1.0000
  C   C976      1.0  0.44703  0.61199  0.53877  1.0000
  H   H779      1.0  0.30209  0.51074  0.72329  1.0000
  H   H780      1.0  0.28432  0.61425  0.91878  1.0000
  H   H781      1.0  0.20176  0.60413  0.87815  1.0000
  H   H782      1.0  0.23488  0.63172  0.79583  1.0000
  H   H783      1.0  0.22387  0.61766  0.75084  1.0000
  H   H784      1.0  0.22661  0.58972  0.75510  1.0000
  H   H785      1.0  0.24153  0.57606  0.80448  1.0000
  H   H786      1.0  0.25353  0.58985  0.84966  1.0000
  H   H787      1.0  0.30519  0.60711  0.83167  1.0000
  H   H788      1.0  0.35789  0.61224  0.83127  1.0000
  H   H789      1.0  0.37404  0.63375  0.85881  1.0000
  H   H790      1.0  0.33674  0.65005  0.88743  1.0000
  H   H791      1.0  0.28353  0.64499  0.88829  1.0000
  H   H792      1.0  0.25694  0.65079  0.82615  1.0000
  H   H793      1.0  0.22513  0.67465  0.82306  1.0000
  H   H794      1.0  0.17891  0.67765  0.85512  1.0000
  H   H795      1.0  0.16430  0.65652  0.89018  1.0000
  H   H796      1.0  0.19539  0.63247  0.89312  1.0000
  H   H797      1.0  0.42087  0.68058  0.79509  1.0000
  C   C977      1.0  0.08091  0.69207  0.75144  1.0000
  H   H798      1.0  0.13372  0.71089  0.93314  1.0000
  C   C978      1.0  0.29714  0.68440  0.70067  1.0000
  H   H799      1.0  0.48423  0.61322  0.66048  1.0000
  H   H800      1.0  0.35538  0.50219  0.50647  1.0000
  C   C979      1.0  0.35266  0.66892  0.71268  1.0000
  C   C980      1.0  0.34044  0.67935  0.73368  1.0000
  C   C981      1.0  0.31281  0.68731  0.72706  1.0000
  H   H801      1.0  0.22062  0.50702  0.89467  1.0000
  C   C982      1.0  0.38594  0.66747  0.78014  1.0000
  H   H802      1.0  0.15825  0.54713  0.57000  1.0000
  C   C983      1.0  0.41374  0.66945  0.79293  1.0000
  C   C984      1.0  0.43262  0.65698  0.80324  1.0000
  C   C985      1.0  0.39606  0.64042  0.78870  1.0000
  C   C986      1.0  0.37726  0.65284  0.77825  1.0000
  H   H803      1.0  0.22817  0.58406  0.96711  1.0000
  C   C987      1.0  0.07845  0.50691  0.51747  1.0000
  H   H804      1.0  0.09943  0.50919  0.56128  1.0000
  P   P31       1.0  0.33025  0.50835  0.90058  1.0000
  H   H805      1.0  0.15666  0.49435  0.79833  1.0000
  C   C988      1.0  0.32665  0.67696  0.82017  1.0000
  H   H806      1.0  0.27546  0.69030  0.69612  1.0000
  C   C989      1.0  0.16552  0.54714  0.59387  1.0000
  C   C990      1.0  0.49163  0.56264  0.74584  1.0000
  H   H807      1.0  0.37448  0.66310  0.71643  1.0000
  H   H808      1.0  0.30302  0.69567  0.74228  1.0000
  C   C991      1.0  0.08929  0.51503  0.54101  1.0000
  C   C992      1.0  0.31333  0.52488  0.95199  1.0000
  H   H809      1.0  0.35592  0.65098  0.76870  1.0000
  H   H810      1.0  0.08361  0.51963  0.92800  1.0000
  C   C993      1.0  0.14136  0.48318  0.56130  1.0000
  C   C994      1.0  0.20544  0.54443  0.63121  1.0000
  H   H811      1.0  0.11889  0.48695  0.90175  1.0000
  C   C995      1.0  0.33664  0.66587  0.68659  1.0000
  H   H812      1.0  0.43841  0.63279  0.80904  1.0000
  S   S135      1.0  0.23261  0.71726  0.71775  1.0000
  H   H813      1.0  0.12169  0.55342  0.61215  1.0000
  H   H814      1.0  0.38268  0.70772  0.80243  1.0000
  C   C996      1.0  0.18486  0.54742  0.65542  1.0000
  C   C997      1.0  0.26825  0.50805  0.89676  1.0000
  H   H815      1.0  0.43788  0.63405  0.55615  1.0000
  H   H816      1.0  0.24854  0.55203  0.73514  1.0000
  H   H817      1.0  0.44914  0.61611  0.51477  1.0000
  C   C998      1.0  0.38583  0.49252  0.89081  1.0000
  H   H818      1.0  0.31142  0.53465  0.93591  1.0000
  H   H819      1.0  0.37342  0.52711  0.92538  1.0000
  P   P32       1.0  0.19791  0.54932  0.69424  1.0000
  H   H820      1.0  0.21631  0.61152  0.69088  1.0000
  H   H821      1.0  0.14465  0.49151  0.74355  1.0000
  H   H822      1.0  0.22908  0.54262  0.63577  1.0000
  H   H823      1.0  0.13859  0.55413  0.66632  1.0000
  H   H824      1.0  0.47661  0.71777  0.76105  1.0000
  C   C999      1.0  0.33489  0.68816  0.79827  1.0000
  C   C1000     1.0  0.06872  0.48089  0.96030  1.0000
  C   C1001     1.0  0.04532  0.52893  0.99402  1.0000
  H   H825      1.0  0.32934  0.48690  0.95527  1.0000
  H   H826      1.0  0.32667  0.71170  0.78312  1.0000
  C   C1002     1.0  0.30072  0.70632  0.82375  1.0000
  C   C1003     1.0  0.15311  0.54387  0.77701  1.0000
  C   C1004     1.0  0.12729  0.71820  0.95180  1.0000
  C   C1005     1.0  0.35760  0.54191  0.84058  1.0000
  S   S136      1.0  0.15777  0.50121  0.94035  1.0000
  H   H827      1.0  0.05564  0.68849  0.63287  1.0000
  C   C1006     1.0  0.44062  0.62210  0.56208  1.0000
  H   H828      1.0  0.38999  0.55767  0.84788  1.0000
  H   H829      1.0  0.18816  0.55689  0.75895  1.0000
  C   C1007     1.0  0.17235  0.54894  0.75358  1.0000
  C   C1008     1.0  0.25814  0.59925  0.94567  1.0000
  C   C1009     1.0  0.42380  0.64247  0.80108  1.0000
  C   C1010     1.0  0.18124  0.57944  0.70458  1.0000
  H   H830      1.0  0.11885  0.48638  0.60536  1.0000
  C   C1011     1.0  0.24271  0.50042  0.85206  1.0000
  C   C1012     1.0  0.36856  0.53125  0.90178  1.0000
  H   H831      1.0  0.12079  0.71322  0.69813  1.0000
  S   S137      1.0  0.15182  0.70729  0.83371  1.0000
  C   C1013     1.0  0.29656  0.50073  0.85092  1.0000
  C   C1014     1.0  0.11185  0.71274  0.97789  1.0000
  C   C1015     1.0  0.06894  0.52752  0.97251  1.0000
  H   H832      1.0  0.49183  0.55067  0.74338  1.0000
  C   C1016     1.0  0.30585  0.52665  0.98329  1.0000
  C   C1017     1.0  0.08369  0.48690  0.98443  1.0000
  C   C1018     1.0  0.11891  0.48081  0.58373  1.0000
  C   C1019     1.0  0.08799  0.71501  0.66162  1.0000
  H   H833      1.0  0.09042  0.53132  0.97782  1.0000
  H   H834      1.0  0.15574  0.47849  0.69166  1.0000
  C   C1020     1.0  0.13665  0.48920  0.79264  1.0000
  C   C1021     1.0  0.11302  0.71935  0.67705  1.0000
  H   H835      1.0  0.04888  0.72326  0.82739  1.0000
  C   C1022     1.0  0.15809  0.49728  0.65875  1.0000
  H   H836      1.0  0.12326  0.48535  0.84061  1.0000
  H   H837      1.0  0.48242  0.68994  0.76677  1.0000
  S   S138      1.0  0.16972  0.47865  0.50479  1.0000
  S   S139      1.0  0.15858  0.55359  0.50260  1.0000
  H   H838      1.0  0.02023  0.67405  0.55613  1.0000
  H   H839      1.0  0.45618  0.58875  0.52845  1.0000
  C   C1023     1.0  0.49051  0.57539  0.65235  1.0000
  C   C1024     1.0  0.03744  0.47485  0.69115  1.0000
  C   C1025     1.0  0.12972  0.48755  0.76154  1.0000
  C   C1026     1.0  0.08156  0.48087  0.93050  1.0000
  C   C1027     1.0  0.11298  0.49148  0.68746  1.0000
  H   H840      1.0  0.18145  0.49453  0.65305  1.0000
  C   C1028     1.0  0.14346  0.48824  0.68062  1.0000
  H   H841      1.0  0.29843  0.53769  0.99108  1.0000
  H   H842      1.0  0.45171  0.57929  0.58314  1.0000
  C   C1029     1.0  0.01036  0.55937  0.52346  1.0000
  H   H843      1.0  0.12229  0.49789  0.99731  1.0000
  C   C1030     1.0  0.34345  0.47752  0.89626  1.0000
  H   H844      1.0  0.31977  0.47656  0.90002  1.0000
  H   H845      1.0  0.41753  0.71503  0.69312  1.0000
  C   C1031     1.0  0.49864  0.71186  0.76078  1.0000
  C   C1032     1.0  0.09210  0.47745  0.80926  1.0000
  C   C1033     1.0  0.08504  0.47586  0.77825  1.0000
  Fe  Fe71      1.0  0.19116  0.53292  0.50036  1.0000
  H   H846      1.0  0.02498  0.71757  0.72690  1.0000
  H   H847      1.0  0.42842  0.48027  0.88297  1.0000
  C   C1034     1.0  0.40469  0.47950  0.88675  1.0000
  H   H848      1.0  0.02005  0.49572  0.51469  1.0000
  S   S140      1.0  0.03386  0.47372  0.96815  1.0000
  C   C1035     1.0  0.01762  0.52373  0.98749  1.0000
  H   H849      1.0  0.09450  0.72180  0.79293  1.0000
  C   C1036     1.0  0.07351  0.72280  0.63349  1.0000
  C   C1037     1.0  0.40689  0.72120  0.76981  1.0000
  C   C1038     1.0  0.05780  0.72168  0.76091  1.0000
  H   H850      1.0  0.29047  0.71769  0.82504  1.0000
  C   C1039     1.0  0.44595  0.93617  0.45086  1.0000
  C   C1040     1.0  0.27779  0.93089  0.15778  1.0000
  H   H851      1.0  0.37070  0.82875  0.08633  1.0000
  C   C1041     1.0  0.41638  0.94270  0.45094  1.0000
  Fe  Fe72      1.0  0.22746  0.86055  0.24023  1.0000
  S   S141      1.0  0.23549  0.88202  0.21208  1.0000
  S   S142      1.0  0.18964  0.84625  0.22582  1.0000
  Fe  Fe73      1.0  0.28609  0.86197  0.27702  1.0000
  S   S143      1.0  0.29720  0.88311  0.25123  1.0000
  S   S144      1.0  0.31893  0.84916  0.31097  1.0000
  Fe  Fe74      1.0  0.24863  0.89074  0.25731  1.0000
  S   S145      1.0  0.24193  0.91452  0.27366  1.0000
  Fe  Fe75      1.0  0.28371  0.87281  0.20803  1.0000
  S   S146      1.0  0.30951  0.87751  0.16269  1.0000
  S   S147      1.0  0.23780  0.86996  0.28620  1.0000
  S   S148      1.0  0.27535  0.85092  0.23323  1.0000
  C   C1042     1.0  0.05402  0.87296  0.30623  1.0000
  Fe  Fe76      1.0  0.44814  0.86723  0.43140  1.0000
  S   S149      1.0  0.46997  0.84370  0.43754  1.0000
  S   S150      1.0  0.40783  0.87693  0.40249  1.0000
  C   C1043     1.0  0.17856  0.76727  0.03643  1.0000
  H   H852      1.0  0.20190  0.76323  0.03451  1.0000
  Fe  Fe77      1.0  0.45799  0.84955  0.06960  1.0000
  H   H853      1.0  0.16290  0.74597  0.02731  1.0000
  S   S151      1.0  0.42739  0.84200  0.10957  1.0000
  Fe  Fe78      1.0  0.48210  0.87425  0.02738  1.0000
  H   H854      1.0  0.13438  0.79897  0.05104  1.0000
  C   C1044     1.0  0.38604  0.83423  0.03983  1.0000
  H   H855      1.0  0.26166  0.95932  0.20960  1.0000
  C   C1045     1.0  0.17064  0.78220  0.04316  1.0000
  S   S152      1.0  0.44495  0.85925  0.02218  1.0000
  C   C1046     1.0  0.11207  0.73919  0.09026  1.0000
  H   H856      1.0  0.19498  0.94629  0.16681  1.0000
  S   S153      1.0  0.05853  0.82549  0.26302  1.0000
  H   H857      1.0  0.31813  0.86395  0.03627  1.0000
  C   C1047     1.0  0.15291  0.84094  0.23647  1.0000
  C   C1048     1.0  0.13740  0.84582  0.26308  1.0000
  C   C1049     1.0  0.10892  0.84088  0.27083  1.0000
  C   C1050     1.0  0.09498  0.83119  0.25196  1.0000
  C   C1051     1.0  0.11040  0.82643  0.22520  1.0000
  C   C1052     1.0  0.13906  0.83121  0.21765  1.0000
  H   H858      1.0  0.14749  0.85326  0.27794  1.0000
  H   H859      1.0  0.09760  0.84459  0.29174  1.0000
  H   H860      1.0  0.10027  0.81899  0.21034  1.0000
  H   H861      1.0  0.15062  0.82731  0.19701  1.0000
  C   C1053     1.0  0.34303  0.86779  0.14922  1.0000
  C   C1054     1.0  0.35802  0.87378  0.12301  1.0000
  C   C1055     1.0  0.38416  0.86620  0.11094  1.0000
  C   C1056     1.0  0.39545  0.85243  0.12479  1.0000
  C   C1057     1.0  0.38057  0.84647  0.15109  1.0000
  C   C1058     1.0  0.35454  0.85411  0.16328  1.0000
  H   H862      1.0  0.34927  0.88433  0.11188  1.0000
  H   H863      1.0  0.39529  0.87089  0.09065  1.0000
  H   H864      1.0  0.38912  0.83584  0.16202  1.0000
  H   H865      1.0  0.34308  0.84934  0.18322  1.0000
  C   C1059     1.0  0.34487  0.85714  0.33471  1.0000
  C   C1060     1.0  0.34524  0.87267  0.33678  1.0000
  C   C1061     1.0  0.36496  0.87848  0.35727  1.0000
  C   C1062     1.0  0.38485  0.86890  0.37567  1.0000
  C   C1063     1.0  0.38520  0.85339  0.37282  1.0000
  C   C1064     1.0  0.36518  0.84756  0.35264  1.0000
  H   H866      1.0  0.32983  0.88020  0.32318  1.0000
  H   H867      1.0  0.36447  0.89050  0.35922  1.0000
  H   H868      1.0  0.40028  0.84586  0.38681  1.0000
  H   H869      1.0  0.36506  0.83554  0.35142  1.0000
  C   C1065     1.0  0.16454  0.94935  0.24676  1.0000
  C   C1066     1.0  0.18659  0.95281  0.26697  1.0000
  C   C1067     1.0  0.21049  0.94210  0.27450  1.0000
  C   C1068     1.0  0.21253  0.92789  0.26190  1.0000
  C   C1069     1.0  0.19092  0.92459  0.24102  1.0000
  C   C1070     1.0  0.16710  0.93532  0.23343  1.0000
  H   H870      1.0  0.18492  0.96360  0.27729  1.0000
  H   H871      1.0  0.22716  0.94474  0.29062  1.0000
  H   H872      1.0  0.19226  0.91368  0.23122  1.0000
  H   H873      1.0  0.15044  0.93268  0.21741  1.0000
  H   H874      1.0  0.48003  0.81194  0.28314  1.0000
  C   C1071     1.0  0.16260  0.91508  0.32182  1.0000
  C   C1072     1.0  0.07804  0.93387  0.23833  1.0000
  P   P33       1.0  0.09763  0.74998  0.02957  1.0000
  C   C1073     1.0  0.33678  0.85549  0.03655  1.0000
  H   H875      1.0  0.12888  0.93217  0.33505  1.0000
  H   H876      1.0  0.47649  0.90872  0.16985  1.0000
  H   H877      1.0  0.35938  0.82123  0.30383  1.0000
  C   C1074     1.0  0.41884  0.83075  0.24327  1.0000
  C   C1075     1.0  0.38818  0.82928  0.24237  1.0000
  C   C1076     1.0  0.36798  0.84201  0.24328  1.0000
  C   C1077     1.0  0.37834  0.85625  0.24436  1.0000
  C   C1078     1.0  0.40913  0.85784  0.24480  1.0000
  C   C1079     1.0  0.42928  0.84497  0.24476  1.0000
  P   P34       1.0  0.42328  0.87612  0.24450  1.0000
  C   C1080     1.0  0.39249  0.89031  0.24855  1.0000
  C   C1081     1.0  0.44906  0.87557  0.27644  1.0000
  C   C1082     1.0  0.43990  0.87062  0.30636  1.0000
  C   C1083     1.0  0.45929  0.87040  0.33140  1.0000
  H   H878      1.0  0.40672  0.90103  0.03672  1.0000
  Fe  Fe79      1.0  0.47785  0.84881  0.48773  1.0000
  C   C1084     1.0  0.47856  0.87943  0.27176  1.0000
  C   C1085     1.0  0.38509  0.89649  0.27726  1.0000
  C   C1086     1.0  0.36030  0.90694  0.27992  1.0000
  C   C1087     1.0  0.34289  0.91140  0.25397  1.0000
  C   C1088     1.0  0.35024  0.90540  0.22528  1.0000
  C   C1089     1.0  0.37482  0.89486  0.22259  1.0000
  C   C1090     1.0  0.44086  0.88059  0.20742  1.0000
  C   C1091     1.0  0.44034  0.87098  0.18279  1.0000
  C   C1092     1.0  0.45337  0.87483  0.15404  1.0000
  H   H879      1.0  0.46384  0.94165  0.46053  1.0000
  C   C1093     1.0  0.46664  0.89813  0.17362  1.0000
  C   C1094     1.0  0.45343  0.89438  0.20235  1.0000
  H   H880      1.0  0.43451  0.82089  0.24275  1.0000
  H   H881      1.0  0.38003  0.81829  0.24120  1.0000
  H   H882      1.0  0.34418  0.84096  0.24309  1.0000
  H   H883      1.0  0.36211  0.86588  0.24495  1.0000
  H   H884      1.0  0.45304  0.84597  0.24576  1.0000
  H   H885      1.0  0.41761  0.86709  0.31047  1.0000
  H   H886      1.0  0.45190  0.86678  0.35451  1.0000
  S   S154      1.0  0.49102  0.83219  0.04962  1.0000
  H   H887      1.0  0.38345  0.91431  0.41853  1.0000
  H   H888      1.0  0.39787  0.89316  0.29782  1.0000
  H   H889      1.0  0.35413  0.91130  0.30232  1.0000
  H   H890      1.0  0.32308  0.91910  0.25632  1.0000
  H   H891      1.0  0.33616  0.90843  0.20539  1.0000
  H   H892      1.0  0.37944  0.88994  0.20038  1.0000
  H   H893      1.0  0.42946  0.86065  0.18531  1.0000
  H   H894      1.0  0.45279  0.86743  0.13503  1.0000
  H   H895      1.0  0.03028  0.90630  0.23702  1.0000
  H   H896      1.0  0.26257  0.96137  0.09681  1.0000
  H   H897      1.0  0.45293  0.90224  0.22064  1.0000
  C   C1095     1.0  0.13944  0.90590  0.16520  1.0000
  C   C1096     1.0  0.15332  0.89140  0.16316  1.0000
  C   C1097     1.0  0.14872  0.88041  0.18662  1.0000
  C   C1098     1.0  0.13048  0.88392  0.21228  1.0000
  C   C1099     1.0  0.11642  0.89847  0.21459  1.0000
  C   C1100     1.0  0.12103  0.90942  0.19077  1.0000
  P   P35       1.0  0.09521  0.90331  0.24927  1.0000
  C   C1101     1.0  0.12112  0.90758  0.27853  1.0000
  C   C1102     1.0  0.06858  0.91929  0.24049  1.0000
  H   H898      1.0  0.46660  0.84105  0.16161  1.0000
  C   C1103     1.0  0.07514  0.88760  0.26338  1.0000
  H   H899      1.0  0.15573  0.89045  0.26596  1.0000
  C   C1104     1.0  0.11833  0.77773  0.04142  1.0000
  C   C1105     1.0  0.34175  0.84626  0.06353  1.0000
  C   C1106     1.0  0.14055  0.78741  0.04569  1.0000
  H   H900      1.0  0.47567  0.91708  0.43890  1.0000
  H   H901      1.0  0.47669  0.89123  0.12708  1.0000
  H   H902      1.0  0.48162  0.82490  0.33254  1.0000
  C   C1107     1.0  0.35629  0.85406  0.01080  1.0000
  H   H903      1.0  0.40578  0.82638  0.04160  1.0000
  H   H904      1.0  0.05086  0.76657  0.06549  1.0000
  C   C1108     1.0  0.38200  0.88627  0.01126  1.0000
  C   C1109     1.0  0.39381  0.93469  0.43928  1.0000
  C   C1110     1.0  0.14923  0.89947  0.28099  1.0000
  H   H905      1.0  0.14312  0.91446  0.14712  1.0000
  H   H906      1.0  0.16781  0.88868  0.14353  1.0000
  H   H907      1.0  0.15962  0.86918  0.18519  1.0000
  H   H908      1.0  0.12782  0.87529  0.23053  1.0000
  H   H909      1.0  0.11081  0.92076  0.19193  1.0000
  H   H910      1.0  0.17909  0.91831  0.33760  1.0000
  H   H911      1.0  0.13225  0.74492  0.08760  1.0000
  H   H912      1.0  0.02366  0.74961  0.12521  1.0000
  S   S155      1.0  0.49296  0.86551  0.07622  1.0000
  C   C1111     1.0  0.01796  0.92985  0.22939  1.0000
  H   H913      1.0  0.04273  0.77493  0.47296  1.0000
  C   C1112     1.0  0.40084  0.92058  0.42723  1.0000
  H   H914      1.0  0.03120  0.85396  0.29357  1.0000
  Fe  Fe80      1.0  0.49742  0.87982  0.46807  1.0000
  H   H915      1.0  0.03980  0.85852  0.23725  1.0000
  C   C1113     1.0  0.10644  0.73151  0.11865  1.0000
  C   C1114     1.0  0.39216  0.90015  0.01723  1.0000
  H   H916      1.0  0.02676  0.72901  0.45348  1.0000
  H   H917      1.0  0.37070  0.93919  0.43997  1.0000
  C   C1115     1.0  0.06372  0.87814  0.24240  1.0000
  H   H918      1.0  0.26196  0.90916  0.16907  1.0000
  H   H919      1.0  0.12215  0.73139  0.13742  1.0000
  H   H920      1.0  0.05046  0.87082  0.33095  1.0000
  C   C1116     1.0  0.25494  0.76293  0.22058  1.0000
  H   H921      1.0  0.36575  0.80793  0.48922  1.0000
  S   S156      1.0  0.49110  0.87709  0.41725  1.0000
  H   H922      1.0  0.25959  0.75784  0.19857  1.0000
  H   H923      1.0  0.30094  0.92649  0.15608  1.0000
  H   H924      1.0  0.23197  0.74439  0.24033  1.0000
  C   C1117     1.0  0.23998  0.95209  0.15551  1.0000
  C   C1118     1.0  0.07003  0.88498  0.29539  1.0000
  C   C1119     1.0  0.24085  0.81289  0.28096  1.0000
  C   C1120     1.0  0.21076  0.81053  0.27641  1.0000
  C   C1121     1.0  0.18806  0.81859  0.29262  1.0000
  C   C1122     1.0  0.19507  0.82935  0.31294  1.0000
  C   C1123     1.0  0.22485  0.83195  0.31730  1.0000
  C   C1124     1.0  0.24766  0.82377  0.30143  1.0000
  H   H925      1.0  0.23797  0.78103  0.29945  1.0000
  H   H926      1.0  0.22123  0.75606  0.29068  1.0000
  H   H927      1.0  0.20464  0.80265  0.25995  1.0000
  H   H928      1.0  0.16489  0.81683  0.28867  1.0000
  H   H929      1.0  0.17737  0.83587  0.32481  1.0000
  H   H930      1.0  0.23033  0.84047  0.33267  1.0000
  H   H931      1.0  0.27039  0.82621  0.30514  1.0000
  H   H932      1.0  0.06536  0.95751  0.23075  1.0000
  Fe  Fe81      1.0  0.48043  0.84302  0.00218  1.0000
  H   H933      1.0  0.09181  0.92523  0.29839  1.0000
  C   C1125     1.0  0.21808  0.94217  0.16341  1.0000
  C   C1126     1.0  0.24278  0.77608  0.27732  1.0000
  C   C1127     1.0  0.23336  0.76191  0.27247  1.0000
  H   H934      1.0  0.18781  0.78974  0.04647  1.0000
  C   C1128     1.0  0.15639  0.75755  0.03224  1.0000
  S   S157      1.0  0.13300  0.96201  0.23833  1.0000
  C   C1129     1.0  0.03832  0.91737  0.23576  1.0000
  C   C1130     1.0  0.43036  0.91433  0.42687  1.0000
  H   H935      1.0  0.31411  0.82329  0.27217  1.0000
  C   C1131     1.0  0.46673  0.88831  0.14950  1.0000
  H   H936      1.0  0.28956  0.83434  0.14465  1.0000
  P   P36       1.0  0.27004  0.80218  0.26009  1.0000
  C   C1132     1.0  0.32107  0.81265  0.28417  1.0000
  C   C1133     1.0  0.06294  0.76043  0.01861  1.0000
  C   C1134     1.0  0.25818  0.78383  0.25369  1.0000
  C   C1135     1.0  0.25343  0.97080  0.21317  1.0000
  C   C1136     1.0  0.16981  0.90322  0.30257  1.0000
  C   C1137     1.0  0.13439  0.92290  0.32025  1.0000
  C   C1138     1.0  0.04781  0.86612  0.25335  1.0000
  C   C1139     1.0  0.34684  0.81149  0.30206  1.0000
  C   C1140     1.0  0.30389  0.80035  0.28256  1.0000
  H   H937      1.0  0.22961  0.81923  0.21587  1.0000
  C   C1141     1.0  0.26387  0.97336  0.09719  1.0000
  C   C1142     1.0  0.09154  0.73958  0.06599  1.0000
  C   C1143     1.0  0.27633  0.81198  0.22304  1.0000
  C   C1144     1.0  0.35591  0.79799  0.31827  1.0000
  C   C1145     1.0  0.23940  0.75535  0.24410  1.0000
  H   H938      1.0  0.37571  0.79720  0.33242  1.0000
  C   C1146     1.0  0.30517  0.81199  0.20983  1.0000
  C   C1147     1.0  0.25212  0.81924  0.20654  1.0000
  C   C1148     1.0  0.31325  0.78676  0.29882  1.0000
  C   C1149     1.0  0.33919  0.78560  0.31655  1.0000
  H   H939      1.0  0.32411  0.80603  0.22145  1.0000
  H   H940      1.0  0.27630  0.78283  0.20681  1.0000
  S   S158      1.0  0.45276  0.87183  0.48226  1.0000
  C   C1150     1.0  0.45286  0.92212  0.43865  1.0000
  C   C1151     1.0  0.38122  0.84347  0.01287  1.0000
  H   H941      1.0  0.30058  0.77706  0.29812  1.0000
  H   H942      1.0  0.04931  0.73234  0.05219  1.0000
  C   C1152     1.0  0.37428  0.96997  0.41508  1.0000
  H   H943      1.0  0.39260  0.92347  0.00229  1.0000
  C   C1153     1.0  0.25689  0.82720  0.17828  1.0000
  P   P37       1.0  0.23047  0.97220  0.15282  1.0000
  C   C1154     1.0  0.30989  0.82001  0.18160  1.0000
  C   C1155     1.0  0.26435  0.77713  0.22533  1.0000
  H   H944      1.0  0.23815  0.83335  0.16654  1.0000
  H   H945      1.0  0.34615  0.77515  0.32927  1.0000
  H   H946      1.0  0.33227  0.82043  0.17198  1.0000
  C   C1156     1.0  0.28579  0.82775  0.16601  1.0000
  C   C1157     1.0  0.04457  0.76741  0.04126  1.0000
  C   C1158     1.0  0.04294  0.86353  0.28522  1.0000
  H   H947      1.0  0.10121  0.93565  0.24176  1.0000
  H   H948      1.0  0.43578  0.90334  0.41785  1.0000
  C   C1159     1.0  0.22599  0.92675  0.16796  1.0000
  H   H949      1.0  0.20908  0.91918  0.17446  1.0000
  C   C1160     1.0  0.25580  0.92110  0.16510  1.0000
  C   C1161     1.0  0.49789  0.87919  0.29689  1.0000
  H   H950      1.0  0.06721  0.87996  0.21760  1.0000
  C   C1162     1.0  0.48815  0.87484  0.32675  1.0000
  H   H951      1.0  0.28745  0.95382  0.14872  1.0000
  Fe  Fe82      1.0  0.02016  0.81133  0.24887  1.0000
  S   S159      1.0  0.47034  0.89934  0.02083  1.0000
  C   C1163     1.0  0.36627  0.83558  0.06509  1.0000
  C   C1164     1.0  0.08035  0.72417  0.12302  1.0000
  C   C1165     1.0  0.06548  0.73211  0.07056  1.0000
  H   H952      1.0  0.32718  0.84771  0.08367  1.0000
  H   H953      1.0  0.19186  0.89729  0.30358  1.0000
  C   C1166     1.0  0.05769  0.94631  0.23206  1.0000
  S   S160      1.0  0.02177  0.78593  0.24903  1.0000
  H   H954      1.0  0.49230  0.84787  0.20834  1.0000
  C   C1167     1.0  0.27000  0.94633  0.15329  1.0000
  H   H955      1.0  0.39038  0.96281  0.40247  1.0000
  C   C1168     1.0  0.49043  0.83843  0.16385  1.0000
  C   C1169     1.0  0.12608  0.76272  0.03456  1.0000
  C   C1170     1.0  0.43853  0.97172  0.46707  1.0000
  C   C1171     1.0  0.02762  0.94432  0.22764  1.0000
  H   H956      1.0  0.38846  0.87667  0.02675  1.0000
  C   C1172     1.0  0.01770  0.77550  0.03282  1.0000
  C   C1173     1.0  0.11355  0.91904  0.29903  1.0000
  H   H957      1.0  0.09522  0.78204  0.04359  1.0000
  C   C1174     1.0  0.05993  0.72445  0.09896  1.0000
  H   H958      1.0  0.07844  0.89217  0.31200  1.0000
  P   P38       1.0  0.40677  0.96054  0.46825  1.0000
  H   H959      1.0  0.48703  0.88249  0.24890  1.0000
  C   C1175     1.0  0.46255  0.96773  0.48698  1.0000
  C   C1176     1.0  0.37654  0.97098  0.44734  1.0000
  H   H960      1.0  0.17632  0.97297  0.19194  1.0000
  H   H961      1.0  0.46145  0.93081  0.00498  1.0000
  H   H962      1.0  0.49526  0.82872  0.11927  1.0000
  H   H963      1.0  0.00731  0.73129  0.36159  1.0000
  H   H964      1.0  0.01515  0.74733  0.31468  1.0000
  H   H965      1.0  0.30281  0.88694  0.00215  1.0000
  H   H966      1.0  0.00851  0.77460  0.41501  1.0000
  C   C1177     1.0  0.49518  0.82825  0.31270  1.0000
  H   H967      1.0  0.01187  0.95401  0.22284  1.0000
  C   C1178     1.0  0.49427  0.82101  0.28489  1.0000
  H   H968      1.0  0.26983  0.96959  0.25995  1.0000
  C   C1179     1.0  0.50501  0.84213  0.19035  1.0000
  H   H969      1.0  0.50321  0.87454  0.34619  1.0000
  C   C1180     1.0  0.10981  0.73732  0.99963  1.0000
  C   C1181     1.0  0.03983  0.77205  0.49755  1.0000
  C   C1182     1.0  0.00859  0.77636  0.00193  1.0000
  C   C1183     1.0  0.06391  0.76572  0.51517  1.0000
  H   H970      1.0  0.48737  0.92201  0.87841  1.0000
  C   C1184     1.0  0.31735  0.77432  0.67409  1.0000
  H   H971      1.0  0.42524  0.79993  0.66205  1.0000
  H   H972      1.0  0.01921  0.72413  0.87542  1.0000
  C   C1185     1.0  0.50029  0.91344  0.50560  1.0000
  H   H973      1.0  0.07876  0.75698  0.55996  1.0000
  H   H974      1.0  0.38697  0.82632  0.90829  1.0000
  H   H975      1.0  0.49330  0.84898  0.57365  1.0000
  C   C1186     1.0  0.38028  0.95461  0.93572  1.0000
  C   C1187     1.0  0.02707  0.76232  0.72040  1.0000
  C   C1188     1.0  0.31182  0.86975  0.96884  1.0000
  H   H976      1.0  0.14209  0.75746  0.73666  1.0000
  H   H977      1.0  0.44265  0.93052  0.93249  1.0000
  H   H978      1.0  0.42653  0.82400  0.68637  1.0000
  Fe  Fe83      1.0  0.48081  0.80163  0.71319  1.0000
  S   S161      1.0  0.48267  0.77636  0.71460  1.0000
  H   H979      1.0  0.01237  0.78018  0.68716  1.0000
  Fe  Fe84      1.0  0.46804  0.80221  0.78408  1.0000
  S   S162      1.0  0.46825  0.77695  0.78984  1.0000
  S   S163      1.0  0.46366  0.82127  0.81809  1.0000
  S   S164      1.0  0.47036  0.82631  0.96565  1.0000
  Fe  Fe85      1.0  0.44140  0.77839  0.74579  1.0000
  S   S165      1.0  0.40515  0.76312  0.73227  1.0000
  C   C1189     1.0  0.44489  0.90192  0.89975  1.0000
  S   S166      1.0  0.43839  0.80378  0.74194  1.0000
  C   C1190     1.0  0.40768  0.80871  0.65698  1.0000
  H   H980      1.0  0.34437  0.81700  0.61491  1.0000
  S   S167      1.0  0.15772  0.73828  0.68554  1.0000
  C   C1191     1.0  0.37725  0.79514  0.57632  1.0000
  H   H981      1.0  0.48400  0.76838  0.58306  1.0000
  C   C1192     1.0  0.47780  0.92603  0.98880  1.0000
  H   H982      1.0  0.33602  0.78821  0.51383  1.0000
  S   S168      1.0  0.27813  0.74061  0.77825  1.0000
  C   C1193     1.0  0.39466  0.95717  0.50805  1.0000
  C   C1194     1.0  0.07776  0.76011  0.79799  1.0000
  H   H983      1.0  0.05715  0.75269  0.66141  1.0000
  C   C1195     1.0  0.48226  0.94542  0.81371  1.0000
  S   S169      1.0  0.19215  0.73612  0.76970  1.0000
  C   C1196     1.0  0.38944  0.81103  0.53099  1.0000
  H   H984      1.0  0.36661  0.90573  0.89606  1.0000
  C   C1197     1.0  0.02683  0.76954  0.97925  1.0000
  H   H985      1.0  0.48413  0.84391  0.85543  1.0000
  C   C1198     1.0  0.43143  0.90546  0.60973  1.0000
  C   C1199     1.0  0.12624  0.76693  0.77942  1.0000
  H   H986      1.0  0.01981  0.77010  0.95525  1.0000
  C   C1200     1.0  0.09331  0.73452  0.62265  1.0000
  C   C1201     1.0  0.35631  0.78864  0.55870  1.0000
  C   C1202     1.0  0.47086  0.91195  0.51547  1.0000
  C   C1203     1.0  0.35219  0.79325  0.52738  1.0000
  H   H987      1.0  0.37118  0.96419  0.94827  1.0000
  H   H988      1.0  0.39100  0.88918  0.78986  1.0000
  C   C1204     1.0  0.12788  0.73140  0.66578  1.0000
  C   C1205     1.0  0.40556  0.89438  0.56905  1.0000
  H   H989      1.0  0.24899  0.89075  0.99153  1.0000
  C   C1206     1.0  0.42941  0.88343  0.56638  1.0000
  C   C1207     1.0  0.37174  0.90245  0.87263  1.0000
  H   H990      1.0  0.46296  0.80515  0.56852  1.0000
  C   C1208     1.0  0.36968  0.75714  0.74548  1.0000
  C   C1209     1.0  0.40546  0.93071  0.90164  1.0000
  H   H991      1.0  0.42881  0.87496  0.54942  1.0000
  C   C1210     1.0  0.31342  0.74668  0.76474  1.0000
  C   C1211     1.0  0.32794  0.75655  0.78259  1.0000
  C   C1212     1.0  0.35576  0.76174  0.77311  1.0000
  C   C1213     1.0  0.36511  0.94994  0.91042  1.0000
  S   S170      1.0  0.49020  0.81917  0.67354  1.0000
  H   H992      1.0  0.31748  0.76028  0.80394  1.0000
  H   H993      1.0  0.36638  0.76932  0.78719  1.0000
  C   C1214     1.0  0.46853  0.82175  0.85904  1.0000
  C   C1215     1.0  0.46054  0.81016  0.87983  1.0000
  C   C1216     1.0  0.46138  0.81179  0.91223  1.0000
  C   C1217     1.0  0.47053  0.82492  0.92443  1.0000
  C   C1218     1.0  0.47924  0.83635  0.90363  1.0000
  H   H994      1.0  0.41146  0.72926  0.78663  1.0000
  H   H995      1.0  0.45284  0.80013  0.87094  1.0000
  P   P39       1.0  0.48711  0.89395  0.63259  1.0000
  C   C1219     1.0  0.12399  0.75832  0.75364  1.0000
  S   S171      1.0  0.45301  0.94673  0.57111  1.0000
  C   C1220     1.0  0.47318  0.93065  0.68549  1.0000
  H   H996      1.0  0.50588  0.97296  0.50165  1.0000
  H   H997      1.0  0.09537  0.75282  0.87184  1.0000
  C   C1221     1.0  0.13353  0.73323  0.94923  1.0000
  H   H998      1.0  0.42502  0.90468  0.81555  1.0000
  C   C1222     1.0  0.47667  0.82759  0.56712  1.0000
  C   C1223     1.0  0.07896  0.79087  0.62519  1.0000
  C   C1224     1.0  0.25037  0.87419  0.95699  1.0000
  C   C1225     1.0  0.05069  0.76896  0.62252  1.0000
  C   C1226     1.0  0.37010  0.94187  0.54748  1.0000
  H   H999      1.0  0.10508  0.77432  0.82182  1.0000
  C   C1227     1.0  0.49619  0.76634  0.87518  1.0000
  H   H1000     1.0  0.30468  0.77804  0.69432  1.0000
  C   C1228     1.0  0.43457  0.93568  0.82602  1.0000
  H   H1001     1.0  0.35975  0.93170  0.55432  1.0000
  C   C1229     1.0  0.47744  0.92786  0.85797  1.0000
  C   C1230     1.0  0.47169  0.93416  0.54574  1.0000
  H   H1002     1.0  0.40921  0.81198  0.57555  1.0000
  H   H1003     1.0  0.34495  0.88178  0.81703  1.0000
  C   C1231     1.0  0.39704  0.96811  0.52981  1.0000
  H   H1004     1.0  0.09787  0.74351  0.73036  1.0000
  C   C1232     1.0  0.39763  0.90683  0.85724  1.0000
  H   H1005     1.0  0.31229  0.85303  0.93419  1.0000
  C   C1233     1.0  0.47475  0.81095  0.61448  1.0000
  H   H1006     1.0  0.48271  0.94719  0.96330  1.0000
  H   H1007     1.0  0.14613  0.77271  0.78243  1.0000
  H   H1008     1.0  0.38720  0.84464  0.67570  1.0000
  C   C1234     1.0  0.45658  0.92237  0.53529  1.0000
  H   H1009     1.0  0.13022  0.74790  0.62866  1.0000
  H   H1010     1.0  0.08528  0.80153  0.61513  1.0000
  H   H1011     1.0  0.08577  0.76394  0.50437  1.0000
  C   C1235     1.0  0.09744  0.74068  0.87227  1.0000
  C   C1236     1.0  0.45209  0.94481  0.80723  1.0000
  C   C1237     1.0  0.39341  0.80654  0.56230  1.0000
  C   C1238     1.0  0.49909  0.88137  0.69222  1.0000
  C   C1239     1.0  0.35957  0.88880  0.82821  1.0000
  C   C1240     1.0  0.47365  0.87691  0.93224  1.0000
  C   C1241     1.0  0.08369  0.77113  0.66582  1.0000
  H   H1012     1.0  0.10816  0.79080  0.66432  1.0000
  C   C1242     1.0  0.32744  0.74198  0.73721  1.0000
  H   H1013     1.0  0.39763  0.84256  0.99419  1.0000
  C   C1243     1.0  0.38603  0.96590  0.56016  1.0000
  H   H1014     1.0  0.31686  0.73434  0.72323  1.0000
  H   H1015     1.0  0.41683  0.86968  0.88330  1.0000
  P   P40       1.0  0.04356  0.74077  0.76774  1.0000
  C   C1244     1.0  0.35532  0.89778  0.96656  1.0000
  C   C1245     1.0  0.35523  0.74721  0.72766  1.0000
  H   H1016     1.0  0.36561  0.74353  0.70625  1.0000
  H   H1017     1.0  0.45458  0.80286  0.92802  1.0000
  C   C1246     1.0  0.02117  0.74096  0.80292  1.0000
  C   C1247     1.0  0.05972  0.76159  0.54664  1.0000
  H   H1018     1.0  0.48488  0.86737  0.94500  1.0000
  H   H1019     1.0  0.36636  0.93509  0.87289  1.0000
  H   H1020     1.0  0.13414  0.73955  0.83884  1.0000
  H   H1021     1.0  0.43199  0.91431  0.62575  1.0000
  H   H1022     1.0  0.06767  0.75654  0.96953  1.0000
  C   C1248     1.0  0.35504  0.77844  0.63398  1.0000
  C   C1249     1.0  0.00741  0.77030  0.54287  1.0000
  H   H1023     1.0  0.47000  0.80027  0.62553  1.0000
  C   C1250     1.0  0.06285  0.76334  0.65100  1.0000
  C   C1251     1.0  0.48982  0.93532  0.96524  1.0000
  H   H1024     1.0  0.42938  0.73276  0.73232  1.0000
  C   C1252     1.0  0.47066  0.81377  0.58216  1.0000
  H   H1025     1.0  0.25856  0.85703  0.92401  1.0000
  C   C1253     1.0  0.09174  0.78489  0.65295  1.0000
  H   H1026     1.0  0.47947  0.84963  0.73202  1.0000
  H   H1027     1.0  0.42028  0.95140  0.96280  1.0000
  C   C1254     1.0  0.40459  0.90190  0.82739  1.0000
  H   H1028     1.0  0.36556  0.75975  0.60471  1.0000
  C   C1255     1.0  0.40656  0.90536  0.59077  1.0000
  C   C1256     1.0  0.44727  0.92693  0.85123  1.0000
  C   C1257     1.0  0.36234  0.81837  0.63064  1.0000
  H   H1029     1.0  0.34603  0.84105  0.63998  1.0000
  Fe  Fe86      1.0  0.01381  0.73267  0.94438  1.0000
  C   C1258     1.0  0.07839  0.73260  0.89190  1.0000
  H   H1030     1.0  0.43609  0.78336  0.57504  1.0000
  C   C1259     1.0  0.35171  0.76407  0.62359  1.0000
  C   C1260     1.0  0.45161  0.88601  0.94700  1.0000
  C   C1261     1.0  0.43736  0.89849  0.93091  1.0000
  C   C1262     1.0  0.07546  0.75136  0.77221  1.0000
  C   C1263     1.0  0.09883  0.75046  0.75012  1.0000
  C   C1264     1.0  0.05860  0.78294  0.60997  1.0000
  H   H1031     1.0  0.34090  0.79410  0.66924  1.0000
  Fe  Fe87      1.0  0.18420  0.72548  0.72462  1.0000
  H   H1032     1.0  0.42037  0.90531  0.94289  1.0000
  C   C1265     1.0  0.36541  0.91168  0.97271  1.0000
  H   H1033     1.0  0.34295  0.78013  0.56893  1.0000
  H   H1034     1.0  0.45455  0.86664  0.64056  1.0000
  C   C1266     1.0  0.38549  0.89300  0.81287  1.0000
  C   C1267     1.0  0.01984  0.74912  0.73694  1.0000
  H   H1035     1.0  0.35863  0.83671  0.95299  1.0000
  C   C1268     1.0  0.36389  0.88492  0.98558  1.0000
  C   C1269     1.0  0.49491  0.93696  0.83907  1.0000
  S   S172      1.0  0.05192  0.74255  0.91613  1.0000
  C   C1270     1.0  0.26836  0.86359  0.94095  1.0000
  H   H1036     1.0  0.35913  0.92155  0.95782  1.0000
  C   C1271     1.0  0.03122  0.76343  0.56060  1.0000
  C   C1272     1.0  0.45535  0.89440  0.60740  1.0000
  C   C1273     1.0  0.03456  0.73821  0.60984  1.0000
  H   H1037     1.0  0.29785  0.75316  0.67456  1.0000
  H   H1038     1.0  0.04940  0.78768  0.58818  1.0000
  C   C1274     1.0  0.10313  0.76784  0.80156  1.0000
  C   C1275     1.0  0.35272  0.89351  0.85810  1.0000
  P   P41       1.0  0.35127  0.86695  0.97707  1.0000
  H   H1039     1.0  0.47249  0.87487  0.58298  1.0000
  H   H1040     1.0  0.48256  0.77540  0.91900  1.0000
  C   C1276     1.0  0.46680  0.89259  0.88488  1.0000
  H   H1041     1.0  0.34102  0.89702  0.94689  1.0000
  P   P42       1.0  0.38364  0.78942  0.61672  1.0000
  C   C1277     1.0  0.47801  0.83482  0.87121  1.0000
  H   H1042     1.0  0.44211  0.95193  0.78836  1.0000
  Fe  Fe88      1.0  0.47191  0.96849  0.58196  1.0000
  H   H1043     1.0  0.08960  0.74176  0.60214  1.0000
  C   C1278     1.0  0.11831  0.73863  0.63820  1.0000
  H   H1044     1.0  0.45926  0.93397  0.70514  1.0000
  H   H1045     1.0  0.14447  0.73755  0.92839  1.0000
  C   C1279     1.0  0.40796  0.94737  0.94399  1.0000
  H   H1046     1.0  0.45218  0.84752  0.68338  1.0000
  C   C1280     1.0  0.38111  0.94401  0.51715  1.0000
  H   H1047     1.0  0.43367  0.92134  0.54239  1.0000
  C   C1281     1.0  0.42058  0.93555  0.92686  1.0000
  C   C1282     1.0  0.48970  0.91220  0.64798  1.0000
  H   H1048     1.0  0.38840  0.91403  0.59253  1.0000
  H   H1049     1.0  0.38653  0.89446  0.55399  1.0000
  C   C1283     1.0  0.41852  0.77796  0.62113  1.0000
  C   C1284     1.0  0.42419  0.76950  0.64907  1.0000
  C   C1285     1.0  0.45113  0.76068  0.65320  1.0000
  C   C1286     1.0  0.47286  0.76038  0.62957  1.0000
  C   C1287     1.0  0.46723  0.76859  0.60145  1.0000
  C   C1288     1.0  0.44002  0.77722  0.59707  1.0000
  C   C1289     1.0  0.38634  0.83405  0.66487  1.0000
  C   C1290     1.0  0.40849  0.82240  0.67095  1.0000
  H   H1050     1.0  0.40781  0.76984  0.66782  1.0000
  H   H1051     1.0  0.22664  0.87586  0.95250  1.0000
  C   C1291     1.0  0.11942  0.73319  0.85350  1.0000
  C   C1292     1.0  0.48523  0.82191  0.63238  1.0000
  H   H1052     1.0  0.50103  0.84403  0.63051  1.0000
  C   C1293     1.0  0.47167  0.91651  0.67353  1.0000
  C   C1294     1.0  0.37773  0.93809  0.89326  1.0000
  P   P43       1.0  0.02610  0.75824  0.60148  1.0000
  C   C1295     1.0  0.33088  0.75507  0.63790  1.0000
  C   C1296     1.0  0.46631  0.86803  0.66173  1.0000
  H   H1053     1.0  0.09427  0.76628  0.68687  1.0000
  H   H1054     1.0  0.04802  0.76702  0.72399  1.0000
  C   C1297     1.0  0.36320  0.83202  0.64478  1.0000
  C   C1298     1.0  0.29896  0.86135  0.94683  1.0000
  H   H1055     1.0  0.44587  0.88356  0.97116  1.0000
  H   H1056     1.0  0.12907  0.75451  0.97016  1.0000
  C   C1299     1.0  0.05388  0.72693  0.58324  1.0000
  H   H1057     1.0  0.06039  0.76079  0.81574  1.0000
  P   P44       1.0  0.42376  0.91673  0.87761  1.0000
  H   H1058     1.0  0.48668  0.84640  0.91251  1.0000
  H   H1059     1.0  0.37898  0.93537  0.50101  1.0000
  C   C1300     1.0  0.33795  0.78341  0.65966  1.0000
  C   C1301     1.0  0.45422  0.88344  0.58542  1.0000
  H   H1060     1.0  0.45521  0.75430  0.67504  1.0000
  C   C1302     1.0  0.38465  0.80664  0.63652  1.0000
  C   C1303     1.0  0.46481  0.85712  0.68607  1.0000
  C   C1304     1.0  0.37143  0.85937  0.94378  1.0000
  C   C1305     1.0  0.38802  0.86854  0.92381  1.0000
  C   C1306     1.0  0.40370  0.86259  0.89833  1.0000
  C   C1307     1.0  0.40300  0.84742  0.89258  1.0000
  C   C1308     1.0  0.38678  0.83817  0.91239  1.0000
  C   C1309     1.0  0.37093  0.84410  0.93778  1.0000
  H   H1061     1.0  0.38934  0.88023  0.92794  1.0000
  H   H1062     1.0  0.41096  0.93582  0.82144  1.0000
  C   C1310     1.0  0.31364  0.76022  0.66308  1.0000
  Fe  Fe89      1.0  0.24018  0.72637  0.76444  1.0000
  Fe  Fe90      1.0  0.50173  0.96358  0.90350  1.0000
  H   H1063     1.0  0.47259  0.89485  0.86067  1.0000
  H   H1064     1.0  0.41541  0.84275  0.87304  1.0000
  C   C1311     1.0  0.02935  0.73116  0.82836  1.0000
  C   C1312     1.0  0.02384  0.73040  0.64517  1.0000
  C   C1313     1.0  0.50104  0.93574  0.53567  1.0000
  H   H1065     1.0  0.33285  0.89008  0.87015  1.0000
  C   C1314     1.0  0.37263  0.95278  0.56900  1.0000
  H   H1066     1.0  0.05990  0.73147  0.56050  1.0000
  H   H1067     1.0  0.45903  0.90285  0.50773  1.0000
  C   C1315     1.0  0.05400  0.76171  0.98750  1.0000
  C   C1316     1.0  0.49223  0.83557  0.61718  1.0000
  C   C1317     1.0  0.12475  0.74279  0.97295  1.0000
  C   C1318     1.0  0.48131  0.88021  0.90119  1.0000
  H   H1068     1.0  0.32839  0.74400  0.62984  1.0000
  S   S173      1.0  0.46970  0.83045  0.52630  1.0000
  H   H1069     1.0  0.36462  0.95103  0.59267  1.0000
  C   C1319     1.0  0.48791  0.83843  0.58485  1.0000
  H   H1070     1.0  0.45631  0.90898  0.68410  1.0000
  H   H1071     1.0  0.47879  0.75867  0.87542  1.0000
  C   C1320     1.0  0.48347  0.88026  0.66460  1.0000
  S   S174      1.0  0.45359  0.96663  0.88997  1.0000
  C   C1321     1.0  0.49744  0.87044  0.71657  1.0000
  H   H1072     1.0  0.34411  0.95591  0.90347  1.0000
  H   H1073     1.0  0.49403  0.75383  0.63311  1.0000
  H   H1074     1.0  0.40246  0.81969  0.52034  1.0000
  C   C1322     1.0  0.01256  0.73165  0.85587  1.0000
  C   C1323     1.0  0.29352  0.88039  0.98487  1.0000
  H   H1075     1.0  0.49847  0.87313  0.88981  1.0000
  C   C1324     1.0  0.48679  0.91060  0.99146  1.0000
  H   H1076     1.0  0.49372  0.95158  0.68115  1.0000
  C   C1325     1.0  0.36885  0.80438  0.51349  1.0000
  C   C1326     1.0  0.26296  0.88258  0.97894  1.0000
  H   H1077     1.0  0.46193  0.95819  0.50342  1.0000
  C   C1327     1.0  0.00672  0.76995  0.69973  1.0000
  C   C1328     1.0  0.01173  0.77453  0.51153  1.0000
  C   C1329     1.0  0.49256  0.94060  0.67197  1.0000
  C   C1330     1.0  0.48038  0.85828  0.71344  1.0000
  H   H1078     1.0  0.49557  0.95285  0.79971  1.0000
  H   H1079     1.0  0.01143  0.73729  0.66159  1.0000
  C   C1331     1.0  0.49833  0.77574  0.89970  1.0000
  S   S175      1.0  0.01432  0.72527  0.99530  1.0000
  C   C1332     1.0  0.38411  0.91281  0.99785  1.0000
  H   H1080     1.0  0.00165  0.00733  0.47948  1.0000
  H   H1081     1.0  0.61236  0.07804  0.49820  1.0000
  C   C1333     1.0  0.61600  0.02939  0.06511  1.0000
  Fe  Fe91      1.0  0.86399  0.99730  0.25170  1.0000
  C   C1334     1.0  0.71316  0.11162  0.00877  1.0000
  C   C1335     1.0  0.57456  0.05469  0.35704  1.0000
  Fe  Fe92      1.0  0.80949  0.01476  0.28049  1.0000
  S   S176      1.0  0.79182  0.03451  0.30900  1.0000
  H   H1082     1.0  0.62787  0.07176  0.04771  1.0000
  S   S177      1.0  0.83522  0.01810  0.23505  1.0000
  C   C1336     1.0  0.91389  0.00990  0.32807  1.0000
  S   S178      1.0  0.67137  0.05029  0.02740  1.0000
  H   H1083     1.0  0.63450  0.11893  0.04605  1.0000
  Fe  Fe93      1.0  0.72067  0.05126  0.01930  1.0000
  S   S179      1.0  0.75181  0.05215  0.06025  1.0000
  H   H1084     1.0  0.53878  0.20807  0.28068  1.0000
  C   C1337     1.0  0.92435  0.99473  0.32809  1.0000
  H   H1085     1.0  0.92548  0.02134  0.25897  1.0000
  C   C1338     1.0  0.58687  0.03248  0.11240  1.0000
  H   H1086     1.0  0.52907  0.06293  0.08014  1.0000
  S   S180      1.0  0.65335  0.08829  0.44949  1.0000
  C   C1339     1.0  0.68039  0.02477  0.39023  1.0000
  S   S181      1.0  0.75953  0.03023  0.45393  1.0000
  H   H1087     1.0  0.78607  0.97369  0.35940  1.0000
  C   C1340     1.0  0.77132  0.01628  0.14023  1.0000
  C   C1341     1.0  0.75362  0.01320  0.11510  1.0000
  C   C1342     1.0  0.74712  0.02408  0.09065  1.0000
  C   C1343     1.0  0.75855  0.03814  0.09087  1.0000
  C   C1344     1.0  0.77627  0.04120  0.11597  1.0000
  C   C1345     1.0  0.78253  0.03037  0.14058  1.0000
  H   H1088     1.0  0.74505  0.00231  0.11439  1.0000
  H   H1089     1.0  0.73360  0.02153  0.07145  1.0000
  H   H1090     1.0  0.78531  0.05200  0.11633  1.0000
  H   H1091     1.0  0.79626  0.03289  0.15963  1.0000
  C   C1346     1.0  0.78377  0.03319  0.34950  1.0000
  C   C1347     1.0  0.78910  0.01973  0.36732  1.0000
  C   C1348     1.0  0.78187  0.01912  0.39931  1.0000
  C   C1349     1.0  0.76834  0.03176  0.41363  1.0000
  C   C1350     1.0  0.76330  0.04528  0.39591  1.0000
  C   C1351     1.0  0.77144  0.04602  0.36411  1.0000
  H   H1092     1.0  0.79895  0.00982  0.35652  1.0000
  H   H1093     1.0  0.78678  0.00880  0.41311  1.0000
  H   H1094     1.0  0.75336  0.05516  0.40674  1.0000
  H   H1095     1.0  0.76762  0.05654  0.35062  1.0000
  H   H1096     1.0  0.61796  0.17073  0.09100  1.0000
  C   C1352     1.0  0.71165  0.99443  0.38780  1.0000
  H   H1097     1.0  0.58570  0.03263  0.13751  1.0000
  C   C1353     1.0  0.61005  0.16315  0.07495  1.0000
  C   C1354     1.0  0.58287  0.15703  0.08095  1.0000
  H   H1098     1.0  0.65638  0.05928  0.41559  1.0000
  H   H1099     1.0  0.71846  0.09264  0.04194  1.0000
  H   H1100     1.0  0.59182  0.03143  0.02255  1.0000
  C   C1355     1.0  0.86999  0.04364  0.30065  1.0000
  C   C1356     1.0  0.94732  0.99931  0.25353  1.0000
  H   H1101     1.0  0.68830  0.06726  0.37143  1.0000
  C   C1357     1.0  0.64909  0.99354  0.45370  1.0000
  C   C1358     1.0  0.97350  0.02134  0.26315  1.0000
  C   C1359     1.0  0.55302  0.09931  0.46543  1.0000
  C   C1360     1.0  0.56800  0.10611  0.44050  1.0000
  C   C1361     1.0  0.59888  0.10295  0.43664  1.0000
  C   C1362     1.0  0.61502  0.09276  0.45717  1.0000
  H   H1102     1.0  0.58688  0.20592  0.05480  1.0000
  H   H1103     1.0  0.59281  0.07399  0.09235  1.0000
  H   H1104     1.0  0.55585  0.11386  0.42423  1.0000
  H   H1105     1.0  0.61027  0.10834  0.41748  1.0000
  C   C1363     1.0  0.56669  0.09326  0.07208  1.0000
  C   C1364     1.0  0.56316  0.10329  0.04608  1.0000
  C   C1365     1.0  0.58278  0.10180  0.02044  1.0000
  C   C1366     1.0  0.60630  0.09046  0.02096  1.0000
  C   C1367     1.0  0.60981  0.08048  0.04697  1.0000
  C   C1368     1.0  0.58994  0.08180  0.07234  1.0000
  H   H1106     1.0  0.54536  0.11217  0.04569  1.0000
  C   C1369     1.0  0.69488  0.97894  0.07703  1.0000
  C   C1370     1.0  0.66736  0.05093  0.40097  1.0000
  P   P45       1.0  0.67773  0.00501  0.40002  1.0000
  Fe  Fe94      1.0  0.80928  0.98112  0.27413  1.0000
  S   S182      1.0  0.54250  0.09458  0.10458  1.0000
  C   C1371     1.0  0.94666  0.01464  0.25866  1.0000
  C   C1372     1.0  0.67558  0.10504  0.04682  1.0000
  H   H1107     1.0  0.94075  0.05374  0.28761  1.0000
  C   C1373     1.0  0.64684  0.99851  0.37991  1.0000
  C   C1374     1.0  0.97521  0.99084  0.25286  1.0000
  C   C1375     1.0  0.76122  0.98245  0.39869  1.0000
  H   H1108     1.0  0.97277  0.03321  0.26669  1.0000
  H   H1109     1.0  0.71603  0.99840  0.20736  1.0000
  C   C1376     1.0  0.61749  0.14889  0.02862  1.0000
  C   C1377     1.0  0.51774  0.17170  0.31624  1.0000
  C   C1378     1.0  0.52725  0.99550  0.00722  1.0000
  C   C1379     1.0  0.56644  0.18962  0.00189  1.0000
  H   H1110     1.0  0.63162  0.99897  0.05125  1.0000
  S   S183      1.0  0.73099  0.07223  0.48009  1.0000
  H   H1111     1.0  0.91966  0.06151  0.23665  1.0000
  C   C1380     1.0  0.62727  0.15919  0.04881  1.0000
  C   C1381     1.0  0.68533  0.05547  0.37606  1.0000
  H   H1112     1.0  0.58132  0.01127  0.34517  1.0000
  C   C1382     1.0  0.57299  0.14679  0.06105  1.0000
  C   C1383     1.0  0.59028  0.14263  0.03515  1.0000
  H   H1113     1.0  0.89984  0.02011  0.39925  1.0000
  H   H1114     1.0  0.69872  0.99459  0.33955  1.0000
  C   C1384     1.0  0.59095  0.05995  0.41744  1.0000
  H   H1115     1.0  0.53388  0.17182  0.42510  1.0000
  H   H1116     1.0  0.56558  0.06217  0.02248  1.0000
  C   C1385     1.0  0.56269  0.17812  0.38708  1.0000
  C   C1386     1.0  0.74254  0.98364  0.34630  1.0000
  C   C1387     1.0  0.73472  0.99015  0.40882  1.0000
  S   S184      1.0  0.50860  0.13226  0.13814  1.0000
  H   H1117     1.0  0.96124  0.02422  0.45463  1.0000
  C   C1388     1.0  0.50909  0.13047  0.25662  1.0000
  H   H1118     1.0  0.82130  0.04412  0.43541  1.0000
  H   H1119     1.0  0.67701  0.19473  0.08399  1.0000
  C   C1389     1.0  0.70800  0.97696  0.22987  1.0000
  H   H1120     1.0  0.66802  0.09745  0.06522  1.0000
  C   C1390     1.0  0.65152  0.20696  0.01232  1.0000
  H   H1121     1.0  0.64840  0.16394  0.04495  1.0000
  H   H1122     1.0  0.53558  0.08722  0.34682  1.0000
  H   H1123     1.0  0.55207  0.14190  0.06607  1.0000
  C   C1391     1.0  0.51372  0.09210  0.27165  1.0000
  C   C1392     1.0  0.76522  0.97930  0.36742  1.0000
  C   C1393     1.0  0.65508  0.97764  0.11557  1.0000
  H   H1124     1.0  0.57106  0.16664  0.38318  1.0000
  H   H1125     1.0  0.77911  0.97937  0.41490  1.0000
  C   C1394     1.0  0.64598  0.98312  0.37552  1.0000
  H   H1126     1.0  0.97776  0.03898  0.32345  1.0000
  C   C1395     1.0  0.51179  0.09132  0.30409  1.0000
  Fe  Fe95      1.0  0.80414  0.00244  0.21591  1.0000
  S   S185      1.0  0.77888  0.00208  0.17027  1.0000
  C   C1396     1.0  0.70025  0.04475  0.35774  1.0000
  H   H1127     1.0  0.71108  0.02146  0.35115  1.0000
  H   H1128     1.0  0.71444  0.04827  0.33855  1.0000
  C   C1397     1.0  0.98438  0.02644  0.45071  1.0000
  C   C1398     1.0  0.60009  0.08592  0.48221  1.0000
  C   C1399     1.0  0.94498  0.05108  0.35248  1.0000
  C   C1400     1.0  0.93988  0.06335  0.37141  1.0000
  H   H1129     1.0  0.62273  0.19783  0.09608  1.0000
  Fe  Fe96      1.0  0.68082  0.07280  0.48335  1.0000
  C   C1401     1.0  0.64401  0.99207  0.48584  1.0000
  C   C1402     1.0  0.62075  0.20894  0.01904  1.0000
  H   H1130     1.0  0.63730  0.02688  0.05352  1.0000
  H   H1131     1.0  0.73277  0.99297  0.43288  1.0000
  H   H1132     1.0  0.63476  0.13508  0.37198  1.0000
  H   H1133     1.0  0.58412  0.13444  0.34994  1.0000
  C   C1403     1.0  0.69816  0.02946  0.36496  1.0000
  H   H1134     1.0  0.91825  0.06593  0.38217  1.0000
  C   C1404     1.0  0.63079  0.20028  0.07264  1.0000
  H   H1135     1.0  0.71288  0.98977  0.15447  1.0000
  C   C1405     1.0  0.99602  0.05753  0.34346  1.0000
  C   C1406     1.0  0.56230  0.03514  0.06238  1.0000
  C   C1407     1.0  0.64706  0.11162  0.36602  1.0000
  C   C1408     1.0  0.62781  0.12473  0.36368  1.0000
  C   C1409     1.0  0.59933  0.12437  0.35145  1.0000
  C   C1410     1.0  0.59014  0.11093  0.34141  1.0000
  C   C1411     1.0  0.60939  0.09770  0.34352  1.0000
  C   C1412     1.0  0.63788  0.09816  0.35604  1.0000
  P   P46       1.0  0.59822  0.08022  0.33016  1.0000
  C   C1413     1.0  0.62900  0.07215  0.30712  1.0000
  C   C1414     1.0  0.58944  0.06746  0.36239  1.0000
  C   C1415     1.0  0.59750  0.07002  0.39279  1.0000
  C   C1416     1.0  0.64640  0.99206  0.06684  1.0000
  C   C1417     1.0  0.97331  0.04823  0.33860  1.0000
  C   C1418     1.0  0.67587  0.98827  0.05760  1.0000
  C   C1419     1.0  0.53465  0.01005  0.01200  1.0000
  C   C1420     1.0  0.64458  0.08149  0.28648  1.0000
  C   C1421     1.0  0.66893  0.07552  0.26912  1.0000
  C   C1422     1.0  0.67793  0.06019  0.27218  1.0000
  C   C1423     1.0  0.66254  0.05081  0.29257  1.0000
  C   C1424     1.0  0.63829  0.05675  0.31015  1.0000
  C   C1425     1.0  0.56508  0.08403  0.30692  1.0000
  C   C1426     1.0  0.56679  0.08471  0.27428  1.0000
  C   C1427     1.0  0.96275  0.07258  0.37639  1.0000
  C   C1428     1.0  0.56912  0.08924  0.48638  1.0000
  C   C1429     1.0  0.96573  0.99948  0.36010  1.0000
  C   C1430     1.0  0.87583  0.05491  0.24872  1.0000
  H   H1136     1.0  0.66879  0.11176  0.37645  1.0000
  C   C1431     1.0  0.66449  0.03565  0.40779  1.0000
  H   H1137     1.0  0.56804  0.11104  0.33200  1.0000
  H   H1138     1.0  0.65287  0.08807  0.35850  1.0000
  H   H1139     1.0  0.60904  0.07970  0.39768  1.0000
  H   H1140     1.0  0.71040  0.98068  0.25311  1.0000
  C   C1432     1.0  0.61054  0.20516  0.04925  1.0000
  C   C1433     1.0  0.54068  0.20781  0.39727  1.0000
  H   H1141     1.0  0.63799  0.09343  0.28391  1.0000
  H   H1142     1.0  0.68099  0.08280  0.25338  1.0000
  H   H1143     1.0  0.69701  0.05559  0.25893  1.0000
  H   H1144     1.0  0.66984  0.03895  0.29518  1.0000
  H   H1145     1.0  0.62738  0.04929  0.32637  1.0000
  H   H1146     1.0  0.58784  0.08245  0.26218  1.0000
  C   C1434     1.0  0.70393  0.10227  0.03351  1.0000
  C   C1435     1.0  0.54169  0.18104  0.41072  1.0000
  H   H1147     1.0  0.56953  0.16007  0.10124  1.0000
  S   S186      1.0  0.91426  0.99010  0.24784  1.0000
  C   C1436     1.0  0.84150  0.05464  0.39503  1.0000
  C   C1437     1.0  0.67160  0.00227  0.44154  1.0000
  H   H1148     1.0  0.63479  0.02786  0.11081  1.0000
  H   H1149     1.0  0.65050  0.03238  0.42731  1.0000
  C   C1438     1.0  0.61451  0.02978  0.09744  1.0000
  C   C1439     1.0  0.68878  0.00946  0.46209  1.0000
  C   C1440     1.0  0.88394  0.02989  0.39791  1.0000
  C   C1441     1.0  0.57660  0.04714  0.41191  1.0000
  C   C1442     1.0  0.86466  0.05358  0.37292  1.0000
  C   C1443     1.0  0.89989  0.04557  0.30704  1.0000
  H   H1150     1.0  0.62328  0.02054  0.37244  1.0000
  C   C1444     1.0  0.56078  0.03490  0.09499  1.0000
  H   H1151     1.0  0.85583  0.03833  0.31784  1.0000
  C   C1445     1.0  0.71109  0.98693  0.20415  1.0000
  H   H1152     1.0  0.89388  0.01368  0.31533  1.0000
  H   H1153     1.0  0.91252  0.98706  0.31526  1.0000
  S   S187      1.0  0.77675  0.00056  0.26009  1.0000
  H   H1154     1.0  0.63503  0.98805  0.43863  1.0000
  S   S188      1.0  0.67989  0.04785  0.48094  1.0000
  C   C1446     1.0  0.59878  0.98809  0.34923  1.0000
  Fe  Fe97      1.0  0.50669  0.11374  0.10530  1.0000
  H   H1155     1.0  0.51110  0.20090  0.07046  1.0000
  H   H1156     1.0  0.83477  0.04716  0.26720  1.0000
  C   C1447     1.0  0.70944  0.98197  0.17409  1.0000
  C   C1448     1.0  0.63610  0.98692  0.09598  1.0000
  C   C1449     1.0  0.54116  0.08872  0.25676  1.0000
  H   H1157     1.0  0.68386  0.99253  0.03516  1.0000
  H   H1158     1.0  0.82460  0.06404  0.39361  1.0000
  H   H1159     1.0  0.61331  0.99003  0.10319  1.0000
  P   P47       1.0  0.91519  0.03949  0.34467  1.0000
  H   H1160     1.0  0.53554  0.16275  0.31545  1.0000
  C   C1450     1.0  0.92952  0.02003  0.34377  1.0000
  C   C1451     1.0  0.00138  0.01287  0.26252  1.0000
  H   H1161     1.0  0.98600  0.99546  0.37220  1.0000
  C   C1452     1.0  0.95502  0.01460  0.36066  1.0000
  C   C1453     1.0  0.95051  0.98957  0.34363  1.0000
  H   H1162     1.0  0.59728  0.06206  0.44086  1.0000
  C   C1454     1.0  0.85796  0.04852  0.27180  1.0000
  C   C1455     1.0  0.99079  0.06969  0.36237  1.0000
  H   H1163     1.0  0.96686  0.02201  0.37403  1.0000
  C   C1456     1.0  0.66134  0.19854  0.06584  1.0000
  C   C1457     1.0  0.00204  0.99754  0.25732  1.0000
  C   C1458     1.0  0.59007  0.03200  0.04761  1.0000
  H   H1164     1.0  0.70582  0.01648  0.45325  1.0000
  H   H1165     1.0  0.53283  0.13161  0.25492  1.0000
  H   H1166     1.0  0.58026  0.98405  0.33735  1.0000
  S   S189      1.0  0.84018  0.99511  0.29808  1.0000
  C   C1459     1.0  0.71582  0.99111  0.35641  1.0000
  H   H1167     1.0  0.97382  0.04625  0.42108  1.0000
  H   H1168     1.0  0.55732  0.03456  0.37742  1.0000
  S   S190      1.0  0.83468  0.98185  0.22905  1.0000
  C   C1460     1.0  0.53222  0.21759  0.26504  1.0000
  C   C1461     1.0  0.56213  0.20481  0.37376  1.0000
  C   C1462     1.0  0.53729  0.08722  0.32168  1.0000
  H   H1169     1.0  0.86557  0.06232  0.35459  1.0000
  H   H1170     1.0  0.53950  0.03660  0.10700  1.0000
  Fe  Fe98      1.0  0.73001  0.04720  0.48108  1.0000
  H   H1171     1.0  0.56801  0.05256  0.33373  1.0000
  H   H1172     1.0  0.86656  0.05833  0.22615  1.0000
  S   S191      1.0  0.50728  0.13930  0.40901  1.0000
  C   C1463     1.0  0.56848  0.04448  0.38167  1.0000
  C   C1464     1.0  0.51885  0.01870  0.03405  1.0000
  C   C1465     1.0  0.86072  0.03101  0.41997  1.0000
  C   C1466     1.0  0.99147  0.03886  0.43180  1.0000
  H   H1173     1.0  0.69554  0.15464  0.01673  1.0000
  H   H1174     1.0  0.76213  0.97377  0.14985  1.0000
  H   H1175     1.0  0.74595  0.98135  0.32197  1.0000
  C   C1467     1.0  0.62328  0.00864  0.36904  1.0000
  C   C1468     1.0  0.88603  0.04116  0.37411  1.0000
  P   P48       1.0  0.52874  0.03749  0.03971  1.0000
  C   C1469     1.0  0.91762  0.05219  0.28376  1.0000
  C   C1470     1.0  0.90568  0.05671  0.25468  1.0000
  H   H1176     1.0  0.69536  0.20040  0.03034  1.0000
  H   H1177     1.0  0.54268  0.08961  0.23160  1.0000
  C   C1471     1.0  0.83956  0.04338  0.41856  1.0000
  H   H1178     1.0  0.85872  0.02218  0.43792  1.0000
  C   C1472     1.0  0.53080  0.19581  0.41591  1.0000
  H   H1179     1.0  0.55541  0.21211  0.45987  1.0000
  C   C1473     1.0  0.65660  0.11730  0.03580  1.0000
  C   C1474     1.0  0.57295  0.19000  0.36862  1.0000
  C   C1475     1.0  0.66592  0.12697  0.01139  1.0000
  H   H1180     1.0  0.57060  0.21382  0.35935  1.0000
  H   H1181     1.0  0.58264  0.13425  0.02076  1.0000
  H   H1182     1.0  0.95861  0.08210  0.39085  1.0000
  H   H1183     1.0  0.58942  0.18774  0.35044  1.0000
  H   H1184     1.0  0.52547  0.17988  0.26935  1.0000
  H   H1185     1.0  0.57176  0.03934  0.43114  1.0000
  C   C1476     1.0  0.59938  0.00343  0.35367  1.0000
  H   H1186     1.0  0.58702  0.18483  0.01232  1.0000
  H   H1187     1.0  0.66373  0.97512  0.38411  1.0000
  S   S192      1.0  0.51426  0.10332  0.47067  1.0000
  H   H1188     1.0  0.57835  0.02346  0.49345  1.0000
  H   H1189     1.0  0.95901  0.97790  0.34272  1.0000
  H   H1190     1.0  0.57986  0.10946  0.00022  1.0000
  S   S193      1.0  0.50673  0.16990  0.08942  1.0000
  S   S194      1.0  0.51586  0.13177  0.31959  1.0000
  H   H1191     1.0  0.50686  0.99573  0.46667  1.0000
  H   H1192     1.0  0.51464  0.19793  0.43444  1.0000
  C   C1477     1.0  0.51187  0.18141  0.29015  1.0000
  H   H1193     1.0  0.81173  0.97463  0.12638  1.0000
  H   H1194     1.0  0.97606  0.97899  0.24882  1.0000
  C   C1478     1.0  0.53626  0.04721  0.00307  1.0000
  C   C1479     1.0  0.67166  0.20176  0.03563  1.0000
  C   C1480     1.0  0.68383  0.00786  0.49418  1.0000
  H   H1195     1.0  0.54344  0.16985  0.01404  1.0000
  H   H1196     1.0  0.71755  0.97621  0.06917  1.0000
  C   C1481     1.0  0.62207  0.97794  0.36019  1.0000
  C   C1482     1.0  0.54197  0.18093  0.00240  1.0000
  H   H1197     1.0  0.50687  0.04842  0.39579  1.0000
  H   H1198     1.0  0.62613  0.98569  0.49519  1.0000
  C   C1483     1.0  0.55525  0.05890  0.00167  1.0000
  C   C1484     1.0  0.58191  0.02380  0.76495  1.0000
  H   H1199     1.0  0.96389  0.19393  0.65629  1.0000
  H   H1200     1.0  0.56538  0.99264  0.93827  1.0000
  S   S195      1.0  0.54238  0.00235  0.52595  1.0000
  Fe  Fe99      1.0  0.71462  0.05565  0.94847  1.0000
  S   S196      1.0  0.72809  0.05897  0.89756  1.0000
  H   H1201     1.0  0.88812  0.20721  0.71458  1.0000
  S   S197      1.0  0.66518  0.05475  0.95191  1.0000
  Fe  Fe100     1.0  0.68203  0.04765  0.53284  1.0000
  S   S198      1.0  0.65712  0.03270  0.56642  1.0000
  Fe  Fe101     1.0  0.72945  0.07012  0.53266  1.0000
  S   S199      1.0  0.76251  0.08258  0.55923  1.0000
  S   S200      1.0  0.67921  0.07280  0.53561  1.0000
  S   S201      1.0  0.73215  0.04492  0.53332  1.0000
  Fe  Fe102     1.0  0.81932  0.11320  0.79365  1.0000
  S   S202      1.0  0.78401  0.12424  0.76211  1.0000
  S   S203      1.0  0.81036  0.10926  0.84537  1.0000
  Fe  Fe103     1.0  0.86705  0.11255  0.74218  1.0000
  S   S204      1.0  0.83477  0.12314  0.70623  1.0000
  S   S205      1.0  0.91517  0.10539  0.72793  1.0000
  Fe  Fe104     1.0  0.81927  0.13863  0.74380  1.0000
  S   S206      1.0  0.81134  0.16354  0.73184  1.0000
  Fe  Fe105     1.0  0.80175  0.10783  0.72703  1.0000
  S   S207      1.0  0.76559  0.09626  0.70318  1.0000
  S   S208      1.0  0.85364  0.12913  0.77815  1.0000
  S   S209      1.0  0.83508  0.09572  0.76019  1.0000
  C   C1485     1.0  0.94769  0.11322  0.74047  1.0000
  C   C1486     1.0  0.94606  0.12614  0.75752  1.0000
  C   C1487     1.0  0.97244  0.13212  0.76647  1.0000
  H   H1202     1.0  0.65176  0.18497  0.64451  1.0000
  C   C1488     1.0  0.53699  0.21000  0.97462  1.0000
  C   C1489     1.0  0.97601  0.10641  0.73253  1.0000
  H   H1203     1.0  0.92450  0.13156  0.76368  1.0000
  C   C1490     1.0  0.00075  0.12528  0.75863  1.0000
  C   C1491     1.0  0.52268  0.04344  0.97585  1.0000
  H   H1204     1.0  0.97754  0.09645  0.71928  1.0000
  C   C1492     1.0  0.78423  0.17413  0.75342  1.0000
  C   C1493     1.0  0.77883  0.18954  0.74601  1.0000
  C   C1494     1.0  0.75652  0.19820  0.76183  1.0000
  C   C1495     1.0  0.74568  0.17620  0.79355  1.0000
  C   C1496     1.0  0.76766  0.16747  0.77733  1.0000
  H   H1205     1.0  0.79179  0.19480  0.72782  1.0000
  H   H1206     1.0  0.73342  0.17100  0.81227  1.0000
  H   H1207     1.0  0.77182  0.15561  0.78336  1.0000
  C   C1497     1.0  0.76231  0.08662  0.59920  1.0000
  C   C1498     1.0  0.73969  0.08254  0.61989  1.0000
  C   C1499     1.0  0.74097  0.08562  0.65160  1.0000
  C   C1500     1.0  0.76477  0.09286  0.66296  1.0000
  C   C1501     1.0  0.78692  0.09734  0.64213  1.0000
  C   C1502     1.0  0.78575  0.09417  0.61048  1.0000
  H   H1208     1.0  0.72129  0.07695  0.61144  1.0000
  H   H1209     1.0  0.72347  0.08231  0.66740  1.0000
  H   H1210     1.0  0.80511  0.10313  0.65043  1.0000
  H   H1211     1.0  0.80319  0.09752  0.59462  1.0000
  C   C1503     1.0  0.74947  0.07371  0.88370  1.0000
  C   C1504     1.0  0.76514  0.08178  0.90390  1.0000
  C   C1505     1.0  0.78336  0.09283  0.89190  1.0000
  C   C1506     1.0  0.78607  0.09588  0.85969  1.0000
  C   C1507     1.0  0.76959  0.08820  0.83958  1.0000
  C   C1508     1.0  0.75139  0.07713  0.85153  1.0000
  H   H1212     1.0  0.76386  0.07923  0.92869  1.0000
  H   H1213     1.0  0.79598  0.09879  0.90759  1.0000
  H   H1214     1.0  0.77112  0.09080  0.81486  1.0000
  H   H1215     1.0  0.73895  0.07110  0.83582  1.0000
  C   C1509     1.0  0.56796  0.01573  0.92244  1.0000
  C   C1510     1.0  0.58358  0.02848  0.92456  1.0000
  C   C1511     1.0  0.60736  0.02840  0.94510  1.0000
  C   C1512     1.0  0.61669  0.01537  0.96283  1.0000
  C   C1513     1.0  0.60141  0.00245  0.96033  1.0000
  C   C1514     1.0  0.57702  0.00263  0.94019  1.0000
  H   H1216     1.0  0.57713  0.03855  0.91044  1.0000
  H   H1217     1.0  0.63298  0.21590  0.72163  1.0000
  H   H1218     1.0  0.90623  0.18871  0.63255  1.0000
  C   C1515     1.0  0.58737  0.02110  0.51644  1.0000
  C   C1516     1.0  0.61273  0.02801  0.52509  1.0000
  C   C1517     1.0  0.62480  0.02479  0.55465  1.0000
  C   C1518     1.0  0.61121  0.01478  0.57547  1.0000
  C   C1519     1.0  0.66163  0.20508  0.57645  1.0000
  C   C1520     1.0  0.61989  0.20879  0.89903  1.0000
  H   H1219     1.0  0.62081  0.01207  0.59809  1.0000
  H   H1220     1.0  0.57130  0.03395  0.85102  1.0000
  H   H1221     1.0  0.68622  0.08044  0.77155  1.0000
  C   C1521     1.0  0.57827  0.08099  0.84995  1.0000
  H   H1222     1.0  0.57649  0.09335  0.89161  1.0000
  C   C1522     1.0  0.66314  0.19126  0.62640  1.0000
  C   C1523     1.0  0.56250  0.03134  0.63217  1.0000
  C   C1524     1.0  0.64740  0.19685  0.59997  1.0000
  H   H1223     1.0  0.55763  0.08399  0.50579  1.0000
  H   H1224     1.0  0.62406  0.19494  0.59783  1.0000
  C   C1525     1.0  0.86946  0.17666  0.62020  1.0000
  H   H1225     1.0  0.97094  0.14210  0.77960  1.0000
  C   C1526     1.0  0.67541  0.01018  0.90604  1.0000
  H   H1226     1.0  0.53881  0.01494  0.77031  1.0000
  C   C1527     1.0  0.52130  0.06300  0.75020  1.0000
  H   H1227     1.0  0.55287  0.06799  0.92406  1.0000
  H   H1228     1.0  0.71038  0.13633  0.62378  1.0000
  P   P49       1.0  0.92073  0.17897  0.69725  1.0000
  C   C1528     1.0  0.59114  0.06840  0.83527  1.0000
  C   C1529     1.0  0.94894  0.20248  0.66659  1.0000
  H   H1229     1.0  0.72111  0.06146  0.74731  1.0000
  H   H1230     1.0  0.61418  0.20170  0.88095  1.0000
  C   C1530     1.0  0.74547  0.19759  0.66773  1.0000
  H   H1231     1.0  0.59102  0.01149  0.64522  1.0000
  Fe  Fe106     1.0  0.67364  0.03558  0.98673  1.0000
  H   H1232     1.0  0.76996  0.13964  0.69925  1.0000
  C   C1531     1.0  0.70749  0.20206  0.60566  1.0000
  C   C1532     1.0  0.65841  0.04872  0.80390  1.0000
  C   C1533     1.0  0.58203  0.12624  0.92085  1.0000
  H   H1233     1.0  0.58484  0.02076  0.74100  1.0000
  H   H1234     1.0  0.53226  0.02164  0.82533  1.0000
  C   C1534     1.0  0.68911  0.19083  0.69775  1.0000
  H   H1235     1.0  0.61678  0.10821  0.91654  1.0000
  H   H1236     1.0  0.70987  0.17281  0.72782  1.0000
  C   C1535     1.0  0.64918  0.20621  0.72255  1.0000
  H   H1237     1.0  0.93224  0.14761  0.68025  1.0000
  C   C1536     1.0  0.62762  0.12349  0.95042  1.0000
  S   S210      1.0  0.50831  0.20789  0.52881  1.0000
  C   C1537     1.0  0.93095  0.20105  0.84202  1.0000
  C   C1538     1.0  0.70364  0.10569  0.92030  1.0000
  C   C1539     1.0  0.68622  0.09457  0.91116  1.0000
  C   C1540     1.0  0.67154  0.09634  0.88279  1.0000
  C   C1541     1.0  0.67393  0.10932  0.86368  1.0000
  C   C1542     1.0  0.69188  0.12045  0.87242  1.0000
  C   C1543     1.0  0.70652  0.11861  0.90105  1.0000
  P   P50       1.0  0.69604  0.13684  0.84676  1.0000
  C   C1544     1.0  0.72934  0.14531  0.85686  1.0000
  C   C1545     1.0  0.70063  0.13101  0.80718  1.0000
  C   C1546     1.0  0.71331  0.11650  0.80132  1.0000
  C   C1547     1.0  0.71701  0.11199  0.77082  1.0000
  C   C1548     1.0  0.70886  0.12202  0.74585  1.0000
  C   C1549     1.0  0.69681  0.13656  0.75138  1.0000
  C   C1550     1.0  0.69263  0.14103  0.78189  1.0000
  C   C1551     1.0  0.72787  0.15681  0.87793  1.0000
  C   C1552     1.0  0.75361  0.16364  0.88490  1.0000
  C   C1553     1.0  0.78104  0.15883  0.87141  1.0000
  C   C1554     1.0  0.78278  0.14711  0.85120  1.0000
  C   C1555     1.0  0.75707  0.14035  0.84399  1.0000
  C   C1556     1.0  0.66395  0.15037  0.85017  1.0000
  C   C1557     1.0  0.63704  0.14610  0.86360  1.0000
  C   C1558     1.0  0.61236  0.15665  0.86590  1.0000
  C   C1559     1.0  0.61433  0.17152  0.85488  1.0000
  C   C1560     1.0  0.64111  0.17591  0.84184  1.0000
  C   C1561     1.0  0.66577  0.16541  0.83954  1.0000
  H   H1238     1.0  0.71574  0.10399  0.94186  1.0000
  C   C1562     1.0  0.57060  0.01828  0.65034  1.0000
  H   H1239     1.0  0.65904  0.08741  0.87531  1.0000
  H   H1240     1.0  0.66253  0.11047  0.84167  1.0000
  H   H1241     1.0  0.72084  0.12686  0.90824  1.0000
  H   H1242     1.0  0.72106  0.10876  0.82022  1.0000
  H   H1243     1.0  0.72755  0.10093  0.76637  1.0000
  H   H1244     1.0  0.71278  0.11863  0.72222  1.0000
  C   C1563     1.0  0.73966  0.19157  0.78557  1.0000
  H   H1245     1.0  0.68363  0.15236  0.78554  1.0000
  H   H1246     1.0  0.70691  0.16058  0.88884  1.0000
  H   H1247     1.0  0.75231  0.17271  0.90060  1.0000
  H   H1248     1.0  0.80101  0.16410  0.87667  1.0000
  H   H1249     1.0  0.80410  0.14316  0.84106  1.0000
  H   H1250     1.0  0.75909  0.13122  0.82843  1.0000
  H   H1251     1.0  0.63497  0.13467  0.87226  1.0000
  H   H1252     1.0  0.59160  0.15327  0.87603  1.0000
  H   H1253     1.0  0.59506  0.17962  0.85635  1.0000
  H   H1254     1.0  0.64294  0.18746  0.83334  1.0000
  H   H1255     1.0  0.68627  0.16909  0.82945  1.0000
  H   H1256     1.0  0.68628  0.04235  0.86351  1.0000
  C   C1564     1.0  0.76499  0.04064  0.61332  1.0000
  C   C1565     1.0  0.73557  0.04414  0.62320  1.0000
  C   C1566     1.0  0.72964  0.04797  0.65386  1.0000
  C   C1567     1.0  0.75310  0.04827  0.67466  1.0000
  C   C1568     1.0  0.78266  0.04449  0.66500  1.0000
  C   C1569     1.0  0.78842  0.04074  0.63412  1.0000
  P   P51       1.0  0.81311  0.04370  0.69198  1.0000
  C   C1570     1.0  0.79859  0.04474  0.73129  1.0000
  C   C1571     1.0  0.83472  0.02587  0.68844  1.0000
  C   C1572     1.0  0.82041  0.01308  0.68177  1.0000
  C   C1573     1.0  0.83690  0.99923  0.67914  1.0000
  C   C1574     1.0  0.86778  0.99801  0.68319  1.0000
  C   C1575     1.0  0.88219  0.01065  0.68990  1.0000
  C   C1576     1.0  0.86577  0.02454  0.69253  1.0000
  C   C1577     1.0  0.79448  0.03167  0.74994  1.0000
  C   C1578     1.0  0.78390  0.03273  0.78059  1.0000
  C   C1579     1.0  0.77733  0.04681  0.79277  1.0000
  C   C1580     1.0  0.78100  0.05982  0.77416  1.0000
  C   C1581     1.0  0.79140  0.05881  0.74355  1.0000
  C   C1582     1.0  0.83655  0.05899  0.68427  1.0000
  C   C1583     1.0  0.83595  0.06721  0.65554  1.0000
  C   C1584     1.0  0.85451  0.07889  0.65003  1.0000
  C   C1585     1.0  0.87354  0.08254  0.67320  1.0000
  C   C1586     1.0  0.87425  0.07442  0.70181  1.0000
  C   C1587     1.0  0.85583  0.06273  0.70739  1.0000
  H   H1257     1.0  0.76965  0.03800  0.58939  1.0000
  H   H1258     1.0  0.71743  0.04417  0.60693  1.0000
  H   H1259     1.0  0.70688  0.05102  0.66121  1.0000
  H   H1260     1.0  0.74804  0.05155  0.69806  1.0000
  H   H1261     1.0  0.81107  0.03793  0.62605  1.0000
  H   H1262     1.0  0.79646  0.01380  0.67868  1.0000
  C   C1588     1.0  0.56831  0.21348  0.75522  1.0000
  H   H1263     1.0  0.71673  0.03431  0.75974  1.0000
  S   S211      1.0  0.53702  0.01683  0.89772  1.0000
  H   H1264     1.0  0.87749  0.03414  0.69768  1.0000
  H   H1265     1.0  0.79967  0.02066  0.74110  1.0000
  H   H1266     1.0  0.78113  0.02265  0.79509  1.0000
  H   H1267     1.0  0.76954  0.04766  0.81666  1.0000
  H   H1268     1.0  0.77603  0.07075  0.78343  1.0000
  H   H1269     1.0  0.79418  0.06905  0.72957  1.0000
  H   H1270     1.0  0.82089  0.06491  0.63747  1.0000
  H   H1271     1.0  0.85367  0.08530  0.62795  1.0000
  H   H1272     1.0  0.88759  0.09176  0.66923  1.0000
  H   H1273     1.0  0.88891  0.07734  0.71982  1.0000
  H   H1274     1.0  0.85659  0.05667  0.72986  1.0000
  C   C1589     1.0  0.95472  0.16690  0.69275  1.0000
  H   H1275     1.0  0.69119  0.14443  0.73193  1.0000
  C   C1590     1.0  0.87001  0.21801  0.78195  1.0000
  H   H1276     1.0  0.83617  0.15109  0.66726  1.0000
  S   S212      1.0  0.52453  0.97924  0.67977  1.0000
  C   C1591     1.0  0.51720  0.03560  0.66333  1.0000
  H   H1277     1.0  0.51913  0.04763  0.92635  1.0000
  C   C1592     1.0  0.98232  0.17173  0.70095  1.0000
  C   C1593     1.0  0.95334  0.15192  0.68509  1.0000
  C   C1594     1.0  0.55623  0.21686  0.78441  1.0000
  H   H1278     1.0  0.94905  0.17860  0.85554  1.0000
  H   H1279     1.0  0.57202  0.22103  0.70694  1.0000
  C   C1595     1.0  0.55214  0.01383  0.67491  1.0000
  H   H1280     1.0  0.95063  0.16768  0.75549  1.0000
  H   H1281     1.0  0.70952  0.02572  0.90520  1.0000
  H   H1282     1.0  0.68520  0.00314  0.92512  1.0000
  H   H1283     1.0  0.63792  0.99701  0.90218  1.0000
  C   C1596     1.0  0.67570  0.03233  0.87125  1.0000
  C   C1597     1.0  0.60751  0.07370  0.89572  1.0000
  C   C1598     1.0  0.77415  0.19145  0.65935  1.0000
  C   C1599     1.0  0.60627  0.20752  0.92844  1.0000
  H   H1284     1.0  0.60849  0.99227  0.97387  1.0000
  C   C1600     1.0  0.68900  0.02291  0.89494  1.0000
  H   H1285     1.0  0.90615  0.00972  0.69304  1.0000
  H   H1286     1.0  0.75251  0.21001  0.75569  1.0000
  H   H1287     1.0  0.53044  0.04007  0.56742  1.0000
  S   S213      1.0  0.71063  0.20212  0.80505  1.0000
  C   C1601     1.0  0.64869  0.00676  0.89317  1.0000
  C   C1602     1.0  0.91696  0.16848  0.79114  1.0000
  C   C1603     1.0  0.65280  0.16619  0.95390  1.0000
  H   H1288     1.0  0.93207  0.16351  0.80885  1.0000
  C   C1604     1.0  0.72380  0.16717  0.66306  1.0000
  C   C1605     1.0  0.74190  0.21234  0.67758  1.0000
  C   C1606     1.0  0.67870  0.03803  0.79048  1.0000
  H   H1289     1.0  0.58318  0.15433  0.97066  1.0000
  C   C1607     1.0  0.92737  0.17082  0.76062  1.0000
  H   H1290     1.0  0.52721  0.04313  0.72460  1.0000
  H   H1291     1.0  0.63635  0.05350  0.89368  1.0000
  C   C1608     1.0  0.69320  0.19401  0.62965  1.0000
  C   C1609     1.0  0.59077  0.14430  0.95881  1.0000
  C   C1610     1.0  0.63508  0.01627  0.86977  1.0000
  C   C1611     1.0  0.64842  0.02921  0.85872  1.0000
  H   H1292     1.0  0.54185  0.98056  0.74335  1.0000
  C   C1612     1.0  0.74090  0.13625  0.66162  1.0000
  C   C1613     1.0  0.58656  0.08367  0.88011  1.0000
  C   C1614     1.0  0.89302  0.21206  0.87659  1.0000
  H   H1293     1.0  0.52333  0.17896  0.50422  1.0000
  C   C1615     1.0  0.54804  0.06239  0.94616  1.0000
  C   C1616     1.0  0.62034  0.06110  0.88110  1.0000
  H   H1294     1.0  0.61393  0.01355  0.86109  1.0000
  S   S214      1.0  0.72364  0.03503  0.98075  1.0000
  C   C1617     1.0  0.90768  0.17662  0.73711  1.0000
  C   C1618     1.0  0.61820  0.13634  0.96638  1.0000
  S   S215      1.0  0.51732  0.97858  0.86372  1.0000
  C   C1619     1.0  0.88690  0.17202  0.79856  1.0000
  C   C1620     1.0  0.70367  0.05789  0.76305  1.0000
  C   C1621     1.0  0.97923  0.14210  0.68482  1.0000
  H   H1295     1.0  0.68481  0.08438  0.92568  1.0000
  Fe  Fe107     1.0  0.66620  0.06949  0.99171  1.0000
  H   H1296     1.0  0.87491  0.15719  0.70285  1.0000
  C   C1622     1.0  0.67440  0.18511  0.75137  1.0000
  C   C1623     1.0  0.89314  0.17373  0.67074  1.0000
  C   C1624     1.0  0.87357  0.16284  0.67994  1.0000
  C   C1625     1.0  0.89549  0.19893  0.89587  1.0000
  C   C1626     1.0  0.75344  0.14484  0.68319  1.0000
  C   C1627     1.0  0.69258  0.18191  0.72550  1.0000
  H   H1297     1.0  0.53037  0.04998  0.62411  1.0000
  H   H1298     1.0  0.87870  0.16993  0.82206  1.0000
  C   C1628     1.0  0.53595  0.03998  0.63861  1.0000
  H   H1299     1.0  0.58057  0.22198  0.50344  1.0000
  H   H1300     1.0  0.57682  0.03475  0.61299  1.0000
  P   P52       1.0  0.71309  0.18711  0.66433  1.0000
  C   C1629     1.0  0.66948  0.17772  0.94182  1.0000
  C   C1630     1.0  0.89112  0.18050  0.64054  1.0000
  H   H1301     1.0  0.83276  0.16312  0.61417  1.0000
  H   H1302     1.0  0.66250  0.18413  0.92075  1.0000
  C   C1631     1.0  0.92627  0.19851  0.68764  1.0000
  H   H1303     1.0  0.64668  0.07260  0.80759  1.0000
  C   C1632     1.0  0.85170  0.15920  0.65966  1.0000
  C   C1633     1.0  0.61246  0.05841  0.85068  1.0000
  C   C1634     1.0  0.55215  0.02439  0.81228  1.0000
  C   C1635     1.0  0.51508  0.05405  0.72594  1.0000
  H   H1304     1.0  0.97789  0.13044  0.67973  1.0000
  H   H1305     1.0  0.61385  0.07565  0.91927  1.0000
  C   C1636     1.0  0.70456  0.17260  0.98370  1.0000
  H   H1306     1.0  0.65019  0.22082  0.86952  1.0000
  C   C1637     1.0  0.70113  0.04261  0.77002  1.0000
  H   H1307     1.0  0.63980  0.20015  0.77050  1.0000
  C   C1638     1.0  0.84965  0.16607  0.62982  1.0000
  C   C1639     1.0  0.00240  0.11236  0.74162  1.0000
  H   H1308     1.0  0.61833  0.03846  0.94712  1.0000
  C   C1640     1.0  0.57364  0.01120  0.53750  1.0000
  C   C1641     1.0  0.57271  0.13921  0.93624  1.0000
  H   H1309     1.0  0.57667  0.07508  0.97219  1.0000
  C   C1642     1.0  0.93346  0.18796  0.86143  1.0000
  C   C1643     1.0  0.58547  0.00816  0.56714  1.0000
  H   H1310     1.0  0.63299  0.16390  0.94181  1.0000
  H   H1311     1.0  0.74763  0.12434  0.66100  1.0000
  H   H1312     1.0  0.86802  0.18191  0.59695  1.0000
  C   C1644     1.0  0.65284  0.19728  0.74998  1.0000
  C   C1645     1.0  0.71130  0.15844  0.64135  1.0000
  C   C1646     1.0  0.56386  0.20439  0.98864  1.0000
  H   H1313     1.0  0.53812  0.05893  0.76704  1.0000
  H   H1314     1.0  0.58472  0.06649  0.81180  1.0000
  C   C1647     1.0  0.60102  0.03421  0.81087  1.0000
  P   P53       1.0  0.62998  0.04260  0.83086  1.0000
  H   H1315     1.0  0.65728  0.99822  0.53092  1.0000
  H   H1316     1.0  0.96966  0.22062  0.64195  1.0000
  H   H1317     1.0  0.75510  0.16671  0.70058  1.0000
  H   H1318     1.0  0.58282  0.20333  0.75254  1.0000
  H   H1319     1.0  0.67721  0.02614  0.79597  1.0000
  C   C1648     1.0  0.66138  0.06407  0.79705  1.0000
  C   C1649     1.0  0.52865  0.05101  0.94751  1.0000
  H   H1320     1.0  0.55834  0.00361  0.68878  1.0000
  H   H1321     1.0  0.67816  0.17867  0.77308  1.0000
  C   C1650     1.0  0.87750  0.18013  0.74482  1.0000
  C   C1651     1.0  0.52537  0.02231  0.68120  1.0000
  H   H1322     1.0  0.57517  0.00046  0.58343  1.0000
  H   H1323     1.0  0.88056  0.98727  0.68112  1.0000
  C   C1652     1.0  0.90630  0.20991  0.69914  1.0000
  H   H1324     1.0  0.88947  0.21075  0.77579  1.0000
  C   C1653     1.0  0.68391  0.06860  0.77668  1.0000
  P   P54       1.0  0.59449  0.21621  0.98936  1.0000
  S   S216      1.0  0.64752  0.01492  0.98782  1.0000
  C   C1654     1.0  0.86721  0.17786  0.77541  1.0000
  C   C1655     1.0  0.91115  0.21332  0.84986  1.0000
  C   C1656     1.0  0.51772  0.98148  0.74288  1.0000
  H   H1325     1.0  0.62445  0.03278  0.76647  1.0000
  H   H1326     1.0  0.98374  0.18298  0.70838  1.0000
  C   C1657     1.0  0.60444  0.03057  0.77960  1.0000
  C   C1658     1.0  0.57444  0.03130  0.82687  1.0000
  C   C1659     1.0  0.74495  0.16021  0.68390  1.0000
  H   H1327     1.0  0.84137  0.20871  0.74954  1.0000
  H   H1328     1.0  0.56786  0.12219  0.90368  1.0000
  H   H1329     1.0  0.70826  0.18985  0.94719  1.0000
  H   H1330     1.0  0.86162  0.18422  0.72708  1.0000
  H   H1331     1.0  0.55130  0.14524  0.93099  1.0000
  C   C1660     1.0  0.55589  0.02059  0.78136  1.0000
  C   C1661     1.0  0.66735  0.20310  0.69662  1.0000
  H   H1332     1.0  0.69515  0.16342  0.62474  1.0000
  C   C1662     1.0  0.69533  0.18093  0.95670  1.0000
  H   H1333     1.0  0.51288  0.08914  0.96422  1.0000
  H   H1334     1.0  0.56186  0.08866  0.83792  1.0000
  C   C1663     1.0  0.69169  0.20761  0.57923  1.0000
  C   C1664     1.0  0.60953  0.11842  0.92789  1.0000
  H   H1335     1.0  0.77760  0.18026  0.65095  1.0000
  H   H1336     1.0  0.66482  0.21060  0.67605  1.0000
  H   H1337     1.0  0.84369  0.18020  0.78092  1.0000
  H   H1338     1.0  0.82099  0.19485  0.65604  1.0000
  H   H1339     1.0  0.64932  0.20953  0.55612  1.0000
  C   C1665     1.0  0.61271  0.21719  0.95154  1.0000
  H   H1340     1.0  0.59024  0.19927  0.93276  1.0000
  H   H1341     1.0  0.91771  0.17674  0.90332  1.0000
  C   C1666     1.0  0.79889  0.19978  0.66184  1.0000
  S   S217      1.0  0.71529  0.07189  0.98620  1.0000
  H   H1342     1.0  0.88158  0.19806  0.91659  1.0000
  H   H1343     1.0  0.94437  0.20151  0.82093  1.0000
  C   C1667     1.0  0.56140  0.06634  0.97320  1.0000
  C   C1668     1.0  0.51512  0.18675  0.98891  1.0000
  C   C1669     1.0  0.71986  0.14304  0.64069  1.0000
  H   H1344     1.0  0.82571  0.98943  0.67389  1.0000
  H   H1345     1.0  0.54076  0.05727  0.52209  1.0000
  H   H1346     1.0  0.71998  0.21750  0.68334  1.0000
  H   H1347     1.0  0.64855  0.11706  0.95588  1.0000
  C   C1670     1.0  0.91578  0.18691  0.88836  1.0000
  H   H1348     1.0  0.53934  0.98893  0.98995  1.0000
  Fe  Fe108     1.0  0.50919  0.99698  0.89706  1.0000
  H   H1349     1.0  0.51122  0.01846  0.70012  1.0000
  H   H1350     1.0  0.56152  0.20939  0.80451  1.0000
  H   H1351     1.0  0.73069  0.20424  0.60742  1.0000
  Fe  Fe109     1.0  0.51350  0.99286  0.56464  1.0000
  H   H1352     1.0  0.66019  0.20942  0.98923  1.0000
  C   C1671     1.0  0.84288  0.21669  0.76727  1.0000
  S   S218      1.0  0.63090  0.08902  0.98885  1.0000
  H   H1353     1.0  0.70137  0.13068  0.97774  1.0000
  H   H1354     1.0  0.87692  0.22124  0.88243  1.0000
  H   H1355     1.0  0.81427  0.22081  0.67427  1.0000
  H   H1356     1.0  0.99447  0.19213  0.76355  1.0000
  H   H1357     1.0  0.62312  0.03566  0.50882  1.0000
  C   C1672     1.0  0.66149  0.99916  0.50605  1.0000
  C   C1673     1.0  0.95203  0.21758  0.65797  1.0000
  H   H1358     1.0  0.69691  0.01366  0.50986  1.0000
  C   C1674     1.0  0.66195  0.15771  0.98103  1.0000
  H   H1359     1.0  0.51262  0.98288  0.79269  1.0000
  H   H1360     1.0  0.50788  0.03450  0.97629  1.0000
  C   C1675     1.0  0.51272  0.20122  0.97480  1.0000
  H   H1361     1.0  0.70268  0.21403  0.56102  1.0000
  C   C1676     1.0  0.56206  0.22336  0.72948  1.0000
  C   C1677     1.0  0.51257  0.04427  0.55193  1.0000
  H   H1362     1.0  0.53462  0.22123  0.96379  1.0000
  H   H1363     1.0  0.55261  0.01456  0.99833  1.0000
  C   C1678     1.0  0.51842  0.05382  0.52620  1.0000
  C   C1679     1.0  0.79515  0.21436  0.67219  1.0000
  C   C1680     1.0  0.64013  0.21960  0.89253  1.0000
  H   H1364     1.0  0.73493  0.10918  0.99809  1.0000
  C   C1681     1.0  0.69413  0.12383  0.99747  1.0000
  C   C1682     1.0  0.76666  0.22065  0.67994  1.0000
  H   H1365     1.0  0.51053  0.08400  0.77165  1.0000
  H   H1366     1.0  0.72475  0.17500  0.99512  1.0000
  P   P55       1.0  0.64089  0.14253  0.99651  1.0000
  C   C1683     1.0  0.68796  0.16105  0.99586  1.0000
  H   H1367     1.0  0.88809  0.40477  0.01386  1.0000
  Fe  Fe110     1.0  0.52450  0.28785  0.25129  1.0000
  C   C1684     1.0  0.51113  0.23963  0.34530  1.0000
  S   S219      1.0  0.57471  0.28017  0.24829  1.0000
  S   S220      1.0  0.98469  0.33075  0.42989  1.0000
  C   C1685     1.0  0.72236  0.43849  0.37564  1.0000
  C   C1686     1.0  0.75566  0.34480  0.12798  1.0000
  C   C1687     1.0  0.74889  0.31442  0.14804  1.0000
  H   H1368     1.0  0.57100  0.43190  0.11649  1.0000
  H   H1369     1.0  0.82162  0.27306  0.31452  1.0000
  C   C1688     1.0  0.94162  0.28024  0.19465  1.0000
  S   S221      1.0  0.62564  0.45697  0.23769  1.0000
  C   C1689     1.0  0.66744  0.46119  0.45237  1.0000
  H   H1370     1.0  0.99054  0.29520  0.25714  1.0000
  H   H1371     1.0  0.62837  0.42691  0.19451  1.0000
  C   C1690     1.0  0.77006  0.30409  0.16272  1.0000
  H   H1372     1.0  0.97464  0.34352  0.26653  1.0000
  C   C1691     1.0  0.75114  0.43962  0.38642  1.0000
  Fe  Fe111     1.0  0.65435  0.45238  0.27985  1.0000
  S   S222      1.0  0.66538  0.42936  0.30331  1.0000
  C   C1692     1.0  0.81678  0.33215  0.09534  1.0000
  C   C1693     1.0  0.59126  0.44085  0.17481  1.0000
  Fe  Fe112     1.0  0.73169  0.32698  0.27000  1.0000
  S   S223      1.0  0.74200  0.34720  0.29616  1.0000
  S   S224      1.0  0.68294  0.32042  0.27731  1.0000
  Fe  Fe113     1.0  0.79275  0.32702  0.23517  1.0000
  S   S225      1.0  0.80532  0.34747  0.25741  1.0000
  S   S226      1.0  0.82674  0.31422  0.20409  1.0000
  Fe  Fe114     1.0  0.78904  0.33643  0.30181  1.0000
  S   S227      1.0  0.81733  0.34130  0.34313  1.0000
  Fe  Fe115     1.0  0.75785  0.35672  0.25043  1.0000
  S   S228      1.0  0.74781  0.38079  0.23151  1.0000
  S   S229      1.0  0.77775  0.31530  0.28003  1.0000
  S   S230      1.0  0.74624  0.33717  0.22369  1.0000
  Fe  Fe116     1.0  0.95468  0.31482  0.45363  1.0000
  S   S231      1.0  0.91868  0.30522  0.42563  1.0000
  Fe  Fe117     1.0  0.95841  0.33466  0.07922  1.0000
  S   S232      1.0  0.91780  0.34346  0.10796  1.0000
  H   H1373     1.0  0.96423  0.37334  0.00335  1.0000
  C   C1694     1.0  0.85375  0.32252  0.17957  1.0000
  C   C1695     1.0  0.87509  0.31322  0.16370  1.0000
  C   C1696     1.0  0.89580  0.31939  0.14265  1.0000
  C   C1697     1.0  0.89498  0.33497  0.13688  1.0000
  C   C1698     1.0  0.87405  0.34425  0.15326  1.0000
  C   C1699     1.0  0.85377  0.33810  0.17471  1.0000
  H   H1374     1.0  0.87529  0.30116  0.16729  1.0000
  H   H1375     1.0  0.91166  0.31211  0.13014  1.0000
  H   H1376     1.0  0.87322  0.35630  0.14899  1.0000
  H   H1377     1.0  0.83776  0.34540  0.18699  1.0000
  C   C1700     1.0  0.84780  0.33097  0.36239  1.0000
  C   C1701     1.0  0.85190  0.31527  0.36311  1.0000
  C   C1702     1.0  0.87426  0.30756  0.38192  1.0000
  C   C1703     1.0  0.89303  0.31541  0.39975  1.0000
  C   C1704     1.0  0.89006  0.33110  0.39754  1.0000
  C   C1705     1.0  0.86731  0.33882  0.37931  1.0000
  H   H1378     1.0  0.83713  0.30906  0.35022  1.0000
  H   H1379     1.0  0.87653  0.29541  0.38330  1.0000
  H   H1380     1.0  0.90472  0.33725  0.41070  1.0000
  H   H1381     1.0  0.86448  0.35094  0.37877  1.0000
  S   S233      1.0  0.99263  0.29862  0.47161  1.0000
  H   H1382     1.0  0.51096  0.25210  0.20892  1.0000
  H   H1383     1.0  0.70878  0.30749  0.10389  1.0000
  H   H1384     1.0  0.85833  0.36983  0.31903  1.0000
  H   H1385     1.0  0.96564  0.31718  0.37575  1.0000
  C   C1706     1.0  0.68880  0.41605  0.28342  1.0000
  C   C1707     1.0  0.69619  0.40176  0.29773  1.0000
  C   C1708     1.0  0.71425  0.39083  0.28216  1.0000
  C   C1709     1.0  0.72515  0.39415  0.25216  1.0000
  C   C1710     1.0  0.71794  0.40848  0.23800  1.0000
  C   C1711     1.0  0.69974  0.41937  0.25348  1.0000
  H   H1386     1.0  0.68780  0.39911  0.32087  1.0000
  H   H1387     1.0  0.71975  0.37987  0.29332  1.0000
  H   H1388     1.0  0.72636  0.41116  0.21485  1.0000
  H   H1389     1.0  0.69420  0.43034  0.24223  1.0000
  H   H1390     1.0  0.90552  0.43053  0.10790  1.0000
  H   H1391     1.0  0.81091  0.34371  0.10061  1.0000
  H   H1392     1.0  0.94495  0.37120  0.09665  1.0000
  H   H1393     1.0  0.57729  0.30874  0.27891  1.0000
  C   C1712     1.0  0.83835  0.37743  0.32055  1.0000
  C   C1713     1.0  0.76636  0.38055  0.40681  1.0000
  H   H1394     1.0  0.99930  0.35537  0.22164  1.0000
  C   C1714     1.0  0.84236  0.28763  0.28073  1.0000
  C   C1715     1.0  0.89394  0.28160  0.31607  1.0000
  H   H1395     1.0  0.98386  0.38452  0.06811  1.0000
  C   C1716     1.0  0.54477  0.23395  0.43638  1.0000
  H   H1396     1.0  0.55993  0.24965  0.23476  1.0000
  H   H1397     1.0  0.86965  0.45409  0.02485  1.0000
  H   H1398     1.0  0.51806  0.43561  0.19011  1.0000
  C   C1717     1.0  0.60447  0.29170  0.25581  1.0000
  C   C1718     1.0  0.63401  0.28707  0.24682  1.0000
  C   C1719     1.0  0.65811  0.29567  0.25289  1.0000
  C   C1720     1.0  0.65328  0.30906  0.26843  1.0000
  C   C1721     1.0  0.62377  0.31359  0.27771  1.0000
  C   C1722     1.0  0.59962  0.30508  0.27130  1.0000
  H   H1399     1.0  0.63831  0.27671  0.23510  1.0000
  H   H1400     1.0  0.68049  0.29175  0.24611  1.0000
  H   H1401     1.0  0.61950  0.32374  0.29013  1.0000
  P   P56       1.0  0.91621  0.42971  0.04050  1.0000
  H   H1402     1.0  0.99161  0.46239  0.07462  1.0000
  H   H1403     1.0  0.57418  0.23072  0.04753  1.0000
  C   C1723     1.0  0.56061  0.25501  0.46338  1.0000
  C   C1724     1.0  0.54445  0.24107  0.23914  1.0000
  H   H1404     1.0  0.53548  0.25742  0.42146  1.0000
  S   S234      1.0  0.98032  0.31141  0.07252  1.0000
  H   H1405     1.0  0.70399  0.32516  0.15135  1.0000
  C   C1725     1.0  0.95830  0.44852  0.05949  1.0000
  C   C1726     1.0  0.99951  0.34472  0.21083  1.0000
  C   C1727     1.0  0.81773  0.39873  0.41438  1.0000
  C   C1728     1.0  0.81882  0.39329  0.44561  1.0000
  C   C1729     1.0  0.89003  0.43890  0.09644  1.0000
  C   C1730     1.0  0.98183  0.34571  0.34416  1.0000
  C   C1731     1.0  0.90351  0.40368  0.07542  1.0000
  H   H1406     1.0  0.83551  0.46985  0.05677  1.0000
  C   C1732     1.0  0.55807  0.34275  0.27950  1.0000
  S   S235      1.0  0.68981  0.46709  0.26281  1.0000
  H   H1407     1.0  0.52018  0.40646  0.28493  1.0000
  C   C1733     1.0  0.89566  0.36569  0.47049  1.0000
  H   H1408     1.0  0.56496  0.33607  0.35754  1.0000
  H   H1409     1.0  0.56186  0.42140  0.06628  1.0000
  C   C1734     1.0  0.00179  0.31786  0.18057  1.0000
  C   C1735     1.0  0.54853  0.43136  0.07323  1.0000
  H   H1410     1.0  0.87610  0.31060  0.06706  1.0000
  C   C1736     1.0  0.91051  0.38924  0.08890  1.0000
  C   C1737     1.0  0.84310  0.39571  0.46398  1.0000
  H   H1411     1.0  0.84009  0.29111  0.07468  1.0000
  C   C1738     1.0  0.98892  0.29637  0.36327  1.0000
  H   H1412     1.0  0.96954  0.35358  0.17439  1.0000
  H   H1413     1.0  0.54121  0.41433  0.22191  1.0000
  H   H1414     1.0  0.94500  0.35005  0.31285  1.0000
  C   C1739     1.0  0.97261  0.28630  0.31602  1.0000
  H   H1415     1.0  0.97088  0.32960  0.14826  1.0000
  H   H1416     1.0  0.57610  0.24407  0.38210  1.0000
  H   H1417     1.0  0.80121  0.38711  0.45593  1.0000
  H   H1418     1.0  0.87022  0.35361  0.43995  1.0000
  H   H1419     1.0  0.91145  0.36896  0.45255  1.0000
  H   H1420     1.0  0.61644  0.47054  0.38118  1.0000
  H   H1421     1.0  0.82247  0.29000  0.26690  1.0000
  H   H1422     1.0  0.75853  0.45059  0.39030  1.0000
  P   P57       1.0  0.52629  0.22688  0.40403  1.0000
  C   C1740     1.0  0.00401  0.45287  0.03102  1.0000
  C   C1741     1.0  0.69450  0.31341  0.05739  1.0000
  C   C1742     1.0  0.82292  0.38253  0.29366  1.0000
  C   C1743     1.0  0.71244  0.31454  0.08320  1.0000
  H   H1423     1.0  0.64837  0.44689  0.38464  1.0000
  H   H1424     1.0  0.97369  0.27714  0.30053  1.0000
  C   C1744     1.0  0.73979  0.33301  0.05414  1.0000
  C   C1745     1.0  0.84525  0.32833  0.08309  1.0000
  P   P58       1.0  0.54326  0.45831  0.14741  1.0000
  C   C1746     1.0  0.93953  0.38243  0.08650  1.0000
  C   C1747     1.0  0.96151  0.38996  0.07046  1.0000
  C   C1748     1.0  0.95458  0.40432  0.05670  1.0000
  C   C1749     1.0  0.92563  0.41142  0.05952  1.0000
  H   H1425     1.0  0.87045  0.44625  0.13964  1.0000
  C   C1750     1.0  0.57377  0.24507  0.48630  1.0000
  C   C1751     1.0  0.88991  0.44087  0.06387  1.0000
  C   C1752     1.0  0.86580  0.40877  0.42025  1.0000
  H   H1426     1.0  0.59635  0.40987  0.22448  1.0000
  H   H1427     1.0  0.78926  0.29782  0.09526  1.0000
  C   C1753     1.0  0.87272  0.35691  0.46347  1.0000
  H   H1428     1.0  0.67706  0.30575  0.05856  1.0000
  C   C1754     1.0  0.87038  0.44788  0.11455  1.0000
  C   C1755     1.0  0.85072  0.45902  0.10032  1.0000
  C   C1756     1.0  0.85064  0.46116  0.06795  1.0000
  C   C1757     1.0  0.87011  0.45213  0.04980  1.0000
  C   C1758     1.0  0.98523  0.45529  0.05677  1.0000
  C   C1759     1.0  0.86662  0.40339  0.45131  1.0000
  C   C1760     1.0  0.98364  0.33030  0.16917  1.0000
  C   C1761     1.0  0.84196  0.27805  0.30742  1.0000
  C   C1762     1.0  0.79664  0.39195  0.29587  1.0000
  H   H1429     1.0  0.86788  0.30210  0.25167  1.0000
  H   H1430     1.0  0.83657  0.34467  0.48166  1.0000
  H   H1431     1.0  0.91344  0.27922  0.33040  1.0000
  H   H1432     1.0  0.69033  0.42353  0.36251  1.0000
  C   C1763     1.0  0.86773  0.27507  0.32511  1.0000
  H   H1433     1.0  0.57358  0.22767  0.27071  1.0000
  H   H1434     1.0  0.90393  0.28752  0.22256  1.0000
  C   C1764     1.0  0.50786  0.46576  0.16334  1.0000
  H   H1435     1.0  0.54243  0.45312  0.24998  1.0000
  S   S236      1.0  0.96328  0.34177  0.02839  1.0000
  H   H1436     1.0  0.86097  0.33682  0.07952  1.0000
  C   C1765     1.0  0.55357  0.43733  0.10180  1.0000
  C   C1766     1.0  0.63030  0.46808  0.40135  1.0000
  C   C1767     1.0  0.60426  0.42878  0.19327  1.0000
  H   H1437     1.0  0.83095  0.37900  0.27114  1.0000
  H   H1438     1.0  0.83916  0.37715  0.37027  1.0000
  C   C1768     1.0  0.57170  0.22964  0.48485  1.0000
  H   H1439     1.0  0.92800  0.27654  0.17655  1.0000
  H   H1440     1.0  0.78455  0.39578  0.27500  1.0000
  C   C1769     1.0  0.80089  0.39102  0.35212  1.0000
  H   H1441     1.0  0.97188  0.40964  0.04351  1.0000
  H   H1442     1.0  0.72424  0.40066  0.37124  1.0000
  C   C1770     1.0  0.96828  0.30880  0.35856  1.0000
  C   C1771     1.0  0.51452  0.45722  0.09091  1.0000
  S   S237      1.0  0.51487  0.31270  0.24795  1.0000
  H   H1443     1.0  0.89344  0.38317  0.10086  1.0000
  C   C1772     1.0  0.77424  0.34825  0.15188  1.0000
  C   C1773     1.0  0.73497  0.32451  0.08186  1.0000
  C   C1774     1.0  0.77052  0.42667  0.39165  1.0000
  H   H1444     1.0  0.70771  0.44856  0.37061  1.0000
  S   S238      1.0  0.67784  0.47282  0.17306  1.0000
  C   C1775     1.0  0.00490  0.38439  0.99895  1.0000
  C   C1776     1.0  0.58752  0.35271  0.33006  1.0000
  C   C1777     1.0  0.94985  0.43939  0.03622  1.0000
  C   C1778     1.0  0.73186  0.41144  0.37616  1.0000
  C   C1779     1.0  0.83352  0.30256  0.08042  1.0000
  H   H1445     1.0  0.79284  0.42786  0.39950  1.0000
  C   C1780     1.0  0.82739  0.38162  0.34964  1.0000
  C   C1781     1.0  0.95021  0.31020  0.33239  1.0000
  C   C1782     1.0  0.58625  0.41923  0.21025  1.0000
  C   C1783     1.0  0.86833  0.29437  0.27194  1.0000
  C   C1784     1.0  0.89443  0.29134  0.28937  1.0000
  C   C1785     1.0  0.76111  0.41248  0.38618  1.0000
  P   P59       1.0  0.92775  0.30029  0.27770  1.0000
  C   C1786     1.0  0.91561  0.31960  0.26684  1.0000
  Fe  Fe118     1.0  0.98399  0.34160  0.47583  1.0000
  C   C1787     1.0  0.84146  0.40648  0.40186  1.0000
  C   C1788     1.0  0.72032  0.31682  0.16159  1.0000
  H   H1446     1.0  0.79275  0.30258  0.15398  1.0000
  C   C1789     1.0  0.98279  0.34380  0.18405  1.0000
  H   H1447     1.0  0.71857  0.37269  0.46689  1.0000
  C   C1790     1.0  0.92567  0.32654  0.23899  1.0000
  C   C1791     1.0  0.91371  0.34095  0.22930  1.0000
  C   C1792     1.0  0.89195  0.34859  0.24746  1.0000
  C   C1793     1.0  0.88217  0.34184  0.27539  1.0000
  C   C1794     1.0  0.89375  0.32739  0.28492  1.0000
  C   C1795     1.0  0.94542  0.29155  0.24435  1.0000
  C   C1796     1.0  0.92802  0.28647  0.22097  1.0000
  C   C1797     1.0  0.53229  0.23832  0.36905  1.0000
  H   H1448     1.0  0.86733  0.26781  0.34606  1.0000
  H   H1449     1.0  0.56096  0.26702  0.46524  1.0000
  C   C1798     1.0  0.55521  0.42178  0.20891  1.0000
  C   C1799     1.0  0.85355  0.35200  0.48701  1.0000
  C   C1800     1.0  0.97269  0.27892  0.19151  1.0000
  C   C1801     1.0  0.78555  0.39616  0.32493  1.0000
  C   C1802     1.0  0.52110  0.45928  0.25412  1.0000
  C   C1803     1.0  0.66694  0.45111  0.42880  1.0000
  P   P60       1.0  0.75892  0.32601  0.11446  1.0000
  H   H1450     1.0  0.76489  0.40325  0.32579  1.0000
  H   H1451     1.0  0.54295  0.27503  0.01427  1.0000
  H   H1452     1.0  0.94201  0.32073  0.22416  1.0000
  H   H1453     1.0  0.92058  0.34598  0.20716  1.0000
  H   H1454     1.0  0.88213  0.35958  0.23952  1.0000
  H   H1455     1.0  0.86476  0.34751  0.28924  1.0000
  C   C1804     1.0  0.64843  0.45457  0.40325  1.0000
  C   C1805     1.0  0.98574  0.34303  0.28855  1.0000
  H   H1456     1.0  0.96854  0.34840  0.36469  1.0000
  H   H1457     1.0  0.72658  0.34729  0.44607  1.0000
  S   S239      1.0  0.97761  0.36695  0.47674  1.0000
  H   H1458     1.0  0.75748  0.34054  0.05248  1.0000
  C   C1806     1.0  0.75622  0.35425  0.40926  1.0000
  C   C1807     1.0  0.73754  0.35658  0.43513  1.0000
  C   C1808     1.0  0.73305  0.37089  0.44681  1.0000
  C   C1809     1.0  0.74728  0.38286  0.43262  1.0000
  C   C1810     1.0  0.77059  0.36616  0.39521  1.0000
  H   H1459     1.0  0.75990  0.34318  0.40008  1.0000
  C   C1811     1.0  0.76269  0.29619  0.19030  1.0000
  H   H1460     1.0  0.52267  0.43364  0.03140  1.0000
  H   H1461     1.0  0.78503  0.36400  0.37535  1.0000
  H   H1462     1.0  0.74380  0.39387  0.44201  1.0000
  C   C1812     1.0  0.80486  0.30639  0.09228  1.0000
  H   H1463     1.0  0.79047  0.33976  0.16183  1.0000
  C   C1813     1.0  0.79649  0.32114  0.10053  1.0000
  H   H1464     1.0  0.88078  0.40869  0.07693  1.0000
  Fe  Fe119     1.0  0.65937  0.47329  0.22248  1.0000
  C   C1814     1.0  0.66858  0.38100  0.21641  1.0000
  C   C1815     1.0  0.67768  0.36633  0.20875  1.0000
  C   C1816     1.0  0.66702  0.35422  0.22606  1.0000
  C   C1817     1.0  0.64749  0.35676  0.25120  1.0000
  C   C1818     1.0  0.63826  0.37147  0.25921  1.0000
  C   C1819     1.0  0.64922  0.38359  0.24171  1.0000
  P   P61       1.0  0.61588  0.37445  0.29404  1.0000
  C   C1820     1.0  0.64084  0.37458  0.32638  1.0000
  C   C1821     1.0  0.59286  0.39210  0.29078  1.0000
  C   C1822     1.0  0.60599  0.40566  0.29303  1.0000
  C   C1823     1.0  0.58850  0.41936  0.29206  1.0000
  C   C1824     1.0  0.55759  0.41965  0.28920  1.0000
  C   C1825     1.0  0.54419  0.40622  0.28707  1.0000
  C   C1826     1.0  0.56171  0.39249  0.28775  1.0000
  C   C1827     1.0  0.66781  0.36540  0.32704  1.0000
  C   C1828     1.0  0.68736  0.36575  0.35180  1.0000
  C   C1829     1.0  0.68010  0.37516  0.37608  1.0000
  C   C1830     1.0  0.65306  0.38408  0.37596  1.0000
  C   C1831     1.0  0.63336  0.38371  0.35135  1.0000
  C   C1832     1.0  0.59207  0.35927  0.30017  1.0000
  C   C1833     1.0  0.57724  0.35419  0.27491  1.0000
  C   C1834     1.0  0.72186  0.33184  0.02837  1.0000
  C   C1835     1.0  0.54212  0.43391  0.19073  1.0000
  C   C1836     1.0  0.53628  0.45019  0.11105  1.0000
  H   H1465     1.0  0.53885  0.32732  0.31279  1.0000
  H   H1466     1.0  0.67769  0.39037  0.20360  1.0000
  H   H1467     1.0  0.69375  0.36435  0.19005  1.0000
  H   H1468     1.0  0.67459  0.34281  0.22075  1.0000
  H   H1469     1.0  0.64049  0.34717  0.26498  1.0000
  H   H1470     1.0  0.64382  0.39503  0.24797  1.0000
  H   H1471     1.0  0.62981  0.40559  0.29599  1.0000
  H   H1472     1.0  0.59903  0.42975  0.29367  1.0000
  H   H1473     1.0  0.54404  0.43028  0.28862  1.0000
  H   H1474     1.0  0.59872  0.35638  0.34993  1.0000
  H   H1475     1.0  0.55070  0.38228  0.28634  1.0000
  H   H1476     1.0  0.67391  0.35800  0.30848  1.0000
  H   H1477     1.0  0.70824  0.35872  0.35205  1.0000
  H   H1478     1.0  0.69539  0.37548  0.39500  1.0000
  H   H1479     1.0  0.64735  0.39132  0.39489  1.0000
  H   H1480     1.0  0.61241  0.39062  0.35182  1.0000
  H   H1481     1.0  0.58046  0.35907  0.25165  1.0000
  H   H1482     1.0  0.54690  0.33881  0.25987  1.0000
  C   C1837     1.0  0.96877  0.43715  0.01035  1.0000
  H   H1483     1.0  0.88412  0.41469  0.41044  1.0000
  C   C1838     1.0  0.73387  0.35577  0.11637  1.0000
  C   C1839     1.0  0.73124  0.37009  0.12817  1.0000
  C   C1840     1.0  0.75012  0.37349  0.15171  1.0000
  C   C1841     1.0  0.77162  0.36257  0.16352  1.0000
  C   C1842     1.0  0.95252  0.29907  0.31057  1.0000
  C   C1843     1.0  0.71296  0.30884  0.18911  1.0000
  C   C1844     1.0  0.73422  0.29858  0.20353  1.0000
  C   C1845     1.0  0.99017  0.28403  0.21448  1.0000
  H   H1484     1.0  0.71861  0.35329  0.09864  1.0000
  H   H1485     1.0  0.71435  0.37853  0.11935  1.0000
  H   H1486     1.0  0.74780  0.38449  0.16132  1.0000
  H   H1487     1.0  0.58802  0.47335  0.47080  1.0000
  H   H1488     1.0  0.98635  0.39742  0.48951  1.0000
  H   H1489     1.0  0.69113  0.31099  0.19992  1.0000
  H   H1490     1.0  0.72898  0.29281  0.22545  1.0000
  H   H1491     1.0  0.88495  0.32213  0.30601  1.0000
  H   H1492     1.0  0.50683  0.27134  0.10976  1.0000
  H   H1493     1.0  0.84115  0.41075  0.37783  1.0000
  C   C1846     1.0  0.85376  0.31353  0.07596  1.0000
  C   C1847     1.0  0.55909  0.24522  0.36448  1.0000
  H   H1494     1.0  0.93403  0.31980  0.32994  1.0000
  C   C1848     1.0  0.97662  0.29064  0.24044  1.0000
  C   C1849     1.0  0.90026  0.42744  0.00300  1.0000
  H   H1495     1.0  0.94435  0.45036  0.07983  1.0000
  H   H1496     1.0  0.68238  0.45872  0.47178  1.0000
  C   C1850     1.0  0.56426  0.25360  0.33689  1.0000
  C   C1851     1.0  0.54305  0.25490  0.31350  1.0000
  C   C1852     1.0  0.99096  0.28506  0.34207  1.0000
  C   C1853     1.0  0.51674  0.24250  0.22472  1.0000
  C   C1854     1.0  0.69916  0.32208  0.03002  1.0000
  C   C1855     1.0  0.71260  0.42440  0.37098  1.0000
  C   C1856     1.0  0.56002  0.44356  0.17348  1.0000
  C   C1857     1.0  0.55724  0.22407  0.46004  1.0000
  C   C1858     1.0  0.55359  0.33627  0.30929  1.0000
  H   H1497     1.0  0.58472  0.25913  0.33352  1.0000
  H   H1498     1.0  0.54718  0.26140  0.29218  1.0000
  C   C1859     1.0  0.56849  0.47289  0.14089  1.0000
  Fe  Fe120     1.0  0.98875  0.31918  0.02211  1.0000
  H   H1499     1.0  0.88556  0.40511  0.46554  1.0000
  H   H1500     1.0  0.77955  0.28868  0.20206  1.0000
  H   H1501     1.0  0.78576  0.36511  0.18231  1.0000
  P   P62       1.0  0.78653  0.39575  0.39016  1.0000
  C   C1860     1.0  0.51658  0.24787  0.31759  1.0000
  C   C1861     1.0  0.96864  0.34668  0.31496  1.0000
  C   C1862     1.0  0.56836  0.34122  0.33453  1.0000
  S   S240      1.0  0.62903  0.47015  0.30749  1.0000
  H   H1502     1.0  0.68125  0.44073  0.43012  1.0000
  H   H1503     1.0  0.55190  0.25604  0.05755  1.0000
  C   C1863     1.0  0.57098  0.23877  0.02818  1.0000
  H   H1504     1.0  0.60572  0.44797  0.16149  1.0000
  C   C1864     1.0  0.54607  0.24949  0.43859  1.0000
  C   C1865     1.0  0.52648  0.43826  0.05356  1.0000
  C   C1866     1.0  0.55834  0.25319  0.03410  1.0000
  C   C1867     1.0  0.55318  0.26394  0.00967  1.0000
  H   H1505     1.0  0.00372  0.30770  0.16784  1.0000
  H   H1506     1.0  0.71192  0.47141  0.40660  1.0000
  H   H1507     1.0  0.83560  0.46599  0.11441  1.0000
  H   H1508     1.0  0.98321  0.27415  0.17102  1.0000
  C   C1868     1.0  0.50954  0.45121  0.06236  1.0000
  C   C1869     1.0  0.99577  0.44380  0.00784  1.0000
  H   H1509     1.0  0.53966  0.47008  0.49702  1.0000
  C   C1870     1.0  0.55214  0.22865  0.25935  1.0000
  H   H1510     1.0  0.84388  0.39146  0.48801  1.0000
  S   S241      1.0  0.95082  0.32690  0.49847  1.0000
  S   S242      1.0  0.00080  0.34434  0.09180  1.0000
  H   H1511     1.0  0.68531  0.32115  0.01001  1.0000
  H   H1512     1.0  0.00275  0.29536  0.38379  1.0000
  H   H1513     1.0  0.72567  0.33844  0.00704  1.0000
  H   H1514     1.0  0.00633  0.27519  0.34630  1.0000
  Fe  Fe121     1.0  0.97441  0.44784  0.57544  1.0000
  C   C1871     1.0  0.57775  0.29063  0.79443  1.0000
  C   C1872     1.0  0.85523  0.35873  0.61683  1.0000
  C   C1873     1.0  0.87477  0.41252  0.96803  1.0000
  S   S243      1.0  0.96597  0.42856  0.60879  1.0000
  H   H1515     1.0  0.94065  0.40122  0.74815  1.0000
  S   S244      1.0  0.95282  0.45107  0.87083  1.0000
  C   C1874     1.0  0.99715  0.38103  0.88218  1.0000
  H   H1516     1.0  0.00347  0.45019  0.50069  1.0000
  H   H1517     1.0  0.79636  0.22481  0.76409  1.0000
  C   C1875     1.0  0.97408  0.29322  0.88767  1.0000
  C   C1876     1.0  0.91985  0.39460  0.55547  1.0000
  Fe  Fe122     1.0  0.66652  0.25593  0.80050  1.0000
  S   S245      1.0  0.68075  0.26752  0.75503  1.0000
  S   S246      1.0  0.63697  0.26810  0.83651  1.0000
  Fe  Fe123     1.0  0.66812  0.24643  0.73395  1.0000
  S   S247      1.0  0.64647  0.24270  0.68747  1.0000
  Fe  Fe124     1.0  0.72670  0.25560  0.76433  1.0000
  S   S248      1.0  0.77531  0.26072  0.75142  1.0000
  H   H1518     1.0  0.86496  0.42291  0.92266  1.0000
  S   S249      1.0  0.71310  0.24566  0.81126  1.0000
  S   S250      1.0  0.52200  0.26578  0.62390  1.0000
  S   S251      1.0  0.52673  0.24091  0.90860  1.0000
  H   H1519     1.0  0.93292  0.37526  0.77845  1.0000
  S   S252      1.0  0.96023  0.46081  0.94228  1.0000
  H   H1520     1.0  0.96955  0.23054  0.83738  1.0000
  Fe  Fe125     1.0  0.93345  0.29415  0.76971  1.0000
  S   S253      1.0  0.94357  0.26938  0.77475  1.0000
  S   S254      1.0  0.88350  0.30160  0.77534  1.0000
  Fe  Fe126     1.0  0.97540  0.27286  0.73407  1.0000
  H   H1521     1.0  0.77613  0.37313  0.58805  1.0000
  Fe  Fe127     1.0  0.98024  0.27446  0.80705  1.0000
  H   H1522     1.0  0.98072  0.33126  0.61338  1.0000
  S   S255      1.0  0.96470  0.29766  0.72883  1.0000
  S   S256      1.0  0.96977  0.29918  0.80228  1.0000
  C   C1877     1.0  0.81868  0.23567  0.79911  1.0000
  C   C1878     1.0  0.85211  0.36683  0.58800  1.0000
  H   H1523     1.0  0.90960  0.44947  0.98394  1.0000
  C   C1879     1.0  0.00425  0.35584  0.83001  1.0000
  H   H1524     1.0  0.84798  0.46312  0.84285  1.0000
  C   C1880     1.0  0.95864  0.35366  0.61279  1.0000
  C   C1881     1.0  0.95904  0.39314  0.97240  1.0000
  Fe  Fe128     1.0  0.98336  0.44216  0.64574  1.0000
  H   H1525     1.0  0.84666  0.39810  0.57831  1.0000
  H   H1526     1.0  0.99952  0.38222  0.66244  1.0000
  P   P63       1.0  0.90651  0.22999  0.82436  1.0000
  C   C1882     1.0  0.96162  0.33503  0.82718  1.0000
  H   H1527     1.0  0.86551  0.40213  0.96325  1.0000
  C   C1883     1.0  0.80515  0.27193  0.76016  1.0000
  C   C1884     1.0  0.83419  0.26776  0.74893  1.0000
  C   C1885     1.0  0.85834  0.27646  0.75397  1.0000
  C   C1886     1.0  0.85392  0.28967  0.77009  1.0000
  C   C1887     1.0  0.82496  0.29378  0.78162  1.0000
  C   C1888     1.0  0.80085  0.28494  0.77697  1.0000
  H   H1528     1.0  0.83798  0.25776  0.73593  1.0000
  H   H1529     1.0  0.88026  0.27311  0.74468  1.0000
  H   H1530     1.0  0.82104  0.30394  0.79408  1.0000
  H   H1531     1.0  0.77878  0.28839  0.78575  1.0000
  C   C1889     1.0  0.60495  0.26079  0.85449  1.0000
  C   C1890     1.0  0.58671  0.26978  0.87424  1.0000
  C   C1891     1.0  0.56201  0.26410  0.89019  1.0000
  C   C1892     1.0  0.55566  0.24924  0.88698  1.0000
  C   C1893     1.0  0.57343  0.24038  0.86662  1.0000
  C   C1894     1.0  0.59778  0.24614  0.85029  1.0000
  H   H1532     1.0  0.59185  0.28118  0.87738  1.0000
  H   H1533     1.0  0.54818  0.27115  0.90520  1.0000
  S   S257      1.0  0.00133  0.30597  0.56629  1.0000
  H   H1534     1.0  0.61138  0.23913  0.83500  1.0000
  C   C1895     1.0  0.61088  0.24877  0.67151  1.0000
  C   C1896     1.0  0.59208  0.26034  0.68373  1.0000
  C   C1897     1.0  0.56485  0.26527  0.66910  1.0000
  C   C1898     1.0  0.55590  0.25863  0.64227  1.0000
  C   C1899     1.0  0.57439  0.24681  0.63051  1.0000
  C   C1900     1.0  0.60174  0.24199  0.64495  1.0000
  H   H1535     1.0  0.59893  0.26580  0.70386  1.0000
  H   H1536     1.0  0.55079  0.27443  0.67838  1.0000
  H   H1537     1.0  0.56791  0.24161  0.60989  1.0000
  C   C1901     1.0  0.97895  0.28039  0.59629  1.0000
  H   H1538     1.0  0.57723  0.24321  0.94929  1.0000
  C   C1902     1.0  0.99369  0.36381  0.69640  1.0000
  C   C1903     1.0  0.86864  0.40106  0.57142  1.0000
  C   C1904     1.0  0.89536  0.27385  0.84772  1.0000
  C   C1905     1.0  0.83322  0.47336  0.84169  1.0000
  H   H1539     1.0  0.97206  0.27738  0.57371  1.0000
  H   H1540     1.0  0.52936  0.23272  0.81080  1.0000
  H   H1541     1.0  0.57511  0.25880  0.75588  1.0000
  C   C1906     1.0  0.91975  0.34336  0.57060  1.0000
  C   C1907     1.0  0.92505  0.40981  0.55425  1.0000
  C   C1908     1.0  0.87910  0.36551  0.52457  1.0000
  H   H1542     1.0  0.78210  0.35884  0.63885  1.0000
  H   H1543     1.0  0.96302  0.45556  0.80160  1.0000
  H   H1544     1.0  0.93735  0.45234  0.75220  1.0000
  C   C1909     1.0  0.93892  0.23086  0.79909  1.0000
  C   C1910     1.0  0.97281  0.40520  0.95792  1.0000
  H   H1545     1.0  0.95953  0.38384  0.85114  1.0000
  Fe  Fe129     1.0  0.96951  0.43992  0.91601  1.0000
  H   H1546     1.0  0.89012  0.35412  0.96992  1.0000
  C   C1911     1.0  0.83005  0.35591  0.63506  1.0000
  H   H1547     1.0  0.53971  0.24423  0.71274  1.0000
  H   H1548     1.0  0.99366  0.47063  0.67621  1.0000
  C   C1912     1.0  0.79824  0.36915  0.59608  1.0000
  C   C1913     1.0  0.90041  0.40299  0.65149  1.0000
  C   C1914     1.0  0.96138  0.45035  0.75331  1.0000
  C   C1915     1.0  0.97589  0.45215  0.78137  1.0000
  H   H1549     1.0  0.94565  0.32209  0.57668  1.0000
  H   H1550     1.0  0.88478  0.26127  0.80915  1.0000
  C   C1916     1.0  0.92056  0.25978  0.89051  1.0000
  H   H1551     1.0  0.88659  0.28448  0.83677  1.0000
  C   C1917     1.0  0.53651  0.27101  0.77653  1.0000
  H   H1552     1.0  0.96306  0.26075  0.62079  1.0000
  C   C1918     1.0  0.98658  0.35258  0.85637  1.0000
  C   C1919     1.0  0.97206  0.30231  0.91359  1.0000
  S   S258      1.0  0.94288  0.45534  0.53633  1.0000
  C   C1920     1.0  0.89425  0.26062  0.83216  1.0000
  H   H1553     1.0  0.95976  0.23548  0.72291  1.0000
  S   S259      1.0  0.71473  0.23538  0.73961  1.0000
  C   C1921     1.0  0.54351  0.23653  0.73283  1.0000
  C   C1922     1.0  0.00512  0.34931  0.70684  1.0000
  C   C1923     1.0  0.93635  0.23238  0.76664  1.0000
  C   C1924     1.0  0.00466  0.41119  0.86477  1.0000
  S   S260      1.0  0.95861  0.44407  0.69190  1.0000
  C   C1925     1.0  0.93265  0.34423  0.95419  1.0000
  C   C1926     1.0  0.90951  0.35564  0.95515  1.0000
  C   C1927     1.0  0.91159  0.36904  0.93731  1.0000
  C   C1928     1.0  0.93688  0.37109  0.91865  1.0000
  C   C1929     1.0  0.96033  0.35969  0.91774  1.0000
  C   C1930     1.0  0.95799  0.34626  0.93569  1.0000
  P   P64       1.0  0.99225  0.36149  0.89211  1.0000
  S   S261      1.0  0.65202  0.23557  0.77880  1.0000
  C   C1931     1.0  0.99687  0.28217  0.94530  1.0000
  C   C1932     1.0  0.97770  0.38912  0.86096  1.0000
  C   C1933     1.0  0.98116  0.40420  0.85276  1.0000
  H   H1554     1.0  0.90631  0.43240  0.56068  1.0000
  H   H1555     1.0  0.99645  0.34385  0.72770  1.0000
  Fe  Fe130     1.0  0.94787  0.47241  0.89650  1.0000
  H   H1556     1.0  0.92701  0.47247  0.59062  1.0000
  C   C1934     1.0  0.64662  0.22925  0.91536  1.0000
  H   H1557     1.0  0.59395  0.29787  0.80216  1.0000
  C   C1935     1.0  0.91600  0.35836  0.57886  1.0000
  H   H1558     1.0  0.96148  0.31361  0.91104  1.0000
  H   H1559     1.0  0.96468  0.41924  0.77853  1.0000
  H   H1560     1.0  0.89361  0.23374  0.69890  1.0000
  H   H1561     1.0  0.93180  0.25961  0.91256  1.0000
  H   H1562     1.0  0.93450  0.24055  0.66289  1.0000
  H   H1563     1.0  0.51437  0.25842  0.83468  1.0000
  H   H1564     1.0  0.90485  0.33907  0.55445  1.0000
  H   H1565     1.0  0.93123  0.33381  0.96802  1.0000
  C   C1936     1.0  0.00200  0.39700  0.53663  1.0000
  H   H1566     1.0  0.89386  0.37799  0.93830  1.0000
  H   H1567     1.0  0.93818  0.38170  0.90569  1.0000
  H   H1568     1.0  0.97572  0.33727  0.93536  1.0000
  H   H1569     1.0  0.93803  0.38642  0.54982  1.0000
  H   H1570     1.0  0.96546  0.41057  0.83737  1.0000
  C   C1937     1.0  0.00252  0.40707  0.96460  1.0000
  C   C1938     1.0  0.00079  0.34857  0.80255  1.0000
  C   C1939     1.0  0.90216  0.42062  0.56157  1.0000
  C   C1940     1.0  0.53091  0.23992  0.76199  1.0000
  C   C1941     1.0  0.98943  0.37492  0.51044  1.0000
  C   C1942     1.0  0.87398  0.41626  0.57016  1.0000
  C   C1943     1.0  0.98073  0.38616  0.74346  1.0000
  H   H1571     1.0  0.95134  0.33932  0.87463  1.0000
  H   H1572     1.0  0.00439  0.40893  0.53605  1.0000
  H   H1573     1.0  0.82041  0.37813  0.55551  1.0000
  H   H1574     1.0  0.66152  0.23798  0.90986  1.0000
  H   H1575     1.0  0.54016  0.30299  0.81541  1.0000
  C   C1944     1.0  0.96719  0.23104  0.81236  1.0000
  C   C1945     1.0  0.91219  0.46811  0.54505  1.0000
  C   C1946     1.0  0.90591  0.24680  0.84584  1.0000
  H   H1576     1.0  0.89447  0.47111  0.94354  1.0000
  C   C1947     1.0  0.84569  0.23712  0.81364  1.0000
  C   C1948     1.0  0.94497  0.40015  0.68265  1.0000
  C   C1949     1.0  0.92470  0.40912  0.66404  1.0000
  H   H1577     1.0  0.61085  0.27601  0.77184  1.0000
  H   H1578     1.0  0.91475  0.23327  0.75584  1.0000
  H   H1579     1.0  0.96454  0.29761  0.86600  1.0000
  H   H1580     1.0  0.97708  0.33236  0.78002  1.0000
  H   H1581     1.0  0.84269  0.35154  0.53553  1.0000
  H   H1582     1.0  0.85632  0.42472  0.57587  1.0000
  C   C1950     1.0  0.93210  0.22883  0.66962  1.0000
  C   C1951     1.0  0.97959  0.33811  0.80119  1.0000
  H   H1583     1.0  0.87722  0.38314  0.64814  1.0000
  H   H1584     1.0  0.92999  0.23617  0.88544  1.0000
  C   C1952     1.0  0.99315  0.29362  0.59882  1.0000
  C   C1953     1.0  0.91945  0.24651  0.87501  1.0000
  C   C1954     1.0  0.82337  0.37197  0.57774  1.0000
  H   H1585     1.0  0.63795  0.23581  0.96203  1.0000
  C   C1955     1.0  0.98983  0.23383  0.76119  1.0000
  H   H1586     1.0  0.96397  0.40521  0.69141  1.0000
  S   S262      1.0  0.98167  0.30926  0.97434  1.0000
  H   H1587     1.0  0.84581  0.24487  0.83202  1.0000
  H   H1588     1.0  0.79872  0.24252  0.80568  1.0000
  Fe  Fe131     1.0  0.00269  0.29822  0.76223  1.0000
  C   C1956     1.0  0.87182  0.22862  0.80457  1.0000
  C   C1957     1.0  0.52688  0.28374  0.79290  1.0000
  H   H1589     1.0  0.97390  0.35766  0.62882  1.0000
  C   C1958     1.0  0.97392  0.27094  0.62308  1.0000
  H   H1590     1.0  0.94690  0.41328  0.54767  1.0000
  C   C1959     1.0  0.99655  0.28797  0.65508  1.0000
  C   C1960     1.0  0.96248  0.33880  0.60414  1.0000
  C   C1961     1.0  0.80228  0.47270  0.84226  1.0000
  C   C1962     1.0  0.00211  0.29721  0.62839  1.0000
  H   H1591     1.0  0.91012  0.28375  0.88856  1.0000
  Fe  Fe132     1.0  0.00040  0.45617  0.86271  1.0000
  S   S263      1.0  0.95210  0.41771  0.93181  1.0000
  H   H1592     1.0  0.87700  0.35451  0.62536  1.0000
  C   C1963     1.0  0.80158  0.36112  0.62471  1.0000
  H   H1593     1.0  0.88710  0.44640  0.93303  1.0000
  C   C1964     1.0  0.98358  0.29695  0.94263  1.0000
  C   C1965     1.0  0.58733  0.27826  0.77738  1.0000
  C   C1966     1.0  0.97742  0.40912  0.77148  1.0000
  P   P65       1.0  0.88461  0.37038  0.56413  1.0000
  C   C1967     1.0  0.85694  0.35608  0.51753  1.0000
  C   C1968     1.0  0.87433  0.42423  0.94521  1.0000
  C   C1969     1.0  0.89152  0.39006  0.56393  1.0000
  H   H1594     1.0  0.91181  0.36729  0.68209  1.0000
  H   H1595     1.0  0.61613  0.23308  0.63519  1.0000
  H   H1596     1.0  0.58447  0.24938  0.50588  1.0000
  H   H1597     1.0  0.88492  0.41004  0.63697  1.0000
  C   C1970     1.0  0.97779  0.44614  0.72666  1.0000
  S   S264      1.0  0.97611  0.26268  0.68642  1.0000
  C   C1971     1.0  0.96182  0.23374  0.74783  1.0000
  C   C1972     1.0  0.63310  0.22804  0.94478  1.0000
  C   C1973     1.0  0.93547  0.36344  0.60030  1.0000
  C   C1974     1.0  0.99631  0.36603  0.53745  1.0000
  H   H1598     1.0  0.90044  0.35816  0.80667  1.0000
  C   C1975     1.0  0.98767  0.27850  0.89010  1.0000
  H   H1599     1.0  0.94409  0.34445  0.70446  1.0000
  H   H1600     1.0  0.55556  0.26847  0.96026  1.0000
  C   C1976     1.0  0.90852  0.27344  0.87688  1.0000
  Fe  Fe133     1.0  0.99147  0.31204  0.51452  1.0000
  C   C1977     1.0  0.98239  0.27476  0.65277  1.0000
  S   S265      1.0  0.98718  0.46225  0.61285  1.0000
  C   C1978     1.0  0.56688  0.26845  0.76852  1.0000
  C   C1979     1.0  0.88677  0.43754  0.95114  1.0000
  H   H1601     1.0  0.92771  0.42095  0.65967  1.0000
  H   H1602     1.0  0.56856  0.22892  0.86378  1.0000
  H   H1603     1.0  0.93296  0.37490  0.60735  1.0000
  C   C1980     1.0  0.89975  0.43915  0.97988  1.0000
  C   C1981     1.0  0.53776  0.23008  0.78786  1.0000
  H   H1604     1.0  0.89005  0.33415  0.78446  1.0000
  H   H1605     1.0  0.94485  0.32707  0.82607  1.0000
  C   C1982     1.0  0.96520  0.34213  0.85474  1.0000
  H   H1606     1.0  0.83260  0.34956  0.65716  1.0000
  P   P66       1.0  0.96420  0.37394  0.71774  1.0000
  C   C1983     1.0  0.94141  0.36112  0.73941  1.0000
  C   C1984     1.0  0.96394  0.39889  0.75413  1.0000
  H   H1607     1.0  0.93583  0.39193  0.96807  1.0000
  C   C1985     1.0  0.94285  0.33364  0.58326  1.0000
  H   H1608     1.0  0.91214  0.32733  0.73375  1.0000
  C   C1986     1.0  0.57276  0.24584  0.97321  1.0000
  C   C1987     1.0  0.89888  0.36996  0.50088  1.0000
  C   C1988     1.0  0.92869  0.36489  0.76827  1.0000
  C   C1989     1.0  0.91013  0.35523  0.78438  1.0000
  C   C1990     1.0  0.90428  0.34171  0.77193  1.0000
  C   C1991     1.0  0.91681  0.33785  0.74328  1.0000
  C   C1992     1.0  0.93511  0.34754  0.72694  1.0000
  C   C1993     1.0  0.94019  0.38506  0.69033  1.0000
  C   C1994     1.0  0.91585  0.37891  0.67725  1.0000
  C   C1995     1.0  0.89611  0.38786  0.65787  1.0000
  S   S266      1.0  0.99064  0.26649  0.85778  1.0000
  C   C1996     1.0  0.97505  0.38267  0.99259  1.0000
  S   S267      1.0  0.51765  0.25071  0.53609  1.0000
  H   H1609     1.0  0.76371  0.23199  0.68791  1.0000
  C   C1997     1.0  0.99186  0.39046  0.51026  1.0000
  H   H1610     1.0  0.91735  0.37641  0.50578  1.0000
  C   C1998     1.0  0.99253  0.23249  0.79347  1.0000
  P   P67       1.0  0.51023  0.25786  0.76685  1.0000
  H   H1611     1.0  0.79296  0.46191  0.84380  1.0000
  C   C1999     1.0  0.54751  0.29344  0.80202  1.0000
  C   C2000     1.0  0.56029  0.26024  0.97926  1.0000
  Fe  Fe134     1.0  0.69959  0.22614  0.78588  1.0000
  H   H1612     1.0  0.99380  0.35409  0.53803  1.0000
  H   H1613     1.0  0.85294  0.47304  0.98240  1.0000
  H   H1614     1.0  0.89129  0.46612  0.50107  1.0000
  H   H1615     1.0  0.00575  0.27776  0.96741  1.0000
  C   C2001     1.0  0.99877  0.27305  0.91932  1.0000
  H   H1616     1.0  0.00381  0.29098  0.67744  1.0000
  H   H1617     1.0  0.96277  0.43015  0.99221  1.0000
  C   C2002     1.0  0.90918  0.22498  0.69009  1.0000
  H   H1618     1.0  0.99730  0.47255  0.53228  1.0000
  C   C2003     1.0  0.88983  0.47155  0.52291  1.0000
  C   C2004     1.0  0.81733  0.22562  0.77566  1.0000
  C   C2005     1.0  0.88769  0.41408  0.99680  1.0000
  C   C2006     1.0  0.57864  0.23496  0.99763  1.0000
  Fe  Fe135     1.0  0.93713  0.58520  0.11579  1.0000
  S   S268      1.0  0.94804  0.59778  0.07135  1.0000
  S   S269      1.0  0.90041  0.56942  0.12101  1.0000
  H   H1619     1.0  0.86870  0.62961  0.45988  1.0000
  Fe  Fe136     1.0  0.95697  0.61673  0.10105  1.0000
  S   S270      1.0  0.93873  0.64088  0.09128  1.0000
  S   S271      1.0  0.94149  0.60488  0.14507  1.0000
  P   P68       1.0  0.94692  0.70352  0.12784  1.0000
  Fe  Fe137     1.0  0.96963  0.59925  0.36691  1.0000
  S   S272      1.0  0.94432  0.59968  0.32198  1.0000
  Fe  Fe138     1.0  0.95936  0.59227  0.43602  1.0000
  C   C2007     1.0  0.57662  0.49491  0.36752  1.0000
  S   S273      1.0  0.92760  0.58508  0.47403  1.0000
  P   P69       1.0  0.98651  0.52638  0.01435  1.0000
  C   C2008     1.0  0.92001  0.70832  0.09746  1.0000
  S   S274      1.0  0.95134  0.61336  0.40565  1.0000
  S   S275      1.0  0.97364  0.57787  0.39671  1.0000
  C   C2009     1.0  0.83448  0.56944  0.04128  1.0000
  Fe  Fe139     1.0  0.75990  0.50784  0.47415  1.0000
  S   S276      1.0  0.73882  0.49019  0.44766  1.0000
  Fe  Fe140     1.0  0.80177  0.53275  0.46901  1.0000
  S   S277      1.0  0.82856  0.54459  0.43200  1.0000
  S   S278      1.0  0.80989  0.50774  0.47554  1.0000
  S   S279      1.0  0.75224  0.53268  0.46400  1.0000
  S   S280      1.0  0.78304  0.52957  0.04225  1.0000
  H   H1620     1.0  0.92476  0.59950  0.25930  1.0000
  Fe  Fe141     1.0  0.73292  0.53187  0.04564  1.0000
  S   S281      1.0  0.70622  0.53144  0.09110  1.0000
  C   C2010     1.0  0.67977  0.50353  0.16190  1.0000
  C   C2011     1.0  0.68574  0.51632  0.14308  1.0000
  C   C2012     1.0  0.69863  0.51494  0.11333  1.0000
  H   H1621     1.0  0.67018  0.50476  0.18491  1.0000
  H   H1622     1.0  0.68031  0.52738  0.15154  1.0000
  H   H1623     1.0  0.73642  0.51675  0.40468  1.0000
  C   C2013     1.0  0.90056  0.57363  0.46209  1.0000
  C   C2014     1.0  0.61047  0.51887  0.46392  1.0000
  C   C2015     1.0  0.85957  0.55827  0.47549  1.0000
  C   C2016     1.0  0.85626  0.55560  0.44415  1.0000
  C   C2017     1.0  0.87520  0.56192  0.42183  1.0000
  C   C2018     1.0  0.89725  0.57097  0.43073  1.0000
  H   H1624     1.0  0.68988  0.47613  0.35407  1.0000
  H   H1625     1.0  0.87265  0.55988  0.39761  1.0000
  H   H1626     1.0  0.91127  0.57607  0.41327  1.0000
  C   C2019     1.0  0.97137  0.49726  0.00710  1.0000
  C   C2020     1.0  0.96349  0.64854  0.45209  1.0000
  H   H1627     1.0  0.68753  0.53825  0.20500  1.0000
  H   H1628     1.0  0.94339  0.62708  0.02852  1.0000
  C   C2021     1.0  0.96836  0.54504  0.00766  1.0000
  S   S282      1.0  0.63474  0.49263  0.24553  1.0000
  H   H1629     1.0  0.95538  0.63813  0.44582  1.0000
  C   C2022     1.0  0.99296  0.55412  0.47278  1.0000
  C   C2023     1.0  0.72636  0.50787  0.39377  1.0000
  C   C2024     1.0  0.87586  0.56946  0.08962  1.0000
  C   C2025     1.0  0.86978  0.58234  0.07017  1.0000
  H   H1630     1.0  0.99507  0.63632  0.05755  1.0000
  C   C2026     1.0  0.84110  0.55648  0.06038  1.0000
  C   C2027     1.0  0.86159  0.55652  0.08457  1.0000
  H   H1631     1.0  0.83025  0.54646  0.05677  1.0000
  H   H1632     1.0  0.86618  0.54652  0.09954  1.0000
  C   C2028     1.0  0.95743  0.65238  0.06424  1.0000
  C   C2029     1.0  0.94444  0.66681  0.05573  1.0000
  H   H1633     1.0  0.51462  0.50983  0.36256  1.0000
  H   H1634     1.0  0.85185  0.52781  0.26477  1.0000
  C   C2030     1.0  0.98483  0.64740  0.05104  1.0000
  H   H1635     1.0  0.92310  0.67060  0.06563  1.0000
  C   C2031     1.0  0.92416  0.71871  0.36703  1.0000
  C   C2032     1.0  0.96432  0.59783  0.23019  1.0000
  C   C2033     1.0  0.94886  0.59908  0.25871  1.0000
  C   C2034     1.0  0.96444  0.59945  0.28647  1.0000
  H   H1636     1.0  0.95211  0.59703  0.20915  1.0000
  H   H1637     1.0  0.96960  0.69922  0.30570  1.0000
  C   C2035     1.0  0.58948  0.50811  0.31927  1.0000
  C   C2036     1.0  0.93870  0.67354  0.14413  1.0000
  H   H1638     1.0  0.73169  0.53960  0.17081  1.0000
  C   C2037     1.0  0.62604  0.52882  0.48011  1.0000
  H   H1639     1.0  0.99225  0.68598  0.47564  1.0000
  H   H1640     1.0  0.85599  0.64375  0.10675  1.0000
  H   H1641     1.0  0.90351  0.61455  0.49548  1.0000
  C   C2038     1.0  0.97971  0.68291  0.36386  1.0000
  C   C2039     1.0  0.73371  0.51144  0.24257  1.0000
  C   C2040     1.0  0.97320  0.52011  0.42367  1.0000
  C   C2041     1.0  0.54153  0.47922  0.47970  1.0000
  C   C2042     1.0  0.70055  0.49912  0.34962  1.0000
  H   H1642     1.0  0.89859  0.51619  0.24152  1.0000
  C   C2043     1.0  0.72752  0.57679  0.38604  1.0000
  C   C2044     1.0  0.98617  0.67120  0.02086  1.0000
  Fe  Fe142     1.0  0.98947  0.59600  0.14955  1.0000
  H   H1643     1.0  0.90007  0.49199  0.45107  1.0000
  H   H1644     1.0  0.94829  0.67103  0.12154  1.0000
  Fe  Fe143     1.0  0.99935  0.61656  0.41473  1.0000
  H   H1645     1.0  0.89831  0.50693  0.18825  1.0000
  C   C2045     1.0  0.77339  0.49590  0.15107  1.0000
  H   H1646     1.0  0.78284  0.47877  0.08255  1.0000
  C   C2046     1.0  0.95978  0.65861  0.37326  1.0000
  C   C2047     1.0  0.95164  0.48616  0.00471  1.0000
  C   C2048     1.0  0.95913  0.67388  0.37888  1.0000
  C   C2049     1.0  0.99551  0.51175  0.44095  1.0000
  H   H1647     1.0  0.55362  0.49369  0.32449  1.0000
  H   H1648     1.0  0.76115  0.49462  0.17275  1.0000
  H   H1649     1.0  0.86872  0.61795  0.09000  1.0000
  C   C2050     1.0  0.00607  0.71711  0.41882  1.0000
  H   H1650     1.0  0.87973  0.51863  0.45399  1.0000
  H   H1651     1.0  0.84516  0.55345  0.49291  1.0000
  H   H1652     1.0  0.85186  0.50931  0.15830  1.0000
  S   S283      1.0  0.68523  0.50295  0.31223  1.0000
  H   H1653     1.0  0.98911  0.50301  0.45737  1.0000
  S   S284      1.0  0.72693  0.51818  0.00456  1.0000
  H   H1654     1.0  0.94367  0.54462  0.05138  1.0000
  H   H1655     1.0  0.61460  0.53569  0.49733  1.0000
  C   C2051     1.0  0.57136  0.49855  0.33608  1.0000
  C   C2052     1.0  0.87683  0.65209  0.03183  1.0000
  H   H1656     1.0  0.86403  0.69388  0.05939  1.0000
  H   H1657     1.0  0.71115  0.58279  0.40059  1.0000
  H   H1658     1.0  0.56290  0.48708  0.37978  1.0000
  H   H1659     1.0  0.71423  0.52152  0.35237  1.0000
  H   H1660     1.0  0.65008  0.48232  0.46914  1.0000
  C   C2053     1.0  0.68573  0.48922  0.15062  1.0000
  H   H1661     1.0  0.86119  0.66557  0.06971  1.0000
  C   C2054     1.0  0.94410  0.57495  0.00054  1.0000
  C   C2055     1.0  0.87806  0.51712  0.22854  1.0000
  H   H1662     1.0  0.99834  0.71516  0.15733  1.0000
  H   H1663     1.0  0.87897  0.66178  0.01609  1.0000
  H   H1664     1.0  0.88666  0.61383  0.03637  1.0000
  C   C2056     1.0  0.90704  0.71126  0.42820  1.0000
  C   C2057     1.0  0.64922  0.47466  0.45063  1.0000
  C   C2058     1.0  0.79313  0.56796  0.11505  1.0000
  C   C2059     1.0  0.73406  0.58259  0.35617  1.0000
  H   H1665     1.0  0.80536  0.53049  0.23497  1.0000
  C   C2060     1.0  0.65661  0.52969  0.47469  1.0000
  H   H1666     1.0  0.89855  0.68750  0.10269  1.0000
  C   C2061     1.0  0.99830  0.50037  0.30345  1.0000
  H   H1667     1.0  0.99527  0.48999  0.31688  1.0000
  H   H1668     1.0  0.97867  0.54212  0.18974  1.0000
  H   H1669     1.0  0.92032  0.52763  0.01086  1.0000
  H   H1670     1.0  0.90030  0.70820  0.45181  1.0000
  C   C2062     1.0  0.95090  0.71995  0.14949  1.0000
  C   C2063     1.0  0.97357  0.55251  0.23412  1.0000
  C   C2064     1.0  0.96414  0.54890  0.20472  1.0000
  C   C2065     1.0  0.93580  0.55415  0.19408  1.0000
  C   C2066     1.0  0.91640  0.56289  0.21278  1.0000
  C   C2067     1.0  0.92527  0.56626  0.24231  1.0000
  C   C2068     1.0  0.95382  0.56123  0.25287  1.0000
  H   H1671     1.0  0.94869  0.68738  0.02786  1.0000
  H   H1672     1.0  0.69528  0.52117  0.44886  1.0000
  C   C2069     1.0  0.77321  0.55759  0.10774  1.0000
  H   H1673     1.0  0.94162  0.48176  0.48529  1.0000
  H   H1674     1.0  0.86532  0.71817  0.02896  1.0000
  H   H1675     1.0  0.81341  0.50017  0.07084  1.0000
  C   C2070     1.0  0.99548  0.59734  0.22917  1.0000
  H   H1676     1.0  0.82827  0.54861  0.17564  1.0000
  C   C2071     1.0  0.60282  0.48938  0.16114  1.0000
  H   H1677     1.0  0.58584  0.51056  0.29463  1.0000
  H   H1678     1.0  0.57814  0.47423  0.18973  1.0000
  H   H1679     1.0  0.96075  0.49853  0.27406  1.0000
  C   C2072     1.0  0.00112  0.67632  0.34344  1.0000
  C   C2073     1.0  0.99003  0.70206  0.07988  1.0000
  C   C2074     1.0  0.77273  0.54400  0.12526  1.0000
  C   C2075     1.0  0.97829  0.61401  0.00532  1.0000
  H   H1680     1.0  0.92904  0.55167  0.17103  1.0000
  H   H1681     1.0  0.89477  0.56727  0.20402  1.0000
  H   H1682     1.0  0.91042  0.57323  0.25669  1.0000
  H   H1683     1.0  0.96043  0.56452  0.27530  1.0000
  P   P70       1.0  0.79144  0.52278  0.17202  1.0000
  C   C2076     1.0  0.98412  0.67560  0.46904  1.0000
  H   H1684     1.0  0.75777  0.53591  0.11891  1.0000
  C   C2077     1.0  0.93690  0.56607  0.02680  1.0000
  H   H1685     1.0  0.94436  0.65162  0.38549  1.0000
  C   C2078     1.0  0.78554  0.48676  0.10009  1.0000
  C   C2079     1.0  0.86390  0.64867  0.48870  1.0000
  C   C2080     1.0  0.79190  0.54068  0.15041  1.0000
  H   H1686     1.0  0.94297  0.67839  0.39552  1.0000
  H   H1687     1.0  0.97512  0.70975  0.06610  1.0000
  H   H1688     1.0  0.92259  0.57080  0.04481  1.0000
  H   H1689     1.0  0.90490  0.68151  0.22563  1.0000
  H   H1690     1.0  0.77836  0.50439  0.22822  1.0000
  C   C2081     1.0  0.87955  0.70181  0.06546  1.0000
  C   C2082     1.0  0.57153  0.49292  0.44229  1.0000
  C   C2083     1.0  0.00273  0.68728  0.12732  1.0000
  C   C2084     1.0  0.75901  0.51215  0.22334  1.0000
  H   H1691     1.0  0.58700  0.51818  0.46905  1.0000
  Fe  Fe144     1.0  0.99562  0.58920  0.08112  1.0000
  C   C2085     1.0  0.91425  0.67933  0.20280  1.0000
  C   C2086     1.0  0.93317  0.49346  0.48601  1.0000
  S   S285      1.0  0.80778  0.56995  0.01163  1.0000
  C   C2087     1.0  0.71369  0.51055  0.36414  1.0000
  P   P71       1.0  0.60686  0.49568  0.42309  1.0000
  H   H1692     1.0  0.90091  0.53483  0.49071  1.0000
  C   C2088     1.0  0.99554  0.59924  0.28542  1.0000
  C   C2089     1.0  0.74232  0.56330  0.39734  1.0000
  H   H1693     1.0  0.60031  0.49370  0.08239  1.0000
  C   C2090     1.0  0.82495  0.51973  0.19471  1.0000
  H   H1694     1.0  0.97817  0.71548  0.25874  1.0000
  S   S286      1.0  0.72934  0.55388  0.01753  1.0000
  H   H1695     1.0  0.61411  0.49342  0.18056  1.0000
  H   H1696     1.0  0.72275  0.59313  0.34751  1.0000
  C   C2091     1.0  0.98114  0.65217  0.35295  1.0000
  C   C2092     1.0  0.85177  0.52368  0.24163  1.0000
  H   H1697     1.0  0.96327  0.53831  0.38959  1.0000
  C   C2093     1.0  0.86331  0.64201  0.08304  1.0000
  C   C2094     1.0  0.81227  0.55106  0.15729  1.0000
  C   C2095     1.0  0.96050  0.51232  0.00989  1.0000
  C   C2096     1.0  0.84913  0.58234  0.04607  1.0000
  C   C2097     1.0  0.70006  0.48498  0.36500  1.0000
  C   C2098     1.0  0.72561  0.49376  0.40932  1.0000
  C   C2099     1.0  0.93502  0.68840  0.15346  1.0000
  C   C2100     1.0  0.89929  0.69823  0.09001  1.0000
  C   C2101     1.0  0.75893  0.52247  0.19748  1.0000
  C   C2102     1.0  0.78989  0.50837  0.14434  1.0000
  C   C2103     1.0  0.93526  0.70608  0.41714  1.0000
  C   C2104     1.0  0.80269  0.49887  0.09350  1.0000
  C   C2105     1.0  0.99299  0.65146  0.44525  1.0000
  C   C2106     1.0  0.00053  0.51163  0.07205  1.0000
  C   C2107     1.0  0.65601  0.51089  0.43647  1.0000
  C   C2108     1.0  0.85144  0.51318  0.18168  1.0000
  C   C2109     1.0  0.77889  0.50692  0.32813  1.0000
  C   C2110     1.0  0.79390  0.50109  0.35479  1.0000
  C   C2111     1.0  0.81133  0.51018  0.37091  1.0000
  C   C2112     1.0  0.81355  0.52513  0.36054  1.0000
  C   C2113     1.0  0.79799  0.53122  0.33420  1.0000
  C   C2114     1.0  0.78074  0.52194  0.31793  1.0000
  P   P72       1.0  0.79743  0.55118  0.32423  1.0000
  C   C2115     1.0  0.77006  0.56116  0.34856  1.0000
  C   C2116     1.0  0.83382  0.55772  0.32999  1.0000
  C   C2117     1.0  0.83645  0.57253  0.33815  1.0000
  C   C2118     1.0  0.86463  0.57792  0.34014  1.0000
  C   C2119     1.0  0.89036  0.56859  0.33409  1.0000
  C   C2120     1.0  0.88797  0.55382  0.32614  1.0000
  C   C2121     1.0  0.85983  0.54839  0.32405  1.0000
  C   C2122     1.0  0.75534  0.57486  0.33753  1.0000
  C   C2123     1.0  0.70771  0.53117  0.21044  1.0000
  C   C2124     1.0  0.63051  0.47825  0.42506  1.0000
  H   H1698     1.0  0.68831  0.52014  0.25076  1.0000
  C   C2125     1.0  0.76353  0.55550  0.37876  1.0000
  C   C2126     1.0  0.78722  0.55535  0.28405  1.0000
  C   C2127     1.0  0.75762  0.55442  0.27495  1.0000
  C   C2128     1.0  0.74919  0.55821  0.24428  1.0000
  C   C2129     1.0  0.77010  0.56310  0.22246  1.0000
  C   C2130     1.0  0.79948  0.56428  0.23139  1.0000
  C   C2131     1.0  0.80810  0.56037  0.26199  1.0000
  H   H1699     1.0  0.76466  0.49997  0.31619  1.0000
  H   H1700     1.0  0.79130  0.48967  0.36349  1.0000
  H   H1701     1.0  0.82234  0.50581  0.39209  1.0000
  H   H1702     1.0  0.82653  0.53209  0.37382  1.0000
  H   H1703     1.0  0.76800  0.52620  0.29791  1.0000
  H   H1704     1.0  0.81686  0.57998  0.34291  1.0000
  H   H1705     1.0  0.86668  0.58933  0.34659  1.0000
  H   H1706     1.0  0.91213  0.57284  0.33587  1.0000
  H   H1707     1.0  0.90799  0.54660  0.32168  1.0000
  H   H1708     1.0  0.85837  0.53695  0.31771  1.0000
  H   H1709     1.0  0.76038  0.57966  0.31463  1.0000
  C   C2132     1.0  0.81272  0.56469  0.13977  1.0000
  H   H1710     1.0  0.52435  0.48589  0.18019  1.0000
  C   C2133     1.0  0.59990  0.50096  0.38263  1.0000
  H   H1711     1.0  0.77486  0.54517  0.38834  1.0000
  H   H1712     1.0  0.74095  0.55088  0.29168  1.0000
  H   H1713     1.0  0.72630  0.55750  0.23749  1.0000
  H   H1714     1.0  0.76346  0.56610  0.19870  1.0000
  H   H1715     1.0  0.81555  0.56838  0.21464  1.0000
  H   H1716     1.0  0.83095  0.56149  0.26826  1.0000
  H   H1717     1.0  0.88072  0.59233  0.07403  1.0000
  H   H1718     1.0  0.91190  0.65534  0.20876  1.0000
  C   C2134     1.0  0.92262  0.69122  0.18295  1.0000
  C   C2135     1.0  0.94428  0.65920  0.46683  1.0000
  C   C2136     1.0  0.70808  0.52095  0.23614  1.0000
  C   C2137     1.0  0.71261  0.48232  0.39468  1.0000
  H   H1719     1.0  0.71437  0.49944  0.07905  1.0000
  H   H1720     1.0  0.84410  0.59243  0.03148  1.0000
  H   H1721     1.0  0.95765  0.53962  0.47198  1.0000
  C   C2138     1.0  0.95884  0.67628  0.03426  1.0000
  C   C2139     1.0  0.67152  0.52075  0.45278  1.0000
  C   C2140     1.0  0.88443  0.63748  0.02229  1.0000
  C   C2141     1.0  0.98063  0.53158  0.40240  1.0000
  C   C2142     1.0  0.82536  0.52506  0.22475  1.0000
  C   C2143     1.0  0.80499  0.50961  0.11555  1.0000
  H   H1722     1.0  0.66797  0.50385  0.42000  1.0000
  C   C2144     1.0  0.95450  0.67270  0.47551  1.0000
  H   H1723     1.0  0.75856  0.55988  0.08801  1.0000
  C   C2145     1.0  0.87059  0.62745  0.07361  1.0000
  C   C2146     1.0  0.73296  0.53191  0.19108  1.0000
  H   H1724     1.0  0.96029  0.47461  0.00240  1.0000
  C   C2147     1.0  0.93030  0.66171  0.16399  1.0000
  C   C2148     1.0  0.61810  0.51053  0.36558  1.0000
  C   C2149     1.0  0.61278  0.51411  0.33404  1.0000
  C   C2150     1.0  0.60914  0.49488  0.13098  1.0000
  C   C2151     1.0  0.59512  0.48949  0.10575  1.0000
  C   C2152     1.0  0.98247  0.69730  0.11042  1.0000
  H   H1725     1.0  0.95006  0.51784  0.42716  1.0000
  C   C2153     1.0  0.69789  0.48784  0.12051  1.0000
  C   C2154     1.0  0.70470  0.50064  0.10205  1.0000
  H   H1726     1.0  0.99438  0.55295  0.31177  1.0000
  H   H1727     1.0  0.82908  0.57247  0.14447  1.0000
  H   H1728     1.0  0.96709  0.52224  0.24372  1.0000
  C   C2155     1.0  0.62548  0.50975  0.44204  1.0000
  H   H1729     1.0  0.92144  0.65693  0.47167  1.0000
  Fe  Fe145     1.0  0.66275  0.48525  0.28733  1.0000
  C   C2156     1.0  0.77143  0.48512  0.12908  1.0000
  H   H1730     1.0  0.62520  0.50319  0.12713  1.0000
  H   H1731     1.0  0.73756  0.55892  0.42068  1.0000
  H   H1732     1.0  0.63681  0.51501  0.37617  1.0000
  H   H1733     1.0  0.62737  0.52120  0.32079  1.0000
  C   C2157     1.0  0.51910  0.50106  0.45051  1.0000
  C   C2158     1.0  0.91814  0.66458  0.19334  1.0000
  H   H1734     1.0  0.88592  0.50795  0.00580  1.0000
  C   C2159     1.0  0.86639  0.65431  0.06216  1.0000
  H   H1735     1.0  0.79417  0.57827  0.10076  1.0000
  H   H1736     1.0  0.91958  0.70251  0.19085  1.0000
  H   H1737     1.0  0.90570  0.48137  0.00254  1.0000
  C   C2160     1.0  0.94393  0.70962  0.38635  1.0000
  C   C2161     1.0  0.91014  0.52332  0.48948  1.0000
  H   H1738     1.0  0.95020  0.69921  0.43255  1.0000
  C   C2162     1.0  0.54651  0.50301  0.43560  1.0000
  H   H1739     1.0  0.81778  0.51912  0.10966  1.0000
  S   S287      1.0  0.00542  0.60919  0.10736  1.0000
  C   C2163     1.0  0.51660  0.48915  0.47253  1.0000
  C   C2164     1.0  0.88104  0.62518  0.04334  1.0000
  H   H1740     1.0  0.93343  0.65027  0.15658  1.0000
  S   S288      1.0  0.55294  0.48404  0.26391  1.0000
  C   C2165     1.0  0.90975  0.49921  0.46676  1.0000
  C   C2166     1.0  0.89825  0.51416  0.46848  1.0000
  S   S289      1.0  0.98413  0.57524  0.12377  1.0000
  C   C2167     1.0  0.88764  0.72042  0.40900  1.0000
  H   H1741     1.0  0.54825  0.51241  0.41889  1.0000
  C   C2168     1.0  0.00574  0.52743  0.26910  1.0000
  C   C2169     1.0  0.88020  0.71550  0.04836  1.0000
  H   H1742     1.0  0.73358  0.50328  0.26214  1.0000
  C   C2170     1.0  0.00179  0.66102  0.33803  1.0000
  H   H1743     1.0  0.99312  0.50160  0.06292  1.0000
  C   C2171     1.0  0.56895  0.48110  0.46474  1.0000
  C   C2172     1.0  0.94896  0.55119  0.03043  1.0000
  C   C2173     1.0  0.92090  0.48999  0.00464  1.0000
  C   C2174     1.0  0.97882  0.50520  0.27934  1.0000
  C   C2175     1.0  0.92010  0.72217  0.08050  1.0000
  C   C2176     1.0  0.95026  0.62203  0.00701  1.0000
  Fe  Fe146     1.0  0.77896  0.55037  0.01063  1.0000
  C   C2177     1.0  0.98043  0.70945  0.30788  1.0000
  P   P73       1.0  0.98014  0.70254  0.37195  1.0000
  C   C2178     1.0  0.88173  0.56724  0.48439  1.0000
  C   C2179     1.0  0.98893  0.71366  0.33717  1.0000
  C   C2180     1.0  0.98250  0.51867  0.26219  1.0000
  C   C2181     1.0  0.87789  0.51187  0.19858  1.0000
  H   H1744     1.0  0.98213  0.64023  0.34943  1.0000
  C   C2182     1.0  0.58260  0.47843  0.16616  1.0000
  C   C2183     1.0  0.87491  0.63418  0.48138  1.0000
  H   H1745     1.0  0.99760  0.68349  0.15097  1.0000
  H   H1746     1.0  0.84917  0.65538  0.47279  1.0000
  H   H1747     1.0  0.66887  0.53714  0.48774  1.0000
  H   H1748     1.0  0.56452  0.47449  0.09064  1.0000
  C   C2184     1.0  0.57484  0.47855  0.11062  1.0000
  C   C2185     1.0  0.99999  0.52514  0.05377  1.0000
  C   C2186     1.0  0.99905  0.65675  0.02926  1.0000
  H   H1749     1.0  0.99259  0.61274  0.02545  1.0000
  C   C2187     1.0  0.92950  0.51612  0.00942  1.0000
  C   C2188     1.0  0.90982  0.50497  0.00669  1.0000
  C   C2189     1.0  0.97248  0.54482  0.48667  1.0000
  C   C2190     1.0  0.98501  0.71869  0.28122  1.0000
  H   H1750     1.0  0.93031  0.72183  0.34332  1.0000
  S   S290      1.0  0.92947  0.68546  0.49462  1.0000
  H   H1751     1.0  0.99518  0.49407  0.00673  1.0000
  C   C2191     1.0  0.52011  0.47437  0.26132  1.0000
  C   C2192     1.0  0.00330  0.66497  0.45390  1.0000
  Fe  Fe147     1.0  0.60278  0.47591  0.26367  1.0000
  H   H1752     1.0  0.99409  0.55584  0.44775  1.0000
  H   H1753     1.0  0.75790  0.47580  0.13415  1.0000
  H   H1754     1.0  0.70228  0.47682  0.11148  1.0000
  C   C2193     1.0  0.97862  0.72258  0.16168  1.0000
  S   S291      1.0  0.00606  0.59654  0.44838  1.0000
  C   C2194     1.0  0.79563  0.57943  0.52498  1.0000
  C   C2195     1.0  0.60431  0.69591  0.70118  1.0000
  C   C2196     1.0  0.75369  0.50597  0.89999  1.0000
  C   C2197     1.0  0.96815  0.51770  0.56638  1.0000
  C   C2198     1.0  0.70397  0.50963  0.92219  1.0000
  Fe  Fe148     1.0  0.66468  0.57916  0.76871  1.0000
  S   S292      1.0  0.68814  0.58167  0.72249  1.0000
  S   S293      1.0  0.70008  0.57504  0.80592  1.0000
  Fe  Fe149     1.0  0.60262  0.58634  0.73902  1.0000
  S   S294      1.0  0.62271  0.58920  0.69075  1.0000
  S   S295      1.0  0.55304  0.59416  0.74761  1.0000
  Fe  Fe150     1.0  0.65291  0.56854  0.70410  1.0000
  S   S296      1.0  0.66916  0.54838  0.67650  1.0000
  Fe  Fe151     1.0  0.65669  0.60206  0.71325  1.0000
  S   S297      1.0  0.67488  0.62281  0.68963  1.0000
  S   S298      1.0  0.63079  0.56462  0.75111  1.0000
  S   S299      1.0  0.63534  0.60056  0.76051  1.0000
  Fe  Fe152     1.0  0.73151  0.69632  0.76090  1.0000
  S   S300      1.0  0.73231  0.71250  0.71913  1.0000
  S   S301      1.0  0.70566  0.67600  0.77209  1.0000
  S   S302      1.0  0.72137  0.71407  0.79537  1.0000
  S   S303      1.0  0.78066  0.69571  0.76796  1.0000
  C   C2199     1.0  0.94470  0.69112  0.71425  1.0000
  H   H1755     1.0  0.97750  0.60436  0.93022  1.0000
  H   H1756     1.0  0.86715  0.64941  0.92614  1.0000
  H   H1757     1.0  0.60743  0.71352  0.85968  1.0000
  S   S304      1.0  0.71713  0.55235  0.53625  1.0000
  C   C2200     1.0  0.00123  0.69522  0.80254  1.0000
  C   C2201     1.0  0.93331  0.51757  0.50926  1.0000
  Fe  Fe153     1.0  0.72634  0.54008  0.97600  1.0000
  C   C2202     1.0  0.82797  0.71566  0.85972  1.0000
  S   S305      1.0  0.68778  0.54641  0.94329  1.0000
  H   H1758     1.0  0.95499  0.64500  0.53081  1.0000
  S   S306      1.0  0.77585  0.53827  0.96652  1.0000
  C   C2203     1.0  0.60655  0.66028  0.73352  1.0000
  C   C2204     1.0  0.68371  0.63757  0.71252  1.0000
  C   C2205     1.0  0.67730  0.63725  0.74437  1.0000
  C   C2206     1.0  0.68395  0.64923  0.76202  1.0000
  C   C2207     1.0  0.69761  0.66150  0.74821  1.0000
  C   C2208     1.0  0.70429  0.66184  0.71636  1.0000
  C   C2209     1.0  0.69717  0.64992  0.69853  1.0000
  H   H1759     1.0  0.66709  0.62782  0.75545  1.0000
  H   H1760     1.0  0.67875  0.64888  0.78662  1.0000
  H   H1761     1.0  0.71467  0.67130  0.70549  1.0000
  H   H1762     1.0  0.70209  0.65026  0.67385  1.0000
  C   C2210     1.0  0.69612  0.56694  0.84390  1.0000
  C   C2211     1.0  0.72168  0.56389  0.86225  1.0000
  C   C2212     1.0  0.71956  0.55742  0.89263  1.0000
  C   C2213     1.0  0.69174  0.55425  0.90508  1.0000
  C   C2214     1.0  0.66622  0.55729  0.88673  1.0000
  C   C2215     1.0  0.66838  0.56353  0.85616  1.0000
  H   H1763     1.0  0.74326  0.56648  0.85289  1.0000
  H   H1764     1.0  0.73933  0.55497  0.90648  1.0000
  H   H1765     1.0  0.64464  0.55479  0.89622  1.0000
  H   H1766     1.0  0.64860  0.56581  0.84222  1.0000
  C   C2216     1.0  0.68294  0.54980  0.63769  1.0000
  C   C2217     1.0  0.69806  0.53712  0.62487  1.0000
  C   C2218     1.0  0.70916  0.53781  0.59405  1.0000
  C   C2219     1.0  0.70464  0.55111  0.57553  1.0000
  C   C2220     1.0  0.68918  0.56372  0.58823  1.0000
  C   C2221     1.0  0.67859  0.56311  0.61924  1.0000
  H   H1767     1.0  0.70136  0.52674  0.63891  1.0000
  H   H1768     1.0  0.72086  0.52799  0.58453  1.0000
  H   H1769     1.0  0.68519  0.57398  0.57396  1.0000
  H   H1770     1.0  0.66648  0.57282  0.62869  1.0000
  P   P74       1.0  0.77052  0.51697  0.84114  1.0000
  H   H1771     1.0  0.65263  0.71878  0.66510  1.0000
  H   H1772     1.0  0.84200  0.56415  0.86713  1.0000
  C   C2222     1.0  0.83426  0.49460  0.96406  1.0000
  H   H1773     1.0  0.00486  0.65385  0.52421  1.0000
  H   H1774     1.0  0.81562  0.55091  0.91021  1.0000
  C   C2223     1.0  0.95440  0.70146  0.66224  1.0000
  H   H1775     1.0  0.82504  0.70357  0.90421  1.0000
  H   H1776     1.0  0.55904  0.58118  0.67913  1.0000
  H   H1777     1.0  0.83559  0.55745  0.81268  1.0000
  S   S307      1.0  0.83339  0.50226  0.56538  1.0000
  H   H1778     1.0  0.67254  0.67704  0.84045  1.0000
  C   C2224     1.0  0.73630  0.51366  0.75409  1.0000
  C   C2225     1.0  0.98981  0.65849  0.54188  1.0000
  H   H1779     1.0  0.86149  0.51333  0.90003  1.0000
  H   H1780     1.0  0.82094  0.51574  0.93993  1.0000
  H   H1781     1.0  0.85530  0.65722  0.61964  1.0000
  C   C2226     1.0  0.82089  0.58749  0.52223  1.0000
  H   H1782     1.0  0.96450  0.70845  0.86641  1.0000
  Fe  Fe154     1.0  0.78134  0.71354  0.72898  1.0000
  C   C2227     1.0  0.87830  0.48072  0.94253  1.0000
  C   C2228     1.0  0.96297  0.56885  0.97751  1.0000
  C   C2229     1.0  0.81097  0.59657  0.57368  1.0000
  C   C2230     1.0  0.78537  0.58857  0.57660  1.0000
  C   C2231     1.0  0.77786  0.58002  0.55193  1.0000
  P   P75       1.0  0.76154  0.58967  0.61101  1.0000
  C   C2232     1.0  0.76070  0.57149  0.63174  1.0000
  C   C2233     1.0  0.77594  0.60214  0.63760  1.0000
  C   C2234     1.0  0.80025  0.59703  0.65648  1.0000
  C   C2235     1.0  0.81158  0.60658  0.67713  1.0000
  C   C2236     1.0  0.79879  0.62131  0.67900  1.0000
  C   C2237     1.0  0.77461  0.62648  0.66030  1.0000
  C   C2238     1.0  0.76329  0.61698  0.63955  1.0000
  C   C2239     1.0  0.74984  0.57064  0.66256  1.0000
  C   C2240     1.0  0.74882  0.55675  0.67887  1.0000
  C   C2241     1.0  0.75912  0.54356  0.66483  1.0000
  C   C2242     1.0  0.77059  0.54426  0.63450  1.0000
  C   C2243     1.0  0.77134  0.55812  0.61797  1.0000
  C   C2244     1.0  0.72396  0.59705  0.60086  1.0000
  C   C2245     1.0  0.71684  0.60205  0.57015  1.0000
  C   C2246     1.0  0.68791  0.60803  0.56281  1.0000
  C   C2247     1.0  0.66596  0.60936  0.58608  1.0000
  C   C2248     1.0  0.67298  0.60480  0.61674  1.0000
  C   C2249     1.0  0.70177  0.59869  0.62413  1.0000
  Fe  Fe155     1.0  0.77695  0.51755  0.99862  1.0000
  H   H1783     1.0  0.81717  0.60343  0.59196  1.0000
  H   H1784     1.0  0.75799  0.57394  0.55338  1.0000
  H   H1785     1.0  0.81027  0.58561  0.65536  1.0000
  H   H1786     1.0  0.83005  0.60252  0.69195  1.0000
  H   H1787     1.0  0.80731  0.62867  0.69526  1.0000
  H   H1788     1.0  0.76429  0.63781  0.66212  1.0000
  H   H1789     1.0  0.74450  0.62125  0.62536  1.0000
  H   H1790     1.0  0.74199  0.58068  0.67412  1.0000
  H   H1791     1.0  0.73928  0.55616  0.70215  1.0000
  H   H1792     1.0  0.75755  0.53277  0.67718  1.0000
  H   H1793     1.0  0.77804  0.53399  0.62336  1.0000
  H   H1794     1.0  0.77989  0.55812  0.59445  1.0000
  H   H1795     1.0  0.73338  0.60145  0.55169  1.0000
  C   C2250     1.0  0.97507  0.55393  0.98099  1.0000
  H   H1796     1.0  0.64355  0.61398  0.58046  1.0000
  H   H1797     1.0  0.65613  0.60603  0.63497  1.0000
  H   H1798     1.0  0.70650  0.59545  0.64816  1.0000
  C   C2251     1.0  0.58003  0.65848  0.78286  1.0000
  Fe  Fe156     1.0  0.94429  0.70689  0.51247  1.0000
  H   H1799     1.0  0.73722  0.54403  0.81470  1.0000
  H   H1800     1.0  0.94555  0.68153  0.73081  1.0000
  P   P76       1.0  0.59337  0.68736  0.76316  1.0000
  C   C2252     1.0  0.61050  0.69002  0.79979  1.0000
  C   C2253     1.0  0.63634  0.68096  0.80835  1.0000
  C   C2254     1.0  0.65186  0.68372  0.83493  1.0000
  C   C2255     1.0  0.64142  0.69542  0.85349  1.0000
  C   C2256     1.0  0.61535  0.70434  0.84548  1.0000
  C   C2257     1.0  0.59992  0.70168  0.81870  1.0000
  C   C2258     1.0  0.82642  0.50055  0.83925  1.0000
  H   H1801     1.0  0.96720  0.48932  0.70918  1.0000
  H   H1802     1.0  0.57078  0.66355  0.80358  1.0000
  H   H1803     1.0  0.64515  0.67209  0.79379  1.0000
  C   C2259     1.0  0.94188  0.71549  0.67066  1.0000
  H   H1804     1.0  0.65381  0.69772  0.87376  1.0000
  C   C2260     1.0  0.78336  0.48596  0.84141  1.0000
  H   H1805     1.0  0.57152  0.71893  0.75434  1.0000
  C   C2261     1.0  0.59322  0.66731  0.75929  1.0000
  S   S308      1.0  0.00469  0.68238  0.99307  1.0000
  H   H1806     1.0  0.99595  0.50437  0.74277  1.0000
  C   C2262     1.0  0.52007  0.57221  0.66172  1.0000
  C   C2263     1.0  0.83878  0.69403  0.59865  1.0000
  C   C2264     1.0  0.85489  0.48191  0.96462  1.0000
  H   H1807     1.0  0.96885  0.57576  0.95732  1.0000
  H   H1808     1.0  0.61490  0.63951  0.71038  1.0000
  H   H1809     1.0  0.93719  0.65672  0.98932  1.0000
  S   S309      1.0  0.90949  0.49051  0.89055  1.0000
  C   C2265     1.0  0.90083  0.65151  0.96062  1.0000
  C   C2266     1.0  0.55602  0.69669  0.76144  1.0000
  C   C2267     1.0  0.97874  0.67610  0.58194  1.0000
  C   C2268     1.0  0.57811  0.64313  0.77955  1.0000
  C   C2269     1.0  0.93070  0.71737  0.70083  1.0000
  C   C2270     1.0  0.91004  0.47510  0.57333  1.0000
  C   C2271     1.0  0.87830  0.66947  0.58291  1.0000
  P   P77       1.0  0.90377  0.65377  0.57203  1.0000
  C   C2272     1.0  0.90370  0.63885  0.60204  1.0000
  H   H1810     1.0  0.98947  0.54835  0.56253  1.0000
  C   C2273     1.0  0.97144  0.54236  0.51911  1.0000
  C   C2274     1.0  0.86576  0.71479  0.90041  1.0000
  C   C2275     1.0  0.88047  0.62926  0.60354  1.0000
  C   C2276     1.0  0.88016  0.61765  0.62660  1.0000
  C   C2277     1.0  0.90304  0.61551  0.64830  1.0000
  C   C2278     1.0  0.92618  0.62503  0.64702  1.0000
  C   C2279     1.0  0.92652  0.63668  0.62402  1.0000
  C   C2280     1.0  0.94104  0.65989  0.56747  1.0000
  C   C2281     1.0  0.95014  0.67113  0.58586  1.0000
  C   C2282     1.0  0.88375  0.65622  0.93434  1.0000
  H   H1811     1.0  0.99016  0.54954  0.96320  1.0000
  C   C2283     1.0  0.64176  0.71250  0.68362  1.0000
  C   C2284     1.0  0.96127  0.65350  0.54568  1.0000
  C   C2285     1.0  0.99139  0.48787  0.70911  1.0000
  C   C2286     1.0  0.52377  0.71995  0.75712  1.0000
  H   H1812     1.0  0.86256  0.63081  0.58688  1.0000
  H   H1813     1.0  0.86222  0.61028  0.62758  1.0000
  H   H1814     1.0  0.90290  0.60646  0.66607  1.0000
  C   C2287     1.0  0.51925  0.58488  0.74830  1.0000
  C   C2288     1.0  0.86569  0.48211  0.52875  1.0000
  H   H1815     1.0  0.93499  0.67630  0.60274  1.0000
  S   S310      1.0  0.79897  0.53676  0.51983  1.0000
  H   H1816     1.0  0.53978  0.56268  0.74156  1.0000
  H   H1817     1.0  0.84857  0.48468  0.51158  1.0000
  H   H1818     1.0  0.85972  0.72114  0.74689  1.0000
  H   H1819     1.0  0.67122  0.52219  0.89318  1.0000
  C   C2289     1.0  0.75126  0.51024  0.78215  1.0000
  H   H1820     1.0  0.84823  0.60227  0.54421  1.0000
  H   H1821     1.0  0.91407  0.68920  0.91489  1.0000
  Fe  Fe157     1.0  0.98829  0.70646  0.98057  1.0000
  H   H1822     1.0  0.68252  0.61161  0.53902  1.0000
  C   C2290     1.0  0.99845  0.66987  0.55979  1.0000
  H   H1823     1.0  0.87493  0.67361  0.89807  1.0000
  C   C2291     1.0  0.99914  0.51456  0.56234  1.0000
  P   P78       1.0  0.94699  0.52939  0.53754  1.0000
  C   C2292     1.0  0.84524  0.48727  0.84010  1.0000
  C   C2293     1.0  0.69409  0.51732  0.89470  1.0000
  C   C2294     1.0  0.87968  0.68355  0.56715  1.0000
  C   C2295     1.0  0.83842  0.71060  0.88942  1.0000
  H   H1824     1.0  0.61883  0.66644  0.71602  1.0000
  C   C2296     1.0  0.86357  0.48913  0.55699  1.0000
  C   C2297     1.0  0.53645  0.58373  0.67090  1.0000
  H   H1825     1.0  0.87324  0.71099  0.92343  1.0000
  H   H1826     1.0  0.86447  0.66610  0.52071  1.0000
  C   C2298     1.0  0.91468  0.53937  0.55485  1.0000
  C   C2299     1.0  0.91436  0.55472  0.56030  1.0000
  C   C2300     1.0  0.88860  0.56245  0.57220  1.0000
  C   C2301     1.0  0.86296  0.55495  0.57853  1.0000
  C   C2302     1.0  0.86318  0.53968  0.57336  1.0000
  C   C2303     1.0  0.88886  0.53192  0.56154  1.0000
  H   H1827     1.0  0.89857  0.71629  0.61678  1.0000
  C   C2304     1.0  0.93279  0.70530  0.72316  1.0000
  C   C2305     1.0  0.87264  0.65472  0.51603  1.0000
  C   C2306     1.0  0.94466  0.50253  0.50749  1.0000
  C   C2307     1.0  0.82864  0.59600  0.54659  1.0000
  C   C2308     1.0  0.88575  0.48555  0.57929  1.0000
  H   H1828     1.0  0.92988  0.51292  0.59551  1.0000
  C   C2309     1.0  0.94580  0.70862  0.82085  1.0000
  H   H1829     1.0  0.88411  0.49088  0.60126  1.0000
  C   C2310     1.0  0.81288  0.54803  0.88638  1.0000
  C   C2311     1.0  0.63752  0.70492  0.73824  1.0000
  H   H1830     1.0  0.98330  0.69550  0.75707  1.0000
  H   H1831     1.0  0.93351  0.56091  0.55451  1.0000
  H   H1832     1.0  0.88830  0.57435  0.57562  1.0000
  H   H1833     1.0  0.84279  0.56098  0.58705  1.0000
  H   H1834     1.0  0.84330  0.53380  0.57803  1.0000
  H   H1835     1.0  0.88830  0.52013  0.55716  1.0000
  C   C2312     1.0  0.91040  0.67867  0.92753  1.0000
  C   C2313     1.0  0.75153  0.62538  0.74796  1.0000
  C   C2314     1.0  0.75098  0.61024  0.74186  1.0000
  C   C2315     1.0  0.74890  0.59954  0.76645  1.0000
  C   C2316     1.0  0.74663  0.60400  0.79706  1.0000
  C   C2317     1.0  0.74646  0.61923  0.80342  1.0000
  C   C2318     1.0  0.74919  0.62988  0.77854  1.0000
  P   P79       1.0  0.73731  0.62514  0.84222  1.0000
  C   C2319     1.0  0.69735  0.62961  0.84409  1.0000
  C   C2320     1.0  0.74778  0.60980  0.87012  1.0000
  C   C2321     1.0  0.72706  0.60481  0.89238  1.0000
  C   C2322     1.0  0.73518  0.59272  0.91336  1.0000
  C   C2323     1.0  0.76400  0.58557  0.91242  1.0000
  C   C2324     1.0  0.78470  0.59041  0.89031  1.0000
  C   C2325     1.0  0.77657  0.60238  0.86903  1.0000
  C   C2326     1.0  0.68500  0.64107  0.86265  1.0000
  C   C2327     1.0  0.65412  0.64467  0.86362  1.0000
  C   C2328     1.0  0.63531  0.63670  0.84653  1.0000
  C   C2329     1.0  0.64734  0.62501  0.82874  1.0000
  C   C2330     1.0  0.67821  0.62141  0.82757  1.0000
  C   C2331     1.0  0.75637  0.64164  0.84955  1.0000
  C   C2332     1.0  0.74570  0.65570  0.83617  1.0000
  C   C2333     1.0  0.76012  0.66857  0.84123  1.0000
  C   C2334     1.0  0.78522  0.66757  0.86002  1.0000
  C   C2335     1.0  0.79587  0.65368  0.87381  1.0000
  C   C2336     1.0  0.78153  0.64076  0.86868  1.0000
  H   H1836     1.0  0.75215  0.63376  0.72889  1.0000
  H   H1837     1.0  0.75114  0.60687  0.71809  1.0000
  H   H1838     1.0  0.74755  0.58783  0.76184  1.0000
  H   H1839     1.0  0.74348  0.59558  0.81557  1.0000
  H   H1840     1.0  0.74815  0.64174  0.78230  1.0000
  H   H1841     1.0  0.70446  0.61000  0.89338  1.0000
  H   H1842     1.0  0.71891  0.58865  0.92999  1.0000
  H   H1843     1.0  0.71063  0.54982  0.76544  1.0000
  H   H1844     1.0  0.80694  0.58479  0.88955  1.0000
  H   H1845     1.0  0.79265  0.60582  0.85161  1.0000
  H   H1846     1.0  0.69916  0.64723  0.87640  1.0000
  H   H1847     1.0  0.64475  0.65360  0.87773  1.0000
  H   H1848     1.0  0.61140  0.63944  0.84731  1.0000
  H   H1849     1.0  0.63273  0.61867  0.81589  1.0000
  H   H1850     1.0  0.68697  0.61223  0.81375  1.0000
  H   H1851     1.0  0.72609  0.65674  0.82181  1.0000
  H   H1852     1.0  0.75176  0.67935  0.83055  1.0000
  H   H1853     1.0  0.79618  0.67763  0.86398  1.0000
  H   H1854     1.0  0.81520  0.65297  0.88860  1.0000
  H   H1855     1.0  0.79009  0.63022  0.87986  1.0000
  S   S311      1.0  0.75364  0.50956  0.52609  1.0000
  H   H1856     1.0  0.77686  0.50173  0.90277  1.0000
  H   H1857     1.0  0.70597  0.52599  0.84937  1.0000
  H   H1858     1.0  0.82387  0.70359  0.60500  1.0000
  H   H1859     1.0  0.92500  0.71436  0.82837  1.0000
  C   C2337     1.0  0.99022  0.54991  0.53744  1.0000
  C   C2338     1.0  0.75166  0.52110  0.80446  1.0000
  C   C2339     1.0  0.96840  0.70541  0.84257  1.0000
  H   H1860     1.0  0.58020  0.70894  0.81269  1.0000
  Fe  Fe158     1.0  0.74989  0.53454  0.51599  1.0000
  H   H1861     1.0  0.61163  0.70310  0.65330  1.0000
  H   H1862     1.0  0.53619  0.60731  0.67799  1.0000
  S   S312      1.0  0.98941  0.71586  0.50875  1.0000
  C   C2340     1.0  0.83678  0.50596  0.94073  1.0000
  C   C2341     1.0  0.85908  0.68305  0.81052  1.0000
  C   C2342     1.0  0.84538  0.67622  0.78691  1.0000
  C   C2343     1.0  0.85406  0.67898  0.75597  1.0000
  C   C2344     1.0  0.87683  0.68835  0.74867  1.0000
  C   C2345     1.0  0.89161  0.69482  0.77236  1.0000
  C   C2346     1.0  0.88203  0.69232  0.80334  1.0000
  H   H1863     1.0  0.89264  0.60187  0.97380  1.0000
  C   C2347     1.0  0.71402  0.51953  0.86991  1.0000
  C   C2348     1.0  0.92795  0.67386  0.95316  1.0000
  P   P80       1.0  0.91962  0.70781  0.76272  1.0000
  C   C2349     1.0  0.83736  0.68012  0.61474  1.0000
  H   H1864     1.0  0.73583  0.50522  0.73705  1.0000
  H   H1865     1.0  0.99271  0.51324  0.95322  1.0000
  H   H1866     1.0  0.89608  0.68513  0.54888  1.0000
  H   H1867     1.0  0.86152  0.70665  0.56290  1.0000
  H   H1868     1.0  0.56736  0.63639  0.79739  1.0000
  H   H1869     1.0  0.85117  0.68165  0.83433  1.0000
  H   H1870     1.0  0.82702  0.66938  0.79245  1.0000
  H   H1871     1.0  0.84218  0.67447  0.73746  1.0000
  H   H1872     1.0  0.88187  0.69095  0.72441  1.0000
  C   C2350     1.0  0.80619  0.54024  0.82510  1.0000
  H   H1873     1.0  0.76235  0.49913  0.78621  1.0000
  H   H1874     1.0  0.82126  0.67897  0.63358  1.0000
  C   C2351     1.0  0.95018  0.70461  0.78992  1.0000
  Fe  Fe159     1.0  0.77125  0.71454  0.79965  1.0000
  C   C2352     1.0  0.73723  0.53545  0.79795  1.0000
  H   H1875     1.0  0.98542  0.68510  0.59537  1.0000
  C   C2353     1.0  0.84725  0.59915  0.96334  1.0000
  C   C2354     1.0  0.81864  0.60619  0.95884  1.0000
  C   C2355     1.0  0.81384  0.62181  0.95941  1.0000
  C   C2356     1.0  0.83761  0.63038  0.96500  1.0000
  C   C2357     1.0  0.86660  0.62343  0.96908  1.0000
  C   C2358     1.0  0.65096  0.71319  0.71423  1.0000
  P   P81       1.0  0.89564  0.63412  0.98269  1.0000
  H   H1876     1.0  0.94396  0.62335  0.66379  1.0000
  C   C2359     1.0  0.93156  0.62349  0.98115  1.0000
  C   C2360     1.0  0.99604  0.69860  0.83352  1.0000
  H   H1877     1.0  0.66843  0.72025  0.71949  1.0000
  H   H1878     1.0  0.91865  0.62494  0.54402  1.0000
  Fe  Fe160     1.0  0.98217  0.72178  0.55875  1.0000
  C   C2361     1.0  0.94172  0.61727  0.95327  1.0000
  H   H1879     1.0  0.96279  0.70009  0.63871  1.0000
  C   C2362     1.0  0.85689  0.66784  0.60682  1.0000
  C   C2363     1.0  0.88835  0.66985  0.91808  1.0000
  C   C2364     1.0  0.74397  0.51377  0.87228  1.0000
  H   H1880     1.0  0.83640  0.51113  0.83883  1.0000
  H   H1881     1.0  0.92795  0.61866  0.93280  1.0000
  C   C2365     1.0  0.87743  0.72067  0.62631  1.0000
  H   H1882     1.0  0.74162  0.49825  0.94638  1.0000
  H   H1883     1.0  0.88406  0.56939  0.50856  1.0000
  C   C2366     1.0  0.73376  0.50394  0.92482  1.0000
  H   H1884     1.0  0.94535  0.68057  0.96032  1.0000
  C   C2367     1.0  0.92325  0.66033  0.96957  1.0000
  H   H1885     1.0  0.80002  0.59945  0.95621  1.0000
  H   H1886     1.0  0.79142  0.62717  0.95688  1.0000
  H   H1887     1.0  0.83312  0.64234  0.96752  1.0000
  C   C2368     1.0  0.52346  0.59848  0.67030  1.0000
  C   C2369     1.0  0.95562  0.68924  0.68394  1.0000
  C   C2370     1.0  0.85979  0.50458  0.91815  1.0000
  H   H1888     1.0  0.94467  0.64390  0.62340  1.0000
  S   S313      1.0  0.80576  0.49575  0.99290  1.0000
  C   C2371     1.0  0.97035  0.50190  0.61416  1.0000
  H   H1889     1.0  0.53241  0.67651  0.76709  1.0000
  H   H1890     1.0  0.58799  0.62457  0.75021  1.0000
  H   H1891     1.0  0.87758  0.70379  0.66406  1.0000
  H   H1892     1.0  0.86925  0.48775  0.84017  1.0000
  Fe  Fe161     1.0  0.80324  0.51160  0.52631  1.0000
  H   H1893     1.0  0.96181  0.49762  0.52306  1.0000
  H   H1894     1.0  0.96491  0.67831  0.67716  1.0000
  S   S314      1.0  0.94276  0.71852  0.98723  1.0000
  C   C2372     1.0  0.61391  0.69628  0.73192  1.0000
  H   H1895     1.0  0.75941  0.48528  0.84244  1.0000
  C   C2373     1.0  0.86544  0.71360  0.65321  1.0000
  H   H1896     1.0  0.53021  0.56077  0.66242  1.0000
  C   C2374     1.0  0.82763  0.55551  0.86213  1.0000
  H   H1897     1.0  0.95914  0.49668  0.63390  1.0000
  C   C2375     1.0  0.86000  0.69576  0.57494  1.0000
  S   S315      1.0  0.99107  0.71301  0.92971  1.0000
  C   C2376     1.0  0.87112  0.60770  0.96859  1.0000
  C   C2377     1.0  0.96976  0.60922  0.95168  1.0000
  C   C2378     1.0  0.53054  0.68861  0.76457  1.0000
  H   H1898     1.0  0.70966  0.53052  0.72652  1.0000
  S   S316      1.0  0.79282  0.71049  0.84754  1.0000
  H   H1899     1.0  0.68870  0.50855  0.94180  1.0000
  C   C2379     1.0  0.88077  0.49199  0.91912  1.0000
  S   S317      1.0  0.93930  0.71054  0.56336  1.0000
  S   S318      1.0  0.82282  0.70873  0.69818  1.0000
  C   C2380     1.0  0.95381  0.51113  0.59229  1.0000
  C   C2381     1.0  0.72166  0.52791  0.74806  1.0000
  H   H1900     1.0  0.89131  0.69784  0.82206  1.0000
  H   H1901     1.0  0.58580  0.68952  0.69592  1.0000
  C   C2382     1.0  0.82411  0.55169  0.83148  1.0000
  H   H1902     1.0  0.85059  0.58698  0.96434  1.0000
  C   C2383     1.0  0.51895  0.56943  0.74482  1.0000
  C   C2384     1.0  0.58995  0.63641  0.75303  1.0000
  H   H1903     1.0  0.77008  0.57614  0.92867  1.0000
  C   C2385     1.0  0.61861  0.70374  0.67705  1.0000
  C   C2386     1.0  0.97845  0.69820  0.78079  1.0000
  H   H1904     1.0  0.64541  0.70554  0.76166  1.0000
  S   S319      1.0  0.99452  0.47853  0.88476  1.0000
  H   H1905     1.0  0.80416  0.53719  0.80130  1.0000
  C   C2387     1.0  0.79154  0.53257  0.84937  1.0000
  C   C2388     1.0  0.72221  0.53880  0.76997  1.0000
  C   C2389     1.0  0.89230  0.64624  0.53643  1.0000
  C   C2390     1.0  0.55231  0.71242  0.75719  1.0000
  C   C2391     1.0  0.79490  0.53661  0.88005  1.0000
  H   H1906     1.0  0.78396  0.53089  0.89922  1.0000
  C   C2392     1.0  0.79528  0.50000  0.83982  1.0000
  C   C2393     1.0  0.60461  0.64491  0.73031  1.0000
  C   C2394     1.0  0.90310  0.63164  0.52895  1.0000
  C   C2395     1.0  0.83758  0.71885  0.66562  1.0000
  C   C2396     1.0  0.98793  0.60748  0.97782  1.0000
  C   C2397     1.0  0.00120  0.49903  0.61015  1.0000
  C   C2398     1.0  0.89453  0.62568  0.50149  1.0000
  H   H1907     1.0  0.78965  0.57278  0.50610  1.0000
  C   C2399     1.0  0.00633  0.47731  0.69044  1.0000
  H   H1908     1.0  0.83430  0.58723  0.50106  1.0000
  H   H1909     1.0  0.93552  0.58663  0.99842  1.0000
  S   S320      1.0  0.54710  0.84327  0.39216  1.0000
  S   S321      1.0  0.79456  0.95994  0.29894  1.0000
  Fe  Fe162     1.0  0.67738  0.87378  0.27696  1.0000
  S   S322      1.0  0.66988  0.88956  0.23529  1.0000
  S   S323      1.0  0.64323  0.87937  0.31555  1.0000
  Fe  Fe163     1.0  0.73314  0.85822  0.24582  1.0000
  S   S324      1.0  0.72732  0.87265  0.20135  1.0000
  S   S325      1.0  0.77144  0.83986  0.25630  1.0000
  Fe  Fe164     1.0  0.71891  0.89157  0.23344  1.0000
  S   S326      1.0  0.73589  0.91384  0.21722  1.0000
  Fe  Fe165     1.0  0.67803  0.86952  0.20637  1.0000
  S   S327      1.0  0.64030  0.87341  0.17126  1.0000
  S   S328      1.0  0.72656  0.87750  0.27771  1.0000
  S   S329      1.0  0.68397  0.85345  0.24858  1.0000
  S   S330      1.0  0.57099  0.84013  0.07105  1.0000
  H   H1910     1.0  0.69857  0.94526  0.19294  1.0000
  C   C2400     1.0  0.55251  0.88759  0.20517  1.0000
  H   H1911     1.0  0.73590  0.86490  0.34962  1.0000
  S   S331      1.0  0.98118  0.75441  0.45879  1.0000
  C   C2401     1.0  0.64179  0.88634  0.40880  1.0000
  C   C2402     1.0  0.87443  0.75717  0.10991  1.0000
  Fe  Fe166     1.0  0.95209  0.81454  0.23482  1.0000
  S   S332      1.0  0.95059  0.78955  0.23322  1.0000
  S   S333      1.0  0.91253  0.83228  0.22426  1.0000
  Fe  Fe167     1.0  0.97847  0.78778  0.27657  1.0000
  S   S334      1.0  0.99395  0.81463  0.20434  1.0000
  C   C2403     1.0  0.95614  0.74488  0.18523  1.0000
  P   P82       1.0  0.70776  0.96024  0.13047  1.0000
  S   S335      1.0  0.97807  0.81290  0.27924  1.0000
  C   C2404     1.0  0.98806  0.77321  0.37042  1.0000
  C   C2405     1.0  0.97474  0.75885  0.41833  1.0000
  C   C2406     1.0  0.70805  0.95004  0.39492  1.0000
  H   H1912     1.0  0.54230  0.89540  0.18760  1.0000
  C   C2407     1.0  0.96684  0.76654  0.35368  1.0000
  H   H1913     1.0  0.85267  0.73852  0.09412  1.0000
  C   C2408     1.0  0.95339  0.75224  0.40161  1.0000
  H   H1914     1.0  0.83555  0.94521  0.15044  1.0000
  H   H1915     1.0  0.92169  0.91124  0.25487  1.0000
  S   S336      1.0  0.95202  0.75360  0.03827  1.0000
  C   C2409     1.0  0.61771  0.88045  0.42488  1.0000
  H   H1916     1.0  0.92513  0.86171  0.25277  1.0000
  H   H1917     1.0  0.78358  0.88045  0.32797  1.0000
  H   H1918     1.0  0.94708  0.93236  0.27340  1.0000
  H   H1919     1.0  0.61140  0.84671  0.19935  1.0000
  H   H1920     1.0  0.66043  0.83229  0.20238  1.0000
  C   C2410     1.0  0.92849  0.74230  0.17337  1.0000
  C   C2411     1.0  0.51208  0.82533  0.25954  1.0000
  H   H1921     1.0  0.87992  0.74093  0.25876  1.0000
  S   S337      1.0  0.00525  0.77301  0.16639  1.0000
  C   C2412     1.0  0.81072  0.83824  0.24733  1.0000
  C   C2413     1.0  0.82916  0.82661  0.26233  1.0000
  C   C2414     1.0  0.86020  0.82470  0.25590  1.0000
  C   C2415     1.0  0.87340  0.83427  0.23389  1.0000
  C   C2416     1.0  0.85502  0.84602  0.21909  1.0000
  C   C2417     1.0  0.82398  0.84800  0.22570  1.0000
  H   H1922     1.0  0.81940  0.81907  0.27936  1.0000
  H   H1923     1.0  0.87399  0.81597  0.26837  1.0000
  H   H1924     1.0  0.86486  0.85362  0.20227  1.0000
  H   H1925     1.0  0.81029  0.85699  0.21386  1.0000
  C   C2418     1.0  0.62107  0.86343  0.14457  1.0000
  C   C2419     1.0  0.63198  0.84932  0.13475  1.0000
  C   C2420     1.0  0.61625  0.84224  0.11247  1.0000
  C   C2421     1.0  0.58943  0.84911  0.10002  1.0000
  C   C2422     1.0  0.57818  0.86301  0.11050  1.0000
  C   C2423     1.0  0.59401  0.87015  0.13250  1.0000
  H   H1926     1.0  0.65281  0.84405  0.14374  1.0000
  H   H1927     1.0  0.62510  0.83147  0.10452  1.0000
  H   H1928     1.0  0.55761  0.86843  0.10116  1.0000
  H   H1929     1.0  0.58537  0.88103  0.13999  1.0000
  C   C2424     1.0  0.77854  0.94707  0.27616  1.0000
  C   C2425     1.0  0.76827  0.93395  0.29044  1.0000
  C   C2426     1.0  0.75592  0.92338  0.27259  1.0000
  C   C2427     1.0  0.75336  0.92604  0.24045  1.0000
  C   C2428     1.0  0.76398  0.93906  0.22622  1.0000
  C   C2429     1.0  0.77643  0.94957  0.24397  1.0000
  H   H1930     1.0  0.77010  0.93191  0.31532  1.0000
  H   H1931     1.0  0.74842  0.91320  0.28361  1.0000
  H   H1932     1.0  0.76226  0.94117  0.20134  1.0000
  H   H1933     1.0  0.78429  0.95963  0.23271  1.0000
  C   C2430     1.0  0.57223  0.85358  0.36901  1.0000
  C   C2431     1.0  0.57269  0.86911  0.37067  1.0000
  C   C2432     1.0  0.59403  0.87683  0.35333  1.0000
  C   C2433     1.0  0.61509  0.86917  0.33408  1.0000
  C   C2434     1.0  0.61389  0.85372  0.33140  1.0000
  C   C2435     1.0  0.59255  0.84598  0.34883  1.0000
  H   H1934     1.0  0.55716  0.87513  0.38596  1.0000
  H   H1935     1.0  0.59470  0.88877  0.35552  1.0000
  H   H1936     1.0  0.62990  0.84768  0.31661  1.0000
  H   H1937     1.0  0.59221  0.83398  0.34720  1.0000
  H   H1938     1.0  0.85747  0.75203  0.21018  1.0000
  C   C2436     1.0  0.68439  0.92657  0.40015  1.0000
  H   H1939     1.0  0.86350  0.95933  0.27614  1.0000
  C   C2437     1.0  0.81274  0.79086  0.19055  1.0000
  C   C2438     1.0  0.80428  0.79625  0.21970  1.0000
  P   P83       1.0  0.85070  0.78341  0.18326  1.0000
  C   C2439     1.0  0.86628  0.77486  0.21907  1.0000
  C   C2440     1.0  0.85130  0.76939  0.15447  1.0000
  C   C2441     1.0  0.75565  0.80540  0.19993  1.0000
  H   H1940     1.0  0.83229  0.87964  0.24176  1.0000
  C   C2442     1.0  0.91698  0.87077  0.23653  1.0000
  H   H1941     1.0  0.83208  0.91800  0.29851  1.0000
  C   C2443     1.0  0.59384  0.81893  0.25205  1.0000
  C   C2444     1.0  0.87812  0.78389  0.24052  1.0000
  C   C2445     1.0  0.89022  0.77753  0.26835  1.0000
  C   C2446     1.0  0.87922  0.75294  0.25367  1.0000
  C   C2447     1.0  0.87241  0.79871  0.17017  1.0000
  C   C2448     1.0  0.90369  0.79655  0.16948  1.0000
  C   C2449     1.0  0.92073  0.80836  0.15981  1.0000
  C   C2450     1.0  0.90670  0.82241  0.15090  1.0000
  C   C2451     1.0  0.87559  0.82471  0.15179  1.0000
  C   C2452     1.0  0.85846  0.81294  0.16142  1.0000
  H   H1942     1.0  0.76967  0.80782  0.24674  1.0000
  H   H1943     1.0  0.81977  0.79540  0.23873  1.0000
  C   C2453     1.0  0.87391  0.76832  0.13149  1.0000
  H   H1944     1.0  0.80585  0.89909  0.20760  1.0000
  H   H1945     1.0  0.89125  0.77598  0.13000  1.0000
  H   H1946     1.0  0.87845  0.79586  0.23550  1.0000
  S   S338      1.0  0.96138  0.77051  0.31294  1.0000
  H   H1947     1.0  0.79885  0.78954  0.14297  1.0000
  H   H1948     1.0  0.91496  0.78576  0.17664  1.0000
  H   H1949     1.0  0.94488  0.80672  0.15994  1.0000
  H   H1950     1.0  0.91999  0.83167  0.14446  1.0000
  H   H1951     1.0  0.86478  0.83577  0.14597  1.0000
  H   H1952     1.0  0.83447  0.81517  0.16254  1.0000
  H   H1953     1.0  0.86448  0.93490  0.19563  1.0000
  H   H1954     1.0  0.91820  0.95661  0.28327  1.0000
  H   H1955     1.0  0.60353  0.88581  0.26283  1.0000
  H   H1956     1.0  0.57559  0.81504  0.26615  1.0000
  H   H1957     1.0  0.93998  0.86098  0.19741  1.0000
  C   C2454     1.0  0.61403  0.83665  0.21450  1.0000
  C   C2455     1.0  0.64189  0.82848  0.21625  1.0000
  C   C2456     1.0  0.64593  0.81568  0.23625  1.0000
  C   C2457     1.0  0.62192  0.81092  0.25419  1.0000
  Fe  Fe168     1.0  0.52513  0.84896  0.05297  1.0000
  H   H1958     1.0  0.65870  0.87865  0.39876  1.0000
  C   C2458     1.0  0.68828  0.94171  0.44489  1.0000
  C   C2459     1.0  0.59474  0.89006  0.43688  1.0000
  H   H1959     1.0  0.76705  0.88503  0.42988  1.0000
  H   H1960     1.0  0.90928  0.75007  0.17763  1.0000
  C   C2460     1.0  0.95195  0.77029  0.09045  1.0000
  C   C2461     1.0  0.80720  0.89998  0.31617  1.0000
  P   P84       1.0  0.55383  0.84250  0.22891  1.0000
  H   H1961     1.0  0.77282  0.86518  0.39165  1.0000
  H   H1962     1.0  0.73393  0.81134  0.20350  1.0000
  H   H1963     1.0  0.66772  0.80954  0.23804  1.0000
  H   H1964     1.0  0.62510  0.80106  0.26988  1.0000
  H   H1965     1.0  0.57767  0.91296  0.44194  1.0000
  H   H1966     1.0  0.57580  0.88548  0.44884  1.0000
  C   C2462     1.0  0.56012  0.86219  0.22839  1.0000
  C   C2463     1.0  0.53581  0.83839  0.19360  1.0000
  C   C2464     1.0  0.82917  0.75920  0.15528  1.0000
  C   C2465     1.0  0.85234  0.74708  0.11097  1.0000
  C   C2466     1.0  0.76392  0.80017  0.17078  1.0000
  P   P85       1.0  0.67411  0.90962  0.38357  1.0000
  C   C2467     1.0  0.72705  0.89600  0.40924  1.0000
  C   C2468     1.0  0.70252  0.95234  0.42638  1.0000
  C   C2469     1.0  0.70982  0.88472  0.36383  1.0000
  H   H1967     1.0  0.81154  0.75981  0.17279  1.0000
  C   C2470     1.0  0.75436  0.87380  0.38988  1.0000
  H   H1968     1.0  0.61635  0.86840  0.42713  1.0000
  C   C2471     1.0  0.89113  0.76205  0.27476  1.0000
  C   C2472     1.0  0.67953  0.92880  0.43195  1.0000
  H   H1969     1.0  0.71966  0.95809  0.38066  1.0000
  H   H1970     1.0  0.52059  0.88220  0.29321  1.0000
  C   C2473     1.0  0.75109  0.88499  0.41136  1.0000
  H   H1971     1.0  0.65442  0.94795  0.10485  1.0000
  H   H1972     1.0  0.74847  0.80201  0.15168  1.0000
  C   C2474     1.0  0.58973  0.83188  0.23212  1.0000
  H   H1973     1.0  0.93311  0.75082  0.35691  1.0000
  C   C2475     1.0  0.86662  0.75931  0.22602  1.0000
  H   H1974     1.0  0.59264  0.85932  0.26528  1.0000
  C   C2476     1.0  0.91431  0.88176  0.18399  1.0000
  C   C2477     1.0  0.77579  0.80338  0.22437  1.0000
  C   C2478     1.0  0.70635  0.89604  0.38522  1.0000
  H   H1975     1.0  0.69396  0.88433  0.34548  1.0000
  H   H1976     1.0  0.79251  0.93236  0.13300  1.0000
  H   H1977     1.0  0.93218  0.77633  0.08058  1.0000
  C   C2479     1.0  0.96319  0.77483  0.11857  1.0000
  C   C2480     1.0  0.69900  0.93726  0.38181  1.0000
  H   H1978     1.0  0.95202  0.78419  0.12998  1.0000
  C   C2481     1.0  0.92534  0.87034  0.20520  1.0000
  C   C2482     1.0  0.90033  0.72570  0.05601  1.0000
  C   C2483     1.0  0.82538  0.88549  0.26238  1.0000
  H   H1979     1.0  0.90143  0.75719  0.29598  1.0000
  C   C2484     1.0  0.73365  0.87365  0.36619  1.0000
  C   C2485     1.0  0.53735  0.82802  0.14263  1.0000
  C   C2486     1.0  0.79241  0.79301  0.16601  1.0000
  H   H1980     1.0  0.54993  0.82280  0.12381  1.0000
  C   C2487     1.0  0.79794  0.88581  0.31118  1.0000
  C   C2488     1.0  0.96648  0.75833  0.07458  1.0000
  C   C2489     1.0  0.82972  0.74810  0.13362  1.0000
  H   H1981     1.0  0.89984  0.78456  0.28459  1.0000
  H   H1982     1.0  0.77813  0.90925  0.16176  1.0000
  C   C2490     1.0  0.66351  0.91411  0.34359  1.0000
  C   C2491     1.0  0.68543  0.91497  0.32001  1.0000
  C   C2492     1.0  0.67719  0.91835  0.28911  1.0000
  C   C2493     1.0  0.64709  0.92083  0.28145  1.0000
  C   C2494     1.0  0.62514  0.92005  0.30470  1.0000
  C   C2495     1.0  0.63327  0.91676  0.33566  1.0000
  C   C2496     1.0  0.61988  0.91155  0.41684  1.0000
  H   H1983     1.0  0.72465  0.90438  0.42646  1.0000
  H   H1984     1.0  0.70887  0.91284  0.32537  1.0000
  H   H1985     1.0  0.69406  0.91869  0.27087  1.0000
  H   H1986     1.0  0.64087  0.92301  0.25735  1.0000
  H   H1987     1.0  0.60179  0.92156  0.29864  1.0000
  H   H1988     1.0  0.61582  0.91587  0.35307  1.0000
  H   H1989     1.0  0.66936  0.92048  0.44691  1.0000
  H   H1990     1.0  0.62003  0.92361  0.41341  1.0000
  C   C2497     1.0  0.70371  0.91479  0.14392  1.0000
  C   C2498     1.0  0.67648  0.91233  0.13089  1.0000
  C   C2499     1.0  0.65897  0.92436  0.11670  1.0000
  C   C2500     1.0  0.58077  0.86714  0.24879  1.0000
  C   C2501     1.0  0.69555  0.94149  0.12962  1.0000
  C   C2502     1.0  0.71330  0.92927  0.14319  1.0000
  H   H1991     1.0  0.57590  0.82897  0.17044  1.0000
  C   C2503     1.0  0.74577  0.95957  0.11575  1.0000
  H   H1992     1.0  0.83779  0.93854  0.25679  1.0000
  C   C2504     1.0  0.89623  0.72418  0.37844  1.0000
  C   C2505     1.0  0.64327  0.90196  0.40493  1.0000
  H   H1993     1.0  0.79987  0.86755  0.28042  1.0000
  H   H1994     1.0  0.89088  0.88255  0.27102  1.0000
  C   C2506     1.0  0.79575  0.96799  0.11610  1.0000
  C   C2507     1.0  0.54600  0.87256  0.20654  1.0000
  H   H1995     1.0  0.00154  0.78130  0.35867  1.0000
  C   C2508     1.0  0.80340  0.96014  0.08958  1.0000
  Fe  Fe169     1.0  0.96900  0.73792  0.99959  1.0000
  C   C2509     1.0  0.99208  0.75075  0.08771  1.0000
  H   H1996     1.0  0.63795  0.92239  0.10641  1.0000
  H   H1997     1.0  0.79990  0.90565  0.33688  1.0000
  S   S339      1.0  0.52286  0.85720  0.47638  1.0000
  H   H1998     1.0  0.89199  0.75641  0.09227  1.0000
  H   H1999     1.0  0.70961  0.96225  0.43651  1.0000
  C   C2510     1.0  0.57312  0.89238  0.22553  1.0000
  H   H2000     1.0  0.71709  0.90548  0.15527  1.0000
  H   H2001     1.0  0.66887  0.90111  0.13201  1.0000
  C   C2511     1.0  0.70157  0.95698  0.19546  1.0000
  C   C2512     1.0  0.53183  0.84410  0.28994  1.0000
  H   H2002     1.0  0.73415  0.93101  0.15407  1.0000
  H   H2003     1.0  0.95840  0.75472  0.19839  1.0000
  C   C2513     1.0  0.82550  0.90697  0.29420  1.0000
  H   H2004     1.0  0.70394  0.93569  0.35749  1.0000
  C   C2514     1.0  0.59581  0.90560  0.43285  1.0000
  C   C2515     1.0  0.94962  0.75602  0.36954  1.0000
  H   H2005     1.0  0.88602  0.90216  0.17717  1.0000
  C   C2516     1.0  0.55201  0.83156  0.16925  1.0000
  H   H2006     1.0  0.54657  0.85283  0.29281  1.0000
  H   H2007     1.0  0.53072  0.86907  0.18983  1.0000
  C   C2517     1.0  0.00165  0.72736  0.33934  1.0000
  C   C2518     1.0  0.80708  0.87855  0.28433  1.0000
  C   C2519     1.0  0.83467  0.89980  0.26703  1.0000
  H   H2008     1.0  0.81253  0.74030  0.13433  1.0000
  H   H2009     1.0  0.93981  0.74420  0.41338  1.0000
  C   C2520     1.0  0.98928  0.76753  0.13132  1.0000
  C   C2521     1.0  0.92318  0.93358  0.26998  1.0000
  C   C2522     1.0  0.90696  0.94721  0.27575  1.0000
  C   C2523     1.0  0.87614  0.94881  0.27147  1.0000
  C   C2524     1.0  0.86159  0.93696  0.26070  1.0000
  C   C2525     1.0  0.87772  0.92329  0.25444  1.0000
  C   C2526     1.0  0.90864  0.92162  0.25947  1.0000
  P   P86       1.0  0.85877  0.90846  0.23848  1.0000
  C   C2527     1.0  0.83734  0.91621  0.20539  1.0000
  C   C2528     1.0  0.88566  0.89388  0.22542  1.0000
  C   C2529     1.0  0.89737  0.88252  0.24669  1.0000
  C   C2530     1.0  0.66842  0.93889  0.11602  1.0000
  S   S340      1.0  0.51921  0.90048  0.48117  1.0000
  H   H2010     1.0  0.92074  0.88135  0.15969  1.0000
  C   C2531     1.0  0.89456  0.89352  0.19402  1.0000
  C   C2532     1.0  0.84559  0.92920  0.18870  1.0000
  C   C2533     1.0  0.82940  0.93503  0.16276  1.0000
  C   C2534     1.0  0.80522  0.92780  0.15289  1.0000
  C   C2535     1.0  0.79719  0.91476  0.16900  1.0000
  C   C2536     1.0  0.81304  0.90901  0.19523  1.0000
  H   H2011     1.0  0.78837  0.94575  0.05570  1.0000
  H   H2012     1.0  0.00316  0.74142  0.07606  1.0000
  H   H2013     1.0  0.73757  0.94526  0.07845  1.0000
  C   C2537     1.0  0.98117  0.73503  0.17940  1.0000
  H   H2014     1.0  0.90103  0.73627  0.04255  1.0000
  C   C2538     1.0  0.99197  0.76937  0.40245  1.0000
  H   H2015     1.0  0.93595  0.73012  0.08571  1.0000
  H   H2016     1.0  0.70103  0.95421  0.24542  1.0000
  H   H2017     1.0  0.57888  0.90390  0.22383  1.0000
  S   S341      1.0  0.51697  0.85878  0.00410  1.0000
  C   C2539     1.0  0.70556  0.96684  0.16946  1.0000
  C   C2540     1.0  0.70277  0.96206  0.22552  1.0000
  C   C2541     1.0  0.76721  0.96759  0.12932  1.0000
  C   C2542     1.0  0.53063  0.83711  0.26169  1.0000
  Fe  Fe170     1.0  0.99347  0.78931  0.20572  1.0000
  C   C2543     1.0  0.58708  0.88218  0.24744  1.0000
  C   C2544     1.0  0.92577  0.72984  0.15572  1.0000
  H   H2018     1.0  0.82548  0.96061  0.07923  1.0000
  C   C2545     1.0  0.99775  0.73227  0.28366  1.0000
  H   H2019     1.0  0.68437  0.94338  0.46941  1.0000
  C   C2546     1.0  0.00613  0.73656  0.31268  1.0000
  Fe  Fe171     1.0  0.51329  0.85399  0.42622  1.0000
  C   C2547     1.0  0.75376  0.95151  0.08936  1.0000
  C   C2548     1.0  0.78248  0.95181  0.07633  1.0000
  H   H2020     1.0  0.62160  0.96605  0.35685  1.0000
  H   H2021     1.0  0.00272  0.73738  0.18796  1.0000
  C   C2549     1.0  0.00354  0.75541  0.11564  1.0000
  H   H2022     1.0  0.64672  0.97356  0.13793  1.0000
  H   H2023     1.0  0.00348  0.78076  0.05042  1.0000
  H   H2024     1.0  0.86605  0.72467  0.41793  1.0000
  H   H2025     1.0  0.88135  0.73146  0.36366  1.0000
  H   H2026     1.0  0.99466  0.92833  0.22579  1.0000
  Fe  Fe172     1.0  0.96295  0.73800  0.49614  1.0000
  C   C2550     1.0  0.68444  0.97330  0.10596  1.0000
  H   H2027     1.0  0.98786  0.72574  0.41580  1.0000
  C   C2551     1.0  0.51411  0.83966  0.31524  1.0000
  H   H2028     1.0  0.51160  0.81934  0.23843  1.0000
  C   C2552     1.0  0.50658  0.83141  0.13997  1.0000
  H   H2029     1.0  0.00060  0.73968  0.26324  1.0000
  H   H2030     1.0  0.90411  0.72797  0.14685  1.0000
  H   H2031     1.0  0.51520  0.84503  0.33703  1.0000
  H   H2032     1.0  0.99300  0.77933  0.49772  1.0000
  S   S342      1.0  0.91804  0.72864  0.49812  1.0000
  C   C2553     1.0  0.64066  0.78404  0.81693  1.0000
  H   H2033     1.0  0.53920  0.87185  0.64458  1.0000
  S   S343      1.0  0.54789  0.75859  0.77198  1.0000
  H   H2034     1.0  0.54345  0.82133  0.71085  1.0000
  H   H2035     1.0  0.51493  0.75955  0.83127  1.0000
  Fe  Fe173     1.0  0.91640  0.73283  0.54936  1.0000
  S   S344      1.0  0.97046  0.74699  0.94961  1.0000
  H   H2036     1.0  0.82182  0.74826  0.61305  1.0000
  H   H2037     1.0  0.53212  0.81201  0.54349  1.0000
  C   C2554     1.0  0.87220  0.72979  0.75580  1.0000
  H   H2038     1.0  0.56064  0.82699  0.57705  1.0000
  C   C2555     1.0  0.93674  0.75833  0.62296  1.0000
  S   S345      1.0  0.87543  0.74202  0.57675  1.0000
  C   C2556     1.0  0.54475  0.80651  0.56275  1.0000
  S   S346      1.0  0.95882  0.74442  0.54630  1.0000
  C   C2557     1.0  0.57320  0.84131  0.83526  1.0000
  H   H2039     1.0  0.83763  0.72886  0.81816  1.0000
  H   H2040     1.0  0.53668  0.81946  0.91299  1.0000
  C   C2558     1.0  0.90344  0.75257  0.77823  1.0000
  S   S347      1.0  0.68928  0.75045  0.74456  1.0000
  C   C2559     1.0  0.64848  0.76953  0.82938  1.0000
  H   H2041     1.0  0.88546  0.73649  0.83756  1.0000
  H   H2042     1.0  0.64791  0.73140  0.77905  1.0000
  C   C2560     1.0  0.88294  0.72417  0.88179  1.0000
  C   C2561     1.0  0.96673  0.75356  0.61756  1.0000
  C   C2562     1.0  0.83414  0.73860  0.62428  1.0000
  H   H2043     1.0  0.59325  0.73518  0.78946  1.0000
  C   C2563     1.0  0.51524  0.92543  0.51554  1.0000
  H   H2044     1.0  0.58768  0.81725  0.99637  1.0000
  H   H2045     1.0  0.53801  0.92665  0.50793  1.0000
  H   H2046     1.0  0.51801  0.93790  0.84489  1.0000
  H   H2047     1.0  0.58935  0.81469  0.62110  1.0000
  S   S348      1.0  0.52518  0.94047  0.91342  1.0000
  C   C2564     1.0  0.69616  0.77138  0.62248  1.0000
  H   H2048     1.0  0.97488  0.74231  0.88000  1.0000
  H   H2049     1.0  0.92009  0.75022  0.62465  1.0000
  Fe  Fe174     1.0  0.50934  0.77632  0.75846  1.0000
  C   C2565     1.0  0.58737  0.75685  0.76494  1.0000
  H   H2050     1.0  0.54328  0.82726  0.96619  1.0000
  H   H2051     1.0  0.96281  0.77072  0.68043  1.0000
  C   C2566     1.0  0.65013  0.75255  0.75334  1.0000
  C   C2567     1.0  0.63341  0.76588  0.74313  1.0000
  C   C2568     1.0  0.60228  0.76802  0.74868  1.0000
  C   C2569     1.0  0.55991  0.81941  0.95596  1.0000
  H   H2052     1.0  0.94955  0.74768  0.70940  1.0000
  H   H2053     1.0  0.64480  0.77461  0.73091  1.0000
  H   H2054     1.0  0.58986  0.77832  0.74052  1.0000
  H   H2055     1.0  0.58270  0.86389  0.61225  1.0000
  H   H2056     1.0  0.52164  0.79282  0.91865  1.0000
  H   H2057     1.0  0.61891  0.79087  0.92015  1.0000
  H   H2058     1.0  0.59942  0.76877  0.89033  1.0000
  C   C2570     1.0  0.98769  0.74196  0.85847  1.0000
  C   C2571     1.0  0.54187  0.81624  0.82614  1.0000
  C   C2572     1.0  0.54449  0.79103  0.56893  1.0000
  C   C2573     1.0  0.56308  0.81555  0.84970  1.0000
  C   C2574     1.0  0.56035  0.78397  0.59407  1.0000
  C   C2575     1.0  0.57654  0.79240  0.61335  1.0000
  C   C2576     1.0  0.57698  0.80793  0.60670  1.0000
  P   P87       1.0  0.59687  0.78351  0.64623  1.0000
  C   C2577     1.0  0.59420  0.79650  0.67709  1.0000
  C   C2578     1.0  0.58092  0.76619  0.65831  1.0000
  C   C2579     1.0  0.55986  0.76559  0.68270  1.0000
  C   C2580     1.0  0.60220  0.79877  0.92982  1.0000
  H   H2059     1.0  0.53173  0.78458  0.55427  1.0000
  H   H2060     1.0  0.94030  0.73589  0.78394  1.0000
  C   C2581     1.0  0.58976  0.75303  0.64301  1.0000
  C   C2582     1.0  0.61944  0.79923  0.69396  1.0000
  C   C2583     1.0  0.61702  0.80944  0.71751  1.0000
  C   C2584     1.0  0.58959  0.81732  0.72380  1.0000
  C   C2585     1.0  0.56464  0.81503  0.70645  1.0000
  C   C2586     1.0  0.56683  0.80456  0.68342  1.0000
  C   C2587     1.0  0.63560  0.77873  0.63637  1.0000
  C   C2588     1.0  0.64877  0.78515  0.60960  1.0000
  H   H2061     1.0  0.52119  0.73211  0.75463  1.0000
  H   H2062     1.0  0.65172  0.78803  0.79589  1.0000
  C   C2589     1.0  0.68317  0.76496  0.64917  1.0000
  C   C2590     1.0  0.65299  0.76855  0.65601  1.0000
  C   C2591     1.0  0.60318  0.78787  0.85787  1.0000
  H   H2063     1.0  0.55964  0.77200  0.59847  1.0000
  C   C2592     1.0  0.51988  0.91380  0.94680  1.0000
  H   H2064     1.0  0.55267  0.77547  0.69513  1.0000
  C   C2593     1.0  0.97143  0.75153  0.71212  1.0000
  C   C2594     1.0  0.58485  0.81370  0.97300  1.0000
  H   H2065     1.0  0.62541  0.79907  0.97315  1.0000
  H   H2066     1.0  0.60584  0.75322  0.62397  1.0000
  H   H2067     1.0  0.64106  0.79352  0.68920  1.0000
  H   H2068     1.0  0.63647  0.81127  0.73079  1.0000
  H   H2069     1.0  0.58767  0.82525  0.74201  1.0000
  S   S349      1.0  0.77376  0.73259  0.76122  1.0000
  H   H2070     1.0  0.54719  0.80284  0.67035  1.0000
  C   C2595     1.0  0.94909  0.78415  0.62077  1.0000
  C   C2596     1.0  0.63535  0.74154  0.77025  1.0000
  H   H2071     1.0  0.90445  0.77726  0.62759  1.0000
  H   H2072     1.0  0.69651  0.75729  0.66482  1.0000
  H   H2073     1.0  0.64336  0.76350  0.67690  1.0000
  H   H2074     1.0  0.98718  0.78212  0.99569  1.0000
  H   H2075     1.0  0.86285  0.76686  0.77059  1.0000
  C   C2597     1.0  0.87386  0.75567  0.76886  1.0000
  C   C2598     1.0  0.97969  0.75199  0.83354  1.0000
  H   H2076     1.0  0.83541  0.74668  0.75013  1.0000
  H   H2077     1.0  0.91988  0.72816  0.70633  1.0000
  C   C2599     1.0  0.61812  0.79320  0.83105  1.0000
  C   C2600     1.0  0.97887  0.76460  0.69577  1.0000
  Fe  Fe175     1.0  0.72417  0.73038  0.75425  1.0000
  C   C2601     1.0  0.54157  0.87718  0.62164  1.0000
  H   H2078     1.0  0.66562  0.76237  0.81802  1.0000
  C   C2602     1.0  0.56093  0.81495  0.58166  1.0000
  H   H2079     1.0  0.50966  0.87130  0.73772  1.0000
  H   H2080     1.0  0.59546  0.82784  0.87198  1.0000
  C   C2603     1.0  0.67896  0.78144  0.60268  1.0000
  C   C2604     1.0  0.85834  0.74431  0.75747  1.0000
  H   H2081     1.0  0.94211  0.79602  0.62141  1.0000
  C   C2605     1.0  0.99178  0.74378  0.73262  1.0000
  C   C2606     1.0  0.55196  0.84193  0.81189  1.0000
  H   H2082     1.0  0.61201  0.80423  0.82043  1.0000
  C   C2607     1.0  0.86168  0.73311  0.61142  1.0000
  H   H2083     1.0  0.55374  0.77731  0.82974  1.0000
  P   P88       1.0  0.57108  0.79862  0.87385  1.0000
  C   C2608     1.0  0.84539  0.72484  0.84096  1.0000
  C   C2609     1.0  0.55619  0.81491  0.92584  1.0000
  C   C2610     1.0  0.82210  0.73151  0.65121  1.0000
  C   C2611     1.0  0.53644  0.82939  0.80726  1.0000
  C   C2612     1.0  0.56635  0.87258  0.60332  1.0000
  H   H2084     1.0  0.80065  0.73569  0.66049  1.0000
  H   H2085     1.0  0.52911  0.80678  0.82256  1.0000
  C   C2613     1.0  0.63385  0.76416  0.85608  1.0000
  C   C2614     1.0  0.51066  0.92920  0.94396  1.0000
  H   H2086     1.0  0.97266  0.74173  0.61500  1.0000
  C   C2615     1.0  0.54817  0.75200  0.69180  1.0000
  H   H2087     1.0  0.63590  0.79303  0.59411  1.0000
  C   C2616     1.0  0.61121  0.77325  0.87022  1.0000
  C   C2617     1.0  0.92788  0.77361  0.62437  1.0000
  H   H2088     1.0  0.91536  0.76136  0.78731  1.0000
  S   S350      1.0  0.91755  0.73002  0.89404  1.0000
  H   H2089     1.0  0.53614  0.90903  0.93051  1.0000
  H   H2090     1.0  0.68910  0.78641  0.58202  1.0000
  C   C2618     1.0  0.52391  0.89480  0.57998  1.0000
  C   C2619     1.0  0.57710  0.80443  0.91262  1.0000
  C   C2620     1.0  0.53846  0.77700  0.84950  1.0000
  S   S351      1.0  0.52019  0.97058  0.59154  1.0000
  H   H2091     1.0  0.63972  0.75283  0.86544  1.0000
  H   H2092     1.0  0.51529  0.89268  0.97257  1.0000
  C   C2621     1.0  0.54087  0.78649  0.87411  1.0000
  H   H2093     1.0  0.58518  0.85105  0.83900  1.0000
  C   C2622     1.0  0.56992  0.87908  0.57339  1.0000
  C   C2623     1.0  0.51641  0.76689  0.85025  1.0000
  H   H2094     1.0  0.51292  0.89056  0.69474  1.0000
  H   H2095     1.0  0.96062  0.76012  0.83591  1.0000
  C   C2624     1.0  0.52061  0.78573  0.89928  1.0000
  C   C2625     1.0  0.57802  0.73948  0.65221  1.0000
  C   C2626     1.0  0.54875  0.89021  0.56179  1.0000
  H   H2096     1.0  0.53229  0.75157  0.71094  1.0000
  H   H2097     1.0  0.58897  0.87547  0.55906  1.0000
  H   H2098     1.0  0.71960  0.76860  0.61723  1.0000
  H   H2099     1.0  0.98527  0.77226  0.55279  1.0000
  C   C2627     1.0  0.60426  0.74372  0.77609  1.0000
  C   C2628     1.0  0.55738  0.73894  0.67678  1.0000
  C   C2629     1.0  0.97913  0.77940  0.61532  1.0000
  H   H2100     1.0  0.55142  0.89521  0.53853  1.0000
  C   C2630     1.0  0.99660  0.75167  0.80598  1.0000
  C   C2631     1.0  0.91745  0.73807  0.77644  1.0000
  C   C2632     1.0  0.57885  0.82816  0.85402  1.0000
  C   C2633     1.0  0.87255  0.72913  0.85204  1.0000
  C   C2634     1.0  0.60603  0.80342  0.95989  1.0000
  H   H2101     1.0  0.54731  0.85216  0.79756  1.0000
  H   H2102     1.0  0.98517  0.73399  0.74609  1.0000
  H   H2103     1.0  0.54864  0.72840  0.68435  1.0000
  H   H2104     1.0  0.58511  0.72939  0.64042  1.0000
  H   H2105     1.0  0.52235  0.91964  0.61404  1.0000
  H   H2106     1.0  0.94024  0.72481  0.65347  1.0000
  C   C2635     1.0  0.98818  0.76405  0.61331  1.0000
  C   C2636     1.0  0.52014  0.88836  0.61007  1.0000
  H   H2107     1.0  0.51959  0.82994  0.78950  1.0000
  S   S352      1.0  0.51034  0.80137  0.75517  1.0000
  C   C2637     1.0  0.90176  0.72653  0.76557  1.0000
  C   C2638     1.0  0.50874  0.92240  0.63420  1.0000
  C   C2639     1.0  0.51033  0.93647  0.64640  1.0000
  H   H2108     1.0  0.99056  0.75991  0.78737  1.0000
  H   H2109     1.0  0.51280  0.94486  0.54347  1.0000
  C   C2640     1.0  0.50805  0.90452  0.97054  1.0000
  H   H2110     1.0  0.52523  0.94427  0.63594  1.0000
  H   H2111     1.0  0.99501  0.78775  0.61147  1.0000
  H   H2112     1.0  0.50753  0.90333  0.57051  1.0000
  Fe  Fe176     1.0  0.94754  0.72676  0.93694  1.0000
