data_image0
_chemical_formula_structural       CS2FeHSFeS3HSHCSHFeSFeHS2C5HC2HCH2C2FeC5H2PCH2CH4PC2HC8PC15FeC2H17S2C5HCH3CH2C3H2CFeC2PCHCH2CH2C3HCHCH5CHCHC2HC2H2C6H2CHC2HC2H3CH2CH6FeC2HCH2C4HCHC4HC3PH5C5H2C3HCHCHC2HSH4CSFeS2FeS2FeSFeS3FeS2FeS2FeSFeS3C2FeS2FeCFeCFeS3FeCSCSCH2FeS2H2CHC2SCHCH3C2HCSH4CH2C6H4C6H4C7H4CH2CHC6H4CHC2H2C8PC14HCH14CH2C3PC9HS2C3HC3SH10CHCH5C6PCHC2HCHC6H3C4H4CHSCH7C8PC4PH2C5HC3H8FeH5CH2C6PC18H20C6PC16HCH9C2H2C2HC2H3C3HC2HC2H2CHC2H2C5H2CHC2HCHC3H3CSCH4C5SC3H2C2H2CH7CHC2HC4H4C3H2CSC5HCSPFeCSFeHCSHSHCHCFeSFeC2SC2SC2HCFeCH2SCH3C3HCH2SFeC2HCHCH6PH2C7H2C5FeSC3HC5H2CH2C4HCH4PC5H2C5H2C2HCHCH2CHC3SH6C2H3C3SH3CSC3SH3CHCH3PCHC3HC3H3C2HC3H4C2SH2CH2C2PHC3HCH3CHC2H2CHCFeHSCH5CHC3HC2HC2H2C3H2C2H2C2SCHCH3CH2CHC2HC2HC3HFeSHFeS2FeSFeS3FeS2FeS2FeSFeS3H2FeS2Fe3CFeS3FeHSCSCSHFeS2PCHSC2HC2H2C3H3C4FeCH2C6H4C6H5C6H6CH2C6H4CHCHC4PC18H2CH17PC2HCHC7PC18H20PCHCHC4HC3HCH2CHC2HC2HCSCH2C3H2CH3CSC4HC6H2FeHSHCH2C2H4C10HCHC4HC2HCSCH4C5HC3HCHC6HCHC3H3CH5CH2C3H2C2H2CHCH4C5HCH3PHCPHCHC2HC3HCH3CHC3H2FeS2FeS2FeSFeS3H2C2HSHSFeSHSH5CSC6H4C6H4CH4C2PH2C2H2CHC4HFeHFeC2HC2HCHC3H2CH3C5HCSC2H3SHC6HC2H4CH2CH3C4HC5H5C10PC4H2C6HC3HCH2CHCFeC2H4C2H2C2HC2HC2HCH2C2H2CHCHCH2CH4CH2CH2C2HCHC3HCSHC2HC3H2CHC2PCHCH2C4HC4SHFeS2FeS2FeSFeS3HS2FeS2CHCH4C8H4C6H4CH3C2HC2HC2HC2HC2HCH3SCPCH3CPC2H2FeCH2CH2C5H2SC4PH2CHC2HC3HCHCHCHC4HCHC2HCHC2H2C2HC3HCHCH3CH2CHC2H2FeHC2HCHCHC3H2CHC2HCHCH3CH2C3H2C3HC2HSCH2C9H4CH3CH2C6HCHCH2C3HCHCPCH4CHC5H3CHC3PCHCH6C2HCH2C4HCHC2FeH2C3HFeS2FeS2FeSFeS3H5FeHSFeS3HCHCHC8H4C6H4C4HC3HCH2CHCH2C2HCFeC6PC5HC11H2CH3CHCH6C4HC7HC3PC7H2C4H3C2HC2SH6C2FeH3CH3C3HC2H2C2HCH2CH5CH5C2SC9H3CHC2HC2H3CHCPC2H4CPC6HCHCHC4HCPCH3CHCH3C3H2CHC4HCH2CHCH2C2H2C2H2SCHCHCHCH4C2HSC2H3CHSHFeS2FeS2FeSFeS3HS2FeS2HCHC4H2C6H4C6H4C2FeCHC2HCHC2PC2HSHCHC2HCH3CH2C4H2CHCFeC5HC3PC9H2C3HC4HCH3CHC2H3CH6CH2CHCHCHC2H5CH4CH2C2HCH2CHC3HC5HC3HCH4CH3C5PC4HCHCHCHFeSC3SCH2CH2CH2CH4CSC4HC2H2C2SH5FeS2FeSHFeSFeS3FeS2FeS2FeSFeS3FeHSCSCH2FeS2HFeS2HFeCFeS3H2CH2C2HC3H2C2SC3HC6H4C6H4C3H2C6H4SC7H4C6HC4PH2C7H4CH6C8H5C2HC3HC5H2CHC5HCHC3H2C3H2C11H2C3HC7H4C3H2C2H3CHCH2CSCHC2H2C2H2C8PC18H12C2H6C5PC9HC3H10CPHCH2CH3CSHCSCHC2H2C2SCH3C3H2SCHC3H2C2H5C4SH2CHCHC2H5SH2CH2CHFeHPCHC5PCH2CHCH2PCH3CHFeHCHC3HCSHCHC2H3C2H2CHCH3C3HFeSFeCSCSC3FeS2CPCH5CHCS2CHFeCHC2FeSC2PHCH3CSCHC2HC5FeHCH2SH6C6PC19PCH9C2H7CH8CFe2C3HC2HCHC2HC2H2CHCH2C3SHCH5C3HCHCSCHCHC7HC3H2FeCH2C3H2C2SCHCHCHFeC2H2C7HC2SCH2PC7H4PH2CH2CHCH3FeC2SH2C2HC2H4SHC2H5CHCHCHFeS2FeS2FeSFeCS2FeS2FeS2FeSFeS3FeCSHSC2HFeS2CFeS2Fe2HFeHS2H4C2HCH2C4H4CHC6H4C6H4SHCH2C6H5C3HCH3C2HC6HC5PC2HC2HC11HCH2CH10CSHC7PC18H20C6H5CHCH5CH2C3HC3PC18HPCHCH4SH6CH3C2PC3S2H2C3PC21H8CHCH6CHCHPHC7H3C9SHC2SHCH3CH4CHC3HC2HCHCH2FeC6HC2HCHCHCHSC2HCH9C3H2CHC2H2CHC3H4FeHC6H2CHFeH2CSC2HFeS2CHC3HC2Fe2S3CFeCH4C5H3SCHC2H3SCH3SHC6H3CH5PCHC3H2C6H2C6H6CH7CH3C2FeCHCHCHC3H2CHCH2CHC3HCHCHCHCHCH6C9PC2H3C4H3C4H4C4H2PC6H4CSH2SPCHC4HC2HCHCH3C4HC4HCS2C2
_chemical_formula_sum              "C1920 S256 Fe128 H1536 P64"
_cell_length_a       80.4572
_cell_length_b       45.9555
_cell_length_c       36.4813
_cell_angle_alpha    89.5786
_cell_angle_beta     94.7359
_cell_angle_gamma    88.8657

_space_group_name_H-M_alt    "P 1"
_space_group_IT_number       1

loop_
  _space_group_symop_operation_xyz
  'x, y, z'

loop_
  _atom_site_type_symbol
  _atom_site_label
  _atom_site_symmetry_multiplicity
  _atom_site_fract_x
  _atom_site_fract_y
  _atom_site_fract_z
  _atom_site_occupancy
  C   C1        1.0  0.30546  0.34134  0.35036  1.0000
  S   S1        1.0  0.26768  0.46210  0.38769  1.0000
  S   S2        1.0  0.23095  0.49345  0.39000  1.0000
  Fe  Fe1       1.0  0.25048  0.01937  0.42457  1.0000
  H   H1        1.0  0.23602  0.02008  0.29122  1.0000
  S   S3        1.0  0.23295  0.05656  0.44109  1.0000
  Fe  Fe2       1.0  0.24717  0.46240  0.42638  1.0000
  S   S4        1.0  0.23332  0.42025  0.43961  1.0000
  S   S5        1.0  0.30741  0.00990  0.37185  1.0000
  S   S6        1.0  0.15711  0.01289  0.02471  1.0000
  H   H2        1.0  0.25745  0.06709  0.18621  1.0000
  S   S7        1.0  0.26045  0.01915  0.36849  1.0000
  H   H3        1.0  0.18619  0.40064  0.34944  1.0000
  C   C2        1.0  0.28866  0.31800  0.05640  1.0000
  S   S8        1.0  0.21821  0.03004  0.15960  1.0000
  H   H4        1.0  0.28775  0.35339  0.48370  1.0000
  Fe  Fe3       1.0  0.21952  0.45985  0.04560  1.0000
  S   S9        1.0  0.23507  0.41804  0.05401  1.0000
  Fe  Fe4       1.0  0.21917  0.02350  0.02186  1.0000
  H   H5        1.0  0.29435  0.34437  0.33180  1.0000
  S   S10       1.0  0.19563  0.46430  0.07316  1.0000
  S   S11       1.0  0.19997  0.04072  0.05753  1.0000
  C   C3        1.0  0.02682  0.07247  0.14582  1.0000
  C   C4        1.0  0.24691  0.34467  0.99957  1.0000
  C   C5        1.0  0.18746  0.39745  0.99538  1.0000
  C   C6        1.0  0.24489  0.36541  0.02716  1.0000
  C   C7        1.0  0.18036  0.46696  0.20267  1.0000
  H   H6        1.0  0.24888  0.36007  0.05549  1.0000
  C   C8        1.0  0.05666  0.07958  0.15738  1.0000
  C   C9        1.0  0.27369  0.38362  0.36820  1.0000
  H   H7        1.0  0.02742  0.04437  0.21246  1.0000
  C   C10       1.0  0.27623  0.03681  0.21109  1.0000
  H   H8        1.0  0.32517  0.44496  0.45409  1.0000
  H   H9        1.0  0.23227  0.39708  0.34573  1.0000
  C   C11       1.0  0.23756  0.39287  0.01835  1.0000
  C   C12       1.0  0.23024  0.49462  0.18641  1.0000
  Fe  Fe5       1.0  0.25193  0.49479  0.35307  1.0000
  C   C13       1.0  0.04318  0.06101  0.15106  1.0000
  C   C14       1.0  0.28397  0.02630  0.24470  1.0000
  C   C15       1.0  0.22798  0.02393  0.23324  1.0000
  C   C16       1.0  0.24559  0.39697  0.34330  1.0000
  C   C17       1.0  0.31974  0.32875  0.33705  1.0000
  H   H10       1.0  0.04548  0.03772  0.15056  1.0000
  H   H11       1.0  0.22842  0.04740  0.23297  1.0000
  P   P1        1.0  0.28764  0.36768  0.40447  1.0000
  C   C18       1.0  0.26721  0.31987  0.41060  1.0000
  H   H12       1.0  0.23268  0.48633  0.15968  1.0000
  H   H13       1.0  0.18407  0.01928  0.18287  1.0000
  C   C19       1.0  0.99207  0.06805  0.11416  1.0000
  H   H14       1.0  0.20438  0.37198  0.03204  1.0000
  H   H15       1.0  0.26558  0.32036  0.38085  1.0000
  H   H16       1.0  0.99903  0.05681  0.05995  1.0000
  H   H17       1.0  0.29846  0.25016  0.09066  1.0000
  P   P2        1.0  0.00938  0.04844  0.13840  1.0000
  C   C20       1.0  0.23502  0.08598  0.47281  1.0000
  C   C21       1.0  0.30111  0.38874  0.07628  1.0000
  H   H18       1.0  0.20201  0.03408  0.37340  1.0000
  C   C22       1.0  0.25870  0.29927  0.42994  1.0000
  C   C23       1.0  0.23796  0.49742  0.25275  1.0000
  C   C24       1.0  0.19223  0.41263  0.32876  1.0000
  C   C25       1.0  0.20313  0.43490  0.33950  1.0000
  C   C26       1.0  0.21104  0.45025  0.31294  1.0000
  C   C27       1.0  0.20817  0.44326  0.27584  1.0000
  C   C28       1.0  0.19731  0.42093  0.26475  1.0000
  C   C29       1.0  0.18927  0.40565  0.29150  1.0000
  P   P3        1.0  0.19475  0.41151  0.21663  1.0000
  C   C30       1.0  0.21546  0.40965  0.20102  1.0000
  C   C31       1.0  0.18477  0.37677  0.21082  1.0000
  C   C32       1.0  0.19390  0.35155  0.20288  1.0000
  C   C33       1.0  0.18587  0.32495  0.19811  1.0000
  C   C34       1.0  0.16871  0.32334  0.20114  1.0000
  C   C35       1.0  0.15953  0.34837  0.20888  1.0000
  C   C36       1.0  0.16751  0.37500  0.21365  1.0000
  C   C37       1.0  0.21886  0.42214  0.16729  1.0000
  C   C38       1.0  0.23506  0.42098  0.15607  1.0000
  C   C39       1.0  0.24795  0.40744  0.17835  1.0000
  C   C40       1.0  0.24469  0.39515  0.21208  1.0000
  C   C41       1.0  0.22851  0.39622  0.22340  1.0000
  C   C42       1.0  0.18208  0.43834  0.19010  1.0000
  C   C43       1.0  0.17430  0.43085  0.15562  1.0000
  C   C44       1.0  0.29358  0.39771  0.43397  1.0000
  Fe  Fe6       1.0  0.18506  0.48792  0.02155  1.0000
  C   C45       1.0  0.31325  0.43455  0.45536  1.0000
  C   C46       1.0  0.20027  0.01228  0.38380  1.0000
  H   H19       1.0  0.18653  0.47375  0.22853  1.0000
  H   H20       1.0  0.29215  0.41896  0.00550  1.0000
  H   H21       1.0  0.21961  0.46738  0.32095  1.0000
  H   H22       1.0  0.21461  0.45507  0.25569  1.0000
  H   H23       1.0  0.18094  0.38813  0.28394  1.0000
  H   H24       1.0  0.20716  0.35225  0.20003  1.0000
  H   H25       1.0  0.19297  0.30556  0.19188  1.0000
  H   H26       1.0  0.16251  0.30272  0.19736  1.0000
  H   H27       1.0  0.14621  0.34717  0.21107  1.0000
  H   H28       1.0  0.16024  0.39427  0.21950  1.0000
  H   H29       1.0  0.20918  0.43316  0.14971  1.0000
  H   H30       1.0  0.23759  0.43092  0.13016  1.0000
  H   H31       1.0  0.26045  0.40660  0.16952  1.0000
  H   H32       1.0  0.25472  0.38497  0.22958  1.0000
  H   H33       1.0  0.22619  0.38671  0.24970  1.0000
  H   H34       1.0  0.17580  0.40914  0.14486  1.0000
  H   H35       1.0  0.18753  0.41617  0.01331  1.0000
  S   S12       1.0  0.25162  0.48596  0.29117  1.0000
  S   S13       1.0  0.27397  0.99866  0.45251  1.0000
  C   C47       1.0  0.17098  0.48766  0.18112  1.0000
  C   C48       1.0  0.31223  0.39386  0.10719  1.0000
  C   C49       1.0  0.00059  0.24848  0.47486  1.0000
  C   C50       1.0  0.17640  0.00305  0.16864  1.0000
  C   C51       1.0  0.25634  0.38310  0.37032  1.0000
  H   H36       1.0  0.17444  0.13544  0.45545  1.0000
  C   C52       1.0  0.30018  0.27238  0.08183  1.0000
  H   H37       1.0  0.32021  0.34998  0.43987  1.0000
  H   H38       1.0  0.16488  0.03351  0.12870  1.0000
  H   H39       1.0  0.14266  0.02948  0.46714  1.0000
  C   C53       1.0  0.25207  0.41197  0.31443  1.0000
  H   H40       1.0  0.06925  0.07063  0.16136  1.0000
  H   H41       1.0  0.27789  0.33112  0.04641  1.0000
  C   C54       1.0  0.22671  0.10640  0.01020  1.0000
  C   C55       1.0  0.27966  0.33854  0.46824  1.0000
  C   C56       1.0  0.22888  0.13674  0.01186  1.0000
  H   H42       1.0  0.21818  0.09607  0.02740  1.0000
  H   H43       1.0  0.06436  0.12405  0.16381  1.0000
  C   C57       1.0  0.30739  0.41170  0.13554  1.0000
  Fe  Fe7       1.0  0.18492  0.00189  0.03853  1.0000
  C   C58       1.0  0.31998  0.34429  0.41105  1.0000
  C   C59       1.0  0.03767  0.12120  0.15396  1.0000
  P   P4        1.0  0.30739  0.36573  0.03968  1.0000
  C   C60       1.0  0.24082  0.48664  0.21776  1.0000
  H   H44       1.0  0.27552  0.39518  0.05310  1.0000
  C   C61       1.0  0.31487  0.03546  0.19206  1.0000
  H   H45       1.0  0.28757  0.43804  0.15539  1.0000
  H   H46       1.0  0.21014  0.10251  0.45765  1.0000
  C   C62       1.0  0.16553  0.01109  0.13823  1.0000
  H   H47       1.0  0.31607  0.41585  0.15915  1.0000
  H   H48       1.0  0.31014  0.47104  0.37343  1.0000
  C   C63       1.0  0.17528  0.13009  0.48454  1.0000
  C   C64       1.0  0.28639  0.28971  0.06919  1.0000
  C   C65       1.0  0.23388  0.38965  0.47057  1.0000
  H   H49       1.0  0.28595  0.03056  0.30390  1.0000
  C   C66       1.0  0.29132  0.42408  0.13357  1.0000
  H   H50       1.0  0.03551  0.14451  0.15535  1.0000
  C   C67       1.0  0.05392  0.10967  0.15878  1.0000
  H   H51       1.0  0.15931  0.44598  0.10718  1.0000
  H   H52       1.0  0.24379  0.42375  0.29433  1.0000
  H   H53       1.0  0.99683  0.47613  0.04661  1.0000
  H   H54       1.0  0.20565  0.44005  0.36841  1.0000
  H   H55       1.0  0.22201  0.14952  0.03055  1.0000
  C   C68       1.0  0.30566  0.35001  0.38724  1.0000
  H   H56       1.0  0.03153  0.04197  0.07868  1.0000
  C   C69       1.0  0.26931  0.41330  0.31266  1.0000
  H   H57       1.0  0.25241  0.32350  0.00655  1.0000
  C   C70       1.0  0.26789  0.06077  0.27798  1.0000
  C   C71       1.0  0.26002  0.07115  0.24476  1.0000
  H   H58       1.0  0.01886  0.02813  0.27235  1.0000
  C   C72       1.0  0.26402  0.05905  0.21144  1.0000
  C   C73       1.0  0.19861  0.00786  0.42128  1.0000
  H   H59       1.0  0.30958  0.05423  0.20508  1.0000
  H   H60       1.0  0.27395  0.28102  0.06861  1.0000
  C   C74       1.0  0.27614  0.04689  0.13078  1.0000
  C   C75       1.0  0.28788  0.06503  0.11623  1.0000
  C   C76       1.0  0.28302  0.08388  0.08677  1.0000
  C   C77       1.0  0.26647  0.08477  0.07166  1.0000
  C   C78       1.0  0.25473  0.06694  0.08614  1.0000
  C   C79       1.0  0.25951  0.04817  0.11564  1.0000
  H   H61       1.0  0.26954  0.40083  0.45607  1.0000
  H   H62       1.0  0.27425  0.42641  0.29141  1.0000
  C   C80       1.0  0.28193  0.40960  0.45651  1.0000
  H   H63       1.0  0.19903  0.02649  0.43934  1.0000
  C   C81       1.0  0.02416  0.10270  0.14758  1.0000
  C   C82       1.0  0.28012  0.39937  0.33959  1.0000
  H   H64       1.0  0.17896  0.08414  0.47627  1.0000
  C   C83       1.0  0.16335  0.48007  0.14683  1.0000
  C   C84       1.0  0.23217  0.00848  0.26636  1.0000
  H   H65       1.0  0.99915  0.03350  0.00147  1.0000
  H   H66       1.0  0.12311  0.03025  0.00561  1.0000
  H   H67       1.0  0.25049  0.28411  0.41525  1.0000
  C   C85       1.0  0.16494  0.45163  0.13416  1.0000
  H   H68       1.0  0.25054  0.08823  0.24482  1.0000
  H   H69       1.0  0.25131  0.47199  0.21487  1.0000
  C   C86       1.0  0.01510  0.01762  0.11119  1.0000
  H   H70       1.0  0.30075  0.06467  0.12735  1.0000
  H   H71       1.0  0.29209  0.09780  0.07549  1.0000
  H   H72       1.0  0.26271  0.09924  0.04869  1.0000
  H   H73       1.0  0.24190  0.06755  0.07438  1.0000
  H   H74       1.0  0.29328  0.00894  0.24521  1.0000
  H   H75       1.0  0.25105  0.37307  0.39355  1.0000
  Fe  Fe8       1.0  0.21223  0.01152  0.10221  1.0000
  C   C87       1.0  0.28473  0.40012  0.07543  1.0000
  C   C88       1.0  0.27996  0.41806  0.10365  1.0000
  H   H76       1.0  0.26462  0.06989  0.30383  1.0000
  C   C89       1.0  0.30451  0.01597  0.17189  1.0000
  H   H77       1.0  0.26736  0.42716  0.10219  1.0000
  H   H78       1.0  0.29345  0.40180  0.33884  1.0000
  C   C90       1.0  0.31622  0.28358  0.08253  1.0000
  C   C91       1.0  0.27744  0.34014  0.42965  1.0000
  C   C92       1.0  0.30475  0.32911  0.05603  1.0000
  C   C93       1.0  0.27986  0.03839  0.27796  1.0000
  H   H79       1.0  0.01224  0.25201  0.46282  1.0000
  C   C94       1.0  0.30908  0.41104  0.43252  1.0000
  H   H80       1.0  0.15659  0.49644  0.12967  1.0000
  C   C95       1.0  0.01015  0.02719  0.24814  1.0000
  C   C96       1.0  0.22140  0.10541  0.47542  1.0000
  C   C97       1.0  0.22310  0.00932  0.20051  1.0000
  C   C98       1.0  0.19686  0.37246  0.00596  1.0000
  H   H81       1.0  0.21427  0.36793  0.43826  1.0000
  C   C99       1.0  0.30178  0.44558  0.47871  1.0000
  C   C100      1.0  0.01494  0.03645  0.21399  1.0000
  C   C101      1.0  0.02620  0.02102  0.08372  1.0000
  P   P5        1.0  0.28211  0.02175  0.16818  1.0000
  H   H82       1.0  0.32481  0.24999  0.30341  1.0000
  H   H83       1.0  0.10556  0.08283  0.00231  1.0000
  H   H84       1.0  0.31963  0.32256  0.30844  1.0000
  H   H85       1.0  0.01167  0.11209  0.14429  1.0000
  H   H86       1.0  0.25020  0.03464  0.12669  1.0000
  C   C102      1.0  0.22270  0.36681  0.46292  1.0000
  C   C103      1.0  0.32217  0.47949  0.38304  1.0000
  C   C104      1.0  0.28607  0.43325  0.47908  1.0000
  C   C105      1.0  0.00360  0.03572  0.18257  1.0000
  C   C106      1.0  0.31852  0.31190  0.06988  1.0000
  H   H87       1.0  0.31788  0.40386  0.41346  1.0000
  H   H88       1.0  0.32121  0.21244  0.02054  1.0000
  C   C107      1.0  0.26054  0.29846  0.46836  1.0000
  C   C108      1.0  0.29457  0.37240  0.99742  1.0000
  C   C109      1.0  0.22230  0.34246  0.48680  1.0000
  H   H89       1.0  0.21374  0.32506  0.48019  1.0000
  C   C110      1.0  0.99404  0.01714  0.25118  1.0000
  H   H90       1.0  0.20442  0.21216  0.99488  1.0000
  C   C111      1.0  0.99620  0.01069  0.00212  1.0000
  H   H91       1.0  0.25365  0.28300  0.48351  1.0000
  C   C112      1.0  0.27114  0.31787  0.48745  1.0000
  C   C113      1.0  0.16597  0.00545  0.47445  1.0000
  H   H92       1.0  0.01431  0.47773  0.99356  1.0000
  S   S14       1.0  0.24189  0.18902  0.99286  1.0000
  H   H93       1.0  0.32461  0.38396  0.10941  1.0000
  H   H94       1.0  0.16658  0.00256  0.44516  1.0000
  H   H95       1.0  0.03825  0.00044  0.03966  1.0000
  H   H96       1.0  0.20075  0.42277  0.49261  1.0000
  C   C114      1.0  0.15232  0.02066  0.48684  1.0000
  S   S15       1.0  0.20857  0.48043  0.99295  1.0000
  Fe  Fe9       1.0  0.21939  0.26906  0.56607  1.0000
  S   S16       1.0  0.23514  0.23720  0.60252  1.0000
  S   S17       1.0  0.23352  0.31016  0.55012  1.0000
  Fe  Fe10      1.0  0.18809  0.23206  0.57168  1.0000
  S   S18       1.0  0.20208  0.19810  0.60708  1.0000
  S   S19       1.0  0.16044  0.22430  0.55450  1.0000
  Fe  Fe11      1.0  0.21372  0.23561  0.63815  1.0000
  S   S20       1.0  0.21233  0.23604  0.70068  1.0000
  Fe  Fe12      1.0  0.22239  0.20166  0.56873  1.0000
  S   S21       1.0  0.23860  0.16159  0.55645  1.0000
  S   S22       1.0  0.19864  0.26965  0.60447  1.0000
  S   S23       1.0  0.20778  0.23347  0.53040  1.0000
  Fe  Fe13      1.0  0.06910  0.24417  0.64231  1.0000
  S   S24       1.0  0.05904  0.23829  0.69800  1.0000
  S   S25       1.0  0.09760  0.25021  0.64748  1.0000
  Fe  Fe14      1.0  0.03332  0.24383  0.60116  1.0000
  S   S26       1.0  0.02154  0.23809  0.65470  1.0000
  S   S27       1.0  0.02031  0.24748  0.54148  1.0000
  Fe  Fe15      1.0  0.03951  0.27199  0.67848  1.0000
  S   S28       1.0  0.02958  0.30997  0.71248  1.0000
  Fe  Fe16      1.0  0.04221  0.20491  0.67060  1.0000
  S   S29       1.0  0.03704  0.15821  0.69007  1.0000
  S   S30       1.0  0.05025  0.27957  0.62412  1.0000
  S   S31       1.0  0.05322  0.20899  0.61581  1.0000
  C   C115      1.0  0.23232  0.39950  0.98170  1.0000
  C   C116      1.0  0.99452  0.05492  0.82885  1.0000
  Fe  Fe17      1.0  0.27006  0.23423  0.88671  1.0000
  S   S32       1.0  0.24584  0.24214  0.91133  1.0000
  S   S33       1.0  0.27183  0.22199  0.82671  1.0000
  Fe  Fe18      1.0  0.29114  0.25126  0.95839  1.0000
  C   C117      1.0  0.28919  0.40088  0.98745  1.0000
  Fe  Fe19      1.0  0.25820  0.21861  0.96097  1.0000
  C   C118      1.0  0.06930  0.34400  0.65640  1.0000
  Fe  Fe20      1.0  0.25756  0.28240  0.93567  1.0000
  S   S34       1.0  0.24396  0.32604  0.92741  1.0000
  S   S35       1.0  0.28214  0.20819  0.93511  1.0000
  S   S36       1.0  0.28102  0.27597  0.90749  1.0000
  Fe  Fe21      1.0  0.05438  0.45371  0.83908  1.0000
  C   C119      1.0  0.17820  0.11659  0.56004  1.0000
  S   S37       1.0  0.06308  0.41023  0.81455  1.0000
  C   C120      1.0  0.06696  0.36263  0.62570  1.0000
  S   S38       1.0  0.06088  0.01926  0.90578  1.0000
  C   C121      1.0  0.16470  0.33188  0.58907  1.0000
  H   H97       1.0  0.00037  0.29638  0.58474  1.0000
  H   H98       1.0  0.05218  0.40033  0.88412  1.0000
  Fe  Fe22      1.0  0.05373  0.02593  0.84510  1.0000
  S   S39       1.0  0.05913  0.07277  0.82658  1.0000
  S   S40       1.0  0.05507  0.46270  0.90046  1.0000
  H   H99       1.0  0.23458  0.44077  0.58643  1.0000
  H   H100      1.0  0.27769  0.07408  0.88671  1.0000
  C   C122      1.0  0.05694  0.41006  0.68651  1.0000
  H   H101      1.0  0.03711  0.45870  0.73872  1.0000
  C   C123      1.0  0.29136  0.34974  0.97239  1.0000
  C   C124      1.0  0.20913  0.27870  0.95616  1.0000
  S   S41       1.0  0.31679  0.26821  0.98039  1.0000
  C   C125      1.0  0.19261  0.28486  0.94254  1.0000
  H   H102      1.0  0.14895  0.08982  0.57052  1.0000
  C   C126      1.0  0.13830  0.05090  0.64425  1.0000
  H   H103      1.0  0.20883  0.05614  0.91741  1.0000
  H   H104      1.0  0.07244  0.42820  0.60678  1.0000
  H   H105      1.0  0.99583  0.04435  0.92165  1.0000
  C   C127      1.0  0.27612  0.38339  0.92991  1.0000
  C   C128      1.0  0.23679  0.13295  0.52354  1.0000
  H   H106      1.0  0.02852  0.09358  0.85918  1.0000
  C   C129      1.0  0.23437  0.37878  0.95414  1.0000
  S   S42       1.0  0.02990  0.00105  0.84760  1.0000
  H   H107      1.0  0.18598  0.38799  0.52941  1.0000
  H   H108      1.0  0.23031  0.38408  0.92586  1.0000
  H   H109      1.0  0.18696  0.03592  0.87336  1.0000
  H   H110      1.0  0.15956  0.33969  0.61373  1.0000
  C   C130      1.0  0.24658  0.10347  0.96415  1.0000
  H   H111      1.0  0.25734  0.14420  0.94869  1.0000
  H   H112      1.0  0.25355  0.09062  0.94573  1.0000
  C   C131      1.0  0.04316  0.13506  0.72869  1.0000
  C   C132      1.0  0.03720  0.10641  0.72916  1.0000
  C   C133      1.0  0.04173  0.08716  0.75891  1.0000
  C   C134      1.0  0.05235  0.09629  0.78875  1.0000
  C   C135      1.0  0.05827  0.12496  0.78838  1.0000
  C   C136      1.0  0.05370  0.14421  0.75864  1.0000
  H   H113      1.0  0.02901  0.09906  0.70622  1.0000
  H   H114      1.0  0.03712  0.06521  0.75856  1.0000
  H   H115      1.0  0.06642  0.13234  0.81132  1.0000
  H   H116      1.0  0.05820  0.16620  0.75886  1.0000
  C   C137      1.0  0.03934  0.33794  0.74006  1.0000
  C   C138      1.0  0.02959  0.36180  0.75061  1.0000
  C   C139      1.0  0.03661  0.38404  0.77321  1.0000
  C   C140      1.0  0.05350  0.38275  0.78582  1.0000
  C   C141      1.0  0.06329  0.35902  0.77505  1.0000
  C   C142      1.0  0.05630  0.33680  0.75234  1.0000
  H   H117      1.0  0.01649  0.36311  0.74120  1.0000
  H   H118      1.0  0.02908  0.40240  0.78058  1.0000
  H   H119      1.0  0.07640  0.35778  0.78443  1.0000
  H   H120      1.0  0.06400  0.31865  0.74466  1.0000
  C   C143      1.0  0.04122  0.37594  0.92598  1.0000
  C   C144      1.0  0.14307  0.23235  0.58035  1.0000
  C   C145      1.0  0.14496  0.24520  0.61507  1.0000
  C   C146      1.0  0.13090  0.25046  0.63502  1.0000
  C   C147      1.0  0.11473  0.24336  0.62043  1.0000
  C   C148      1.0  0.11281  0.23117  0.58534  1.0000
  C   C149      1.0  0.12690  0.22554  0.56559  1.0000
  H   H121      1.0  0.15728  0.25082  0.62667  1.0000
  H   H122      1.0  0.13256  0.26011  0.66199  1.0000
  H   H123      1.0  0.10047  0.22601  0.57346  1.0000
  H   H124      1.0  0.12524  0.21588  0.53862  1.0000
  C   C150      1.0  0.23309  0.34056  0.51893  1.0000
  H   H125      1.0  0.12594  0.32495  0.90805  1.0000
  H   H126      1.0  0.25642  0.02612  0.54439  1.0000
  C   C151      1.0  0.18451  0.23823  0.96687  1.0000
  H   H127      1.0  0.16230  0.01503  0.57912  1.0000
  C   C152      1.0  0.22926  0.23409  0.73503  1.0000
  C   C153      1.0  0.22590  0.23568  0.77220  1.0000
  C   C154      1.0  0.23883  0.23252  0.80055  1.0000
  C   C155      1.0  0.25529  0.22780  0.79198  1.0000
  C   C156      1.0  0.25865  0.22646  0.75479  1.0000
  C   C157      1.0  0.24574  0.22990  0.72642  1.0000
  H   H128      1.0  0.21320  0.23909  0.77909  1.0000
  H   H129      1.0  0.23603  0.23314  0.82901  1.0000
  H   H130      1.0  0.27134  0.22271  0.74790  1.0000
  H   H131      1.0  0.24852  0.22869  0.69794  1.0000
  C   C158      1.0  0.15279  0.32160  0.91211  1.0000
  H   H132      1.0  0.24894  0.07715  0.85766  1.0000
  C   C159      1.0  0.21843  0.43418  0.53732  1.0000
  C   C160      1.0  0.14151  0.48716  0.97194  1.0000
  H   H133      1.0  0.12286  0.31369  0.84149  1.0000
  H   H134      1.0  0.15393  0.32665  0.94118  1.0000
  C   C161      1.0  0.28195  0.11998  0.88145  1.0000
  C   C162      1.0  0.02554  0.39765  0.87268  1.0000
  C   C163      1.0  0.19217  0.06482  0.82907  1.0000
  C   C164      1.0  0.19459  0.05349  0.86480  1.0000
  C   C165      1.0  0.20691  0.06480  0.88961  1.0000
  C   C166      1.0  0.21692  0.08724  0.87868  1.0000
  C   C167      1.0  0.21516  0.09775  0.84232  1.0000
  C   C168      1.0  0.20235  0.08701  0.81790  1.0000
  P   P6        1.0  0.22794  0.12715  0.82867  1.0000
  C   C169      1.0  0.21813  0.15982  0.84457  1.0000
  C   C170      1.0  0.24896  0.12401  0.84991  1.0000
  C   C171      1.0  0.25874  0.14892  0.85355  1.0000
  C   C172      1.0  0.20659  0.17616  0.82141  1.0000
  C   C173      1.0  0.19870  0.20087  0.83481  1.0000
  C   C174      1.0  0.20208  0.20910  0.87148  1.0000
  C   C175      1.0  0.21330  0.19258  0.89478  1.0000
  C   C176      1.0  0.22125  0.16803  0.88146  1.0000
  C   C177      1.0  0.23045  0.12721  0.77988  1.0000
  C   C178      1.0  0.23127  0.10083  0.76079  1.0000
  C   C179      1.0  0.23407  0.10076  0.72340  1.0000
  C   C180      1.0  0.23646  0.12695  0.70507  1.0000
  C   C181      1.0  0.23611  0.15316  0.72408  1.0000
  C   C182      1.0  0.23333  0.15332  0.76143  1.0000
  H   H135      1.0  0.18251  0.05614  0.81004  1.0000
  C   C183      1.0  0.11340  0.00267  0.96151  1.0000
  H   H136      1.0  0.26010  0.07540  0.49440  1.0000
  H   H137      1.0  0.22613  0.09611  0.89864  1.0000
  H   H138      1.0  0.20035  0.09556  0.79020  1.0000
  H   H139      1.0  0.25375  0.16999  0.84410  1.0000
  H   H140      1.0  0.20382  0.17010  0.79300  1.0000
  H   H141      1.0  0.19017  0.21392  0.81663  1.0000
  H   H142      1.0  0.19613  0.22832  0.88192  1.0000
  H   H143      1.0  0.21610  0.19891  0.92320  1.0000
  H   H144      1.0  0.22990  0.15555  0.90008  1.0000
  H   H145      1.0  0.23018  0.08026  0.77497  1.0000
  H   H146      1.0  0.23482  0.08038  0.70881  1.0000
  H   H147      1.0  0.23894  0.12704  0.67629  1.0000
  H   H148      1.0  0.23829  0.17337  0.70992  1.0000
  H   H149      1.0  0.23387  0.17374  0.77601  1.0000
  C   C184      1.0  0.17167  0.03262  0.94114  1.0000
  H   H150      1.0  0.00019  0.40441  0.78143  1.0000
  H   H151      1.0  0.02549  0.41013  0.84739  1.0000
  C   C185      1.0  0.16104  0.09081  0.93538  1.0000
  C   C186      1.0  0.15201  0.06950  0.91520  1.0000
  C   C187      1.0  0.15722  0.04023  0.91894  1.0000
  P   P7        1.0  0.13346  0.07972  0.88628  1.0000
  C   C188      1.0  0.11562  0.08154  0.91330  1.0000
  C   C189      1.0  0.13679  0.11456  0.86485  1.0000
  C   C190      1.0  0.12361  0.13487  0.85797  1.0000
  C   C191      1.0  0.12652  0.16223  0.84299  1.0000
  C   C192      1.0  0.14258  0.16956  0.83484  1.0000
  C   C193      1.0  0.15574  0.14938  0.84119  1.0000
  C   C194      1.0  0.15284  0.12187  0.85568  1.0000
  C   C195      1.0  0.09939  0.08165  0.89577  1.0000
  C   C196      1.0  0.08555  0.08264  0.91650  1.0000
  H   H152      1.0  0.17562  0.16337  0.56710  1.0000
  S   S43       1.0  0.02996  0.47769  0.82678  1.0000
  S   S44       1.0  0.06945  0.49316  0.82740  1.0000
  C   C197      1.0  0.12977  0.05274  0.85094  1.0000
  C   C198      1.0  0.12030  0.02820  0.85772  1.0000
  C   C199      1.0  0.00237  0.31932  0.79469  1.0000
  H   H153      1.0  0.22125  0.02455  0.63271  1.0000
  C   C200      1.0  0.13333  0.03473  0.78950  1.0000
  C   C201      1.0  0.13641  0.05573  0.81671  1.0000
  C   C202      1.0  0.17553  0.08309  0.95741  1.0000
  S   S45       1.0  0.00571  0.48759  0.91373  1.0000
  H   H154      1.0  0.10106  0.01261  0.95968  1.0000
  H   H155      1.0  0.15689  0.11337  0.93423  1.0000
  H   H156      1.0  0.15007  0.02313  0.90532  1.0000
  H   H157      1.0  0.11110  0.12994  0.86451  1.0000
  H   H158      1.0  0.11634  0.17795  0.83825  1.0000
  H   H159      1.0  0.14481  0.19091  0.82367  1.0000
  H   H160      1.0  0.16824  0.15511  0.83519  1.0000
  H   H161      1.0  0.16322  0.10652  0.86037  1.0000
  H   H162      1.0  0.09733  0.08070  0.86608  1.0000
  H   H163      1.0  0.07307  0.08257  0.90273  1.0000
  C   C203      1.0  0.27239  0.09496  0.87734  1.0000
  H   H164      1.0  0.01904  0.41787  0.63797  1.0000
  C   C204      1.0  0.19705  0.34853  0.98246  1.0000
  H   H165      1.0  0.11522  0.02507  0.88404  1.0000
  H   H166      1.0  0.10595  0.31100  0.63846  1.0000
  H   H167      1.0  0.19206  0.04809  0.97733  1.0000
  H   H168      1.0  0.02694  0.35178  0.96274  1.0000
  H   H169      1.0  0.14386  0.07426  0.81089  1.0000
  C   C205      1.0  0.01140  0.36953  0.91669  1.0000
  C   C206      1.0  0.13518  0.31415  0.85597  1.0000
  C   C207      1.0  0.14933  0.30862  0.83713  1.0000
  C   C208      1.0  0.16525  0.30972  0.85566  1.0000
  C   C209      1.0  0.16710  0.31662  0.89322  1.0000
  C   C210      1.0  0.09275  0.34358  0.60394  1.0000
  P   P8        1.0  0.18755  0.31850  0.91751  1.0000
  C   C211      1.0  0.20270  0.32425  0.88430  1.0000
  H   H170      1.0  0.28266  0.16625  0.87150  1.0000
  C   C212      1.0  0.17823  0.37463  0.93786  1.0000
  C   C213      1.0  0.17434  0.15224  0.51037  1.0000
  H   H171      1.0  0.12589  0.06085  0.59093  1.0000
  C   C214      1.0  0.07860  0.36183  0.59902  1.0000
  H   H172      1.0  0.17095  0.41808  0.95323  1.0000
  C   C215      1.0  0.20659  0.35255  0.87349  1.0000
  C   C216      1.0  0.21816  0.35683  0.84746  1.0000
  C   C217      1.0  0.22586  0.33294  0.83188  1.0000
  C   C218      1.0  0.22192  0.30474  0.84214  1.0000
  C   C219      1.0  0.21037  0.30035  0.86815  1.0000
  C   C220      1.0  0.09521  0.32568  0.63511  1.0000
  H   H173      1.0  0.13829  0.03718  0.76301  1.0000
  H   H174      1.0  0.08498  0.31088  0.68450  1.0000
  H   H175      1.0  0.02148  0.35961  0.66004  1.0000
  C   C221      1.0  0.02631  0.43964  0.68851  1.0000
  C   C222      1.0  0.20475  0.41922  0.52143  1.0000
  C   C223      1.0  0.28224  0.35536  0.93873  1.0000
  C   C224      1.0  0.22392  0.42924  0.57423  1.0000
  H   H176      1.0  0.14798  0.30379  0.80801  1.0000
  H   H177      1.0  0.17603  0.30555  0.84047  1.0000
  H   H178      1.0  0.27696  0.44245  0.49618  1.0000
  H   H179      1.0  0.17106  0.37610  0.91145  1.0000
  C   C225      1.0  0.06274  0.42996  0.58437  1.0000
  H   H180      1.0  0.22968  0.05414  0.54178  1.0000
  S   S46       1.0  0.23286  0.05142  0.98240  1.0000
  C   C226      1.0  0.24491  0.01596  0.53430  1.0000
  H   H181      1.0  0.20104  0.37139  0.88560  1.0000
  H   H182      1.0  0.22149  0.37870  0.84010  1.0000
  H   H183      1.0  0.23516  0.33623  0.81248  1.0000
  H   H184      1.0  0.22823  0.28632  0.83068  1.0000
  H   H185      1.0  0.20772  0.27833  0.87610  1.0000
  H   H186      1.0  0.00135  0.32093  0.64541  1.0000
  H   H187      1.0  0.05994  0.34301  0.67607  1.0000
  C   C227      1.0  0.17925  0.09446  0.53389  1.0000
  C   C228      1.0  0.03903  0.44392  0.71631  1.0000
  C   C229      1.0  0.19172  0.16841  0.68774  1.0000
  C   C230      1.0  0.17795  0.18747  0.68282  1.0000
  C   C231      1.0  0.16475  0.18119  0.65702  1.0000
  C   C232      1.0  0.16572  0.15678  0.63467  1.0000
  C   C233      1.0  0.17989  0.13835  0.63801  1.0000
  C   C234      1.0  0.19262  0.14371  0.66574  1.0000
  P   P9        1.0  0.18098  0.10718  0.60836  1.0000
  C   C235      1.0  0.16468  0.08376  0.62133  1.0000
  C   C236      1.0  0.21509  0.01903  0.51856  1.0000
  C   C237      1.0  0.11728  0.00727  0.83054  1.0000
  C   C238      1.0  0.18087  0.05403  0.96014  1.0000
  P   P10       1.0  0.04796  0.38415  0.61866  1.0000
  H   H188      1.0  0.02557  0.40092  0.55309  1.0000
  H   H189      1.0  0.13248  0.44573  0.95243  1.0000
  C   C239      1.0  0.21958  0.04749  0.62600  1.0000
  C   C240      1.0  0.15258  0.05484  0.66806  1.0000
  C   C241      1.0  0.16564  0.07153  0.65683  1.0000
  C   C242      1.0  0.20142  0.09000  0.61389  1.0000
  C   C243      1.0  0.20359  0.06033  0.62306  1.0000
  H   H190      1.0  0.06898  0.39926  0.68615  1.0000
  C   C244      1.0  0.23344  0.06404  0.61933  1.0000
  C   C245      1.0  0.23129  0.09332  0.60921  1.0000
  C   C246      1.0  0.21537  0.10623  0.60636  1.0000
  H   H191      1.0  0.20200  0.17359  0.70753  1.0000
  H   H192      1.0  0.17766  0.20733  0.69864  1.0000
  H   H193      1.0  0.15398  0.19573  0.65346  1.0000
  H   H194      1.0  0.15569  0.15301  0.61378  1.0000
  H   H195      1.0  0.20350  0.12957  0.66966  1.0000
  H   H196      1.0  0.13006  0.08140  0.96631  1.0000
  H   H197      1.0  0.22661  0.42051  0.97462  1.0000
  H   H198      1.0  0.07661  0.37464  0.57401  1.0000
  Fe  Fe23      1.0  0.03115  0.48907  0.88736  1.0000
  H   H199      1.0  0.27950  0.33781  0.91973  1.0000
  H   H200      1.0  0.15346  0.04510  0.69529  1.0000
  H   H201      1.0  0.17648  0.07509  0.67583  1.0000
  H   H202      1.0  0.19303  0.04690  0.62722  1.0000
  H   H203      1.0  0.25261  0.36238  0.55138  1.0000
  C   C247      1.0  0.13691  0.32053  0.89348  1.0000
  H   H204      1.0  0.24193  0.10605  0.60280  1.0000
  H   H205      1.0  0.21393  0.12887  0.59774  1.0000
  C   C248      1.0  0.09466  0.16942  0.61341  1.0000
  C   C249      1.0  0.10660  0.15774  0.59179  1.0000
  C   C250      1.0  0.12023  0.14189  0.60827  1.0000
  C   C251      1.0  0.12206  0.13803  0.64650  1.0000
  C   C252      1.0  0.11025  0.15029  0.66853  1.0000
  C   C253      1.0  0.09637  0.16563  0.65158  1.0000
  P   P11       1.0  0.11223  0.14483  0.71783  1.0000
  C   C254      1.0  0.10081  0.11304  0.72947  1.0000
  C   C255      1.0  0.13413  0.14025  0.73283  1.0000
  C   C256      1.0  0.14173  0.11241  0.73395  1.0000
  C   C257      1.0  0.15882  0.10898  0.74423  1.0000
  C   C258      1.0  0.16844  0.13331  0.75311  1.0000
  C   C259      1.0  0.16098  0.16101  0.75206  1.0000
  C   C260      1.0  0.14394  0.16454  0.74169  1.0000
  C   C261      1.0  0.10468  0.09857  0.76328  1.0000
  C   C262      1.0  0.09557  0.07439  0.77266  1.0000
  C   C263      1.0  0.08261  0.06446  0.74846  1.0000
  C   C264      1.0  0.07851  0.07902  0.71510  1.0000
  C   C265      1.0  0.08749  0.10331  0.70567  1.0000
  C   C266      1.0  0.10392  0.17652  0.73974  1.0000
  C   C267      1.0  0.09448  0.17353  0.77021  1.0000
  C   C268      1.0  0.08771  0.19812  0.78634  1.0000
  C   C269      1.0  0.09037  0.22585  0.77231  1.0000
  C   C270      1.0  0.09986  0.22902  0.74220  1.0000
  C   C271      1.0  0.10657  0.20450  0.72591  1.0000
  H   H206      1.0  0.08416  0.18185  0.60054  1.0000
  H   H207      1.0  0.10532  0.16127  0.56227  1.0000
  H   H208      1.0  0.12941  0.13291  0.59124  1.0000
  H   H209      1.0  0.13272  0.12569  0.65866  1.0000
  H   H210      1.0  0.08686  0.17486  0.66773  1.0000
  H   H211      1.0  0.13451  0.09345  0.72626  1.0000
  H   H212      1.0  0.16464  0.08753  0.74486  1.0000
  H   H213      1.0  0.18172  0.13090  0.76029  1.0000
  H   H214      1.0  0.16847  0.17991  0.75864  1.0000
  H   H215      1.0  0.13857  0.18630  0.74023  1.0000
  H   H216      1.0  0.11440  0.10643  0.78276  1.0000
  H   H217      1.0  0.09809  0.06376  0.79920  1.0000
  H   H218      1.0  0.07520  0.04635  0.75641  1.0000
  H   H219      1.0  0.06789  0.07219  0.69720  1.0000
  H   H220      1.0  0.08365  0.11478  0.68026  1.0000
  H   H221      1.0  0.09191  0.15231  0.78110  1.0000
  H   H222      1.0  0.07994  0.19559  0.80901  1.0000
  H   H223      1.0  0.08466  0.24483  0.78400  1.0000
  H   H224      1.0  0.10146  0.25043  0.73044  1.0000
  H   H225      1.0  0.11348  0.20743  0.70190  1.0000
  C   C272      1.0  0.03187  0.35823  0.60710  1.0000
  C   C273      1.0  0.05432  0.42917  0.71524  1.0000
  C   C274      1.0  0.21330  0.25267  0.97505  1.0000
  C   C275      1.0  0.18691  0.32975  0.54817  1.0000
  C   C276      1.0  0.17996  0.34218  0.57856  1.0000
  C   C277      1.0  0.16287  0.29924  0.53709  1.0000
  P   P12       1.0  0.19176  0.36795  0.60668  1.0000
  C   C278      1.0  0.17823  0.39021  0.63241  1.0000
  C   C279      1.0  0.20601  0.34616  0.63680  1.0000
  C   C280      1.0  0.20010  0.33107  0.66656  1.0000
  C   C281      1.0  0.21079  0.31246  0.68846  1.0000
  C   C282      1.0  0.22734  0.30829  0.68035  1.0000
  C   C283      1.0  0.23324  0.32292  0.65049  1.0000
  C   C284      1.0  0.22264  0.34181  0.62882  1.0000
  C   C285      1.0  0.16306  0.40113  0.61543  1.0000
  C   C286      1.0  0.15261  0.41878  0.63504  1.0000
  C   C287      1.0  0.15736  0.42599  0.67152  1.0000
  C   C288      1.0  0.17263  0.41579  0.68830  1.0000
  C   C289      1.0  0.18311  0.39813  0.66876  1.0000
  C   C290      1.0  0.20232  0.39345  0.57915  1.0000
  C   C291      1.0  0.00093  0.48041  0.98895  1.0000
  C   C292      1.0  0.25601  0.09686  0.86118  1.0000
  C   C293      1.0  0.21582  0.40914  0.59518  1.0000
  H   H226      1.0  0.01975  0.31069  0.53903  1.0000
  C   C294      1.0  0.04072  0.39215  0.89340  1.0000
  H   H227      1.0  0.14086  0.42697  0.62190  1.0000
  H   H228      1.0  0.19915  0.33597  0.54111  1.0000
  H   H229      1.0  0.04042  0.34875  0.55360  1.0000
  H   H230      1.0  0.18714  0.33307  0.67224  1.0000
  H   H231      1.0  0.20614  0.30031  0.71091  1.0000
  H   H232      1.0  0.23543  0.29304  0.69655  1.0000
  H   H233      1.0  0.24588  0.31888  0.64327  1.0000
  H   H234      1.0  0.22732  0.35205  0.60505  1.0000
  H   H235      1.0  0.15934  0.39604  0.58701  1.0000
  C   C295      1.0  0.02655  0.36460  0.93764  1.0000
  C   C296      1.0  0.24169  0.35134  0.96295  1.0000
  H   H236      1.0  0.17641  0.42171  0.71642  1.0000
  H   H237      1.0  0.19504  0.39089  0.68199  1.0000
  C   C297      1.0  0.00885  0.31411  0.59074  1.0000
  C   C298      1.0  0.19662  0.39912  0.54229  1.0000
  H   H238      1.0  0.22018  0.40564  0.62378  1.0000
  C   C299      1.0  0.04927  0.41092  0.58263  1.0000
  C   C300      1.0  0.18763  0.34932  0.94825  1.0000
  H   H239      1.0  0.26165  0.11627  0.53887  1.0000
  H   H240      1.0  0.24580  0.05401  0.62093  1.0000
  H   H241      1.0  0.29587  0.32772  0.97870  1.0000
  C   C301      1.0  0.22983  0.03165  0.53313  1.0000
  C   C302      1.0  0.99364  0.48497  0.95308  1.0000
  C   C303      1.0  0.11774  0.08215  0.95190  1.0000
  H   H242      1.0  0.15636  0.28240  0.52133  1.0000
  C   C304      1.0  0.13711  0.06350  0.60913  1.0000
  C   C305      1.0  0.17591  0.14559  0.54796  1.0000
  H   H243      1.0  0.27491  0.42795  0.94732  1.0000
  C   C306      1.0  0.08344  0.32576  0.66121  1.0000
  C   C307      1.0  0.01984  0.32216  0.56492  1.0000
  H   H244      1.0  0.21173  0.14356  0.50196  1.0000
  H   H245      1.0  0.14035  0.03581  0.53393  1.0000
  C   C308      1.0  0.02888  0.42056  0.65971  1.0000
  H   H246      1.0  0.18388  0.29886  0.50412  1.0000
  C   C309      1.0  0.27518  0.14687  0.86917  1.0000
  C   C310      1.0  0.20102  0.23240  0.98036  1.0000
  H   H247      1.0  0.01271  0.30396  0.79323  1.0000
  H   H248      1.0  0.14926  0.43969  0.68670  1.0000
  C   C311      1.0  0.12971  0.46881  0.95380  1.0000
  C   C312      1.0  0.04419  0.40552  0.65857  1.0000
  C   C313      1.0  0.02081  0.35005  0.63293  1.0000
  C   C314      1.0  0.10383  0.08290  0.97254  1.0000
  C   C315      1.0  0.27966  0.40620  0.95419  1.0000
  H   H249      1.0  0.22612  0.24816  0.98551  1.0000
  H   H250      1.0  0.17500  0.22250  0.97117  1.0000
  C   C316      1.0  0.08775  0.08310  0.95486  1.0000
  H   H251      1.0  0.29465  0.11855  0.89390  1.0000
  C   C317      1.0  0.99888  0.05280  0.89531  1.0000
  C   C318      1.0  0.00935  0.32803  0.62474  1.0000
  H   H252      1.0  0.01456  0.45144  0.68901  1.0000
  C   C319      1.0  0.03646  0.41444  0.55427  1.0000
  H   H253      1.0  0.02760  0.43850  0.50536  1.0000
  C   C320      1.0  0.24877  0.13384  0.96581  1.0000
  C   C321      1.0  0.23989  0.15066  0.98971  1.0000
  C   C322      1.0  0.01073  0.38660  0.88441  1.0000
  H   H254      1.0  0.20378  0.03221  0.51627  1.0000
  H   H255      1.0  0.17554  0.00997  0.94441  1.0000
  H   H256      1.0  0.14442  0.30254  0.57635  1.0000
  C   C323      1.0  0.15612  0.31070  0.56811  1.0000
  S   S47       1.0  0.26791  0.26002  0.98764  1.0000
  C   C324      1.0  0.01284  0.07031  0.89403  1.0000
  H   H257      1.0  0.10159  0.34266  0.58313  1.0000
  H   H258      1.0  0.18152  0.07205  0.54257  1.0000
  H   H259      1.0  0.01347  0.34011  0.84254  1.0000
  H   H260      1.0  0.02031  0.07523  0.91920  1.0000
  C   C325      1.0  0.03147  0.34381  0.57324  1.0000
  C   C326      1.0  0.12594  0.01268  0.98747  1.0000
  C   C327      1.0  0.12373  0.01055  0.79640  1.0000
  C   C328      1.0  0.15026  0.07982  0.59761  1.0000
  C   C329      1.0  0.17832  0.30860  0.52728  1.0000
  S   S48       1.0  0.02122  0.00469  0.95472  1.0000
  C   C330      1.0  0.23554  0.08958  0.98627  1.0000
  C   C331      1.0  0.05111  0.45445  0.52878  1.0000
  C   C332      1.0  0.03747  0.43598  0.52728  1.0000
  H   H261      1.0  0.26848  0.38725  0.90440  1.0000
  H   H262      1.0  0.05182  0.47123  0.50796  1.0000
  C   C333      1.0  0.06370  0.45151  0.55741  1.0000
  C   C334      1.0  0.00073  0.24528  0.51344  1.0000
  H   H263      1.0  0.21883  0.29407  0.95231  1.0000
  H   H264      1.0  0.10544  0.46546  0.92371  1.0000
  C   C335      1.0  0.24423  0.36344  0.52663  1.0000
  H   H265      1.0  0.22494  0.44918  0.52072  1.0000
  H   H266      1.0  0.12808  0.03825  0.65306  1.0000
  H   H267      1.0  0.00025  0.35986  0.92566  1.0000
  H   H268      1.0  0.05301  0.37202  0.94198  1.0000
  H   H269      1.0  0.07413  0.46612  0.55890  1.0000
  H   H270      1.0  0.17269  0.17477  0.50141  1.0000
  H   H271      1.0  0.06412  0.43240  0.73700  1.0000
  C   C336      1.0  0.01753  0.08043  0.86025  1.0000
  H   H272      1.0  0.18258  0.09950  0.97280  1.0000
  C   C337      1.0  0.25034  0.11332  0.52122  1.0000
  C   C338      1.0  0.18028  0.26438  0.94807  1.0000
  H   H273      1.0  0.16743  0.26843  0.93799  1.0000
  C   C339      1.0  0.24464  0.38776  0.50275  1.0000
  C   C340      1.0  0.17815  0.39853  0.96136  1.0000
  C   C341      1.0  0.11432  0.47994  0.93746  1.0000
  C   C342      1.0  0.00836  0.07276  0.82767  1.0000
  H   H274      1.0  0.07697  0.08327  0.97081  1.0000
  H   H275      1.0  0.27241  0.31726  0.51727  1.0000
  H   H276      1.0  0.30486  0.46446  0.49539  1.0000
  H   H277      1.0  0.25310  0.40523  0.50964  1.0000
  C   C343      1.0  0.00272  0.34000  0.82267  1.0000
  C   C344      1.0  0.15103  0.02425  0.52451  1.0000
  C   C345      1.0  0.99573  0.42419  0.79355  1.0000
  H   H278      1.0  0.99923  0.44981  0.74526  1.0000
  H   H279      1.0  0.01231  0.08006  0.80149  1.0000
  C   C346      1.0  0.16339  0.01256  0.54990  1.0000
  S   S49       1.0  0.16065  0.47144  0.99219  1.0000
  C   C347      1.0  0.99512  0.44993  0.77274  1.0000
  C   C348      1.0  0.14203  0.99982  0.99062  1.0000
  C   C349      1.0  0.24952  0.09011  0.49595  1.0000
  C   C350      1.0  0.22226  0.12876  0.50050  1.0000
  C   C351      1.0  0.17777  0.10120  0.49630  1.0000
  H   H280      1.0  0.20479  0.32982  0.99101  1.0000
  C   C352      1.0  0.17578  0.68827  0.48885  1.0000
  S   S50       1.0  0.27256  0.95097  0.38502  1.0000
  P   P13       1.0  0.30018  0.62604  0.04825  1.0000
  Fe  Fe24      1.0  0.24366  0.53003  0.42178  1.0000
  C   C353      1.0  0.13459  0.91312  0.16911  1.0000
  S   S51       1.0  0.22776  0.57068  0.43384  1.0000
  Fe  Fe25      1.0  0.26167  0.95525  0.43980  1.0000
  H   H281      1.0  0.29758  0.81883  0.33477  1.0000
  C   C354      1.0  0.02280  0.97059  0.06639  1.0000
  S   S52       1.0  0.19566  0.97422  0.08654  1.0000
  H   H282      1.0  0.20101  0.63814  0.10687  1.0000
  S   S53       1.0  0.26358  0.53342  0.38188  1.0000
  H   H283      1.0  0.27732  0.79405  0.37083  1.0000
  C   C355      1.0  0.28798  0.72374  0.42698  1.0000
  H   H284      1.0  0.18825  0.72578  0.46954  1.0000
  C   C356      1.0  0.17715  0.91795  0.02173  1.0000
  Fe  Fe26      1.0  0.21566  0.96082  0.04973  1.0000
  S   S54       1.0  0.22560  0.91426  0.05912  1.0000
  Fe  Fe27      1.0  0.21705  0.52291  0.01813  1.0000
  C   C357      1.0  0.22562  0.96359  0.23484  1.0000
  C   C358      1.0  0.26221  0.95117  0.11383  1.0000
  S   S55       1.0  0.19282  0.53193  0.04320  1.0000
  C   C359      1.0  0.22196  0.97900  0.20143  1.0000
  C   C360      1.0  0.28084  0.57598  0.04701  1.0000
  S   S56       1.0  0.22995  0.50166  0.06866  1.0000
  C   C361      1.0  0.26895  0.55765  0.06019  1.0000
  C   C362      1.0  0.26481  0.97192  0.18592  1.0000
  H   H285      1.0  0.26870  0.97001  0.27749  1.0000
  C   C363      1.0  0.29739  0.85858  0.36643  1.0000
  Fe  Fe28      1.0  0.27803  0.50068  0.41867  1.0000
  C   C364      1.0  0.27286  0.66313  0.37164  1.0000
  H   H286      1.0  0.22848  0.58646  0.04998  1.0000
  H   H287      1.0  0.23390  0.63834  0.06450  1.0000
  S   S57       1.0  0.23541  0.95781  0.30867  1.0000
  C   C365      1.0  0.12761  0.85755  0.14188  1.0000
  H   H288      1.0  0.13686  0.93473  0.17982  1.0000
  H   H289      1.0  0.30419  0.97694  0.13879  1.0000
  H   H290      1.0  0.31442  0.94273  0.33699  1.0000
  C   C366      1.0  0.29831  0.62843  0.99863  1.0000
  C   C367      1.0  0.21361  0.52404  0.22471  1.0000
  C   C368      1.0  0.23799  0.86145  0.03819  1.0000
  H   H291      1.0  0.22446  0.94019  0.23540  1.0000
  C   C369      1.0  0.25944  0.62261  0.33988  1.0000
  H   H292      1.0  0.22180  0.52443  0.28285  1.0000
  H   H293      1.0  0.32243  0.64807  0.99570  1.0000
  S   S58       1.0  0.24136  0.68749  0.01979  1.0000
  Fe  Fe29      1.0  0.28321  0.99543  0.39560  1.0000
  C   C370      1.0  0.25686  0.94567  0.17772  1.0000
  C   C371      1.0  0.23610  0.88089  0.46582  1.0000
  H   H294      1.0  0.02120  0.82203  0.47026  1.0000
  C   C372      1.0  0.16854  0.95276  0.16047  1.0000
  H   H295      1.0  0.23325  0.89405  0.44131  1.0000
  C   C373      1.0  0.22900  0.59597  0.47093  1.0000
  H   H296      1.0  0.26010  0.91882  0.27101  1.0000
  H   H297      1.0  0.16999  0.88319  0.11617  1.0000
  H   H298      1.0  0.24557  0.59449  0.37314  1.0000
  H   H299      1.0  0.28627  0.61488  0.45112  1.0000
  H   H300      1.0  0.00510  0.94674  0.09534  1.0000
  H   H301      1.0  0.11907  0.84846  0.19517  1.0000
  P   P14       1.0  0.19642  0.97456  0.48458  1.0000
  H   H302      1.0  0.19619  0.88468  0.01850  1.0000
  H   H303      1.0  0.12477  0.83611  0.13122  1.0000
  C   C374      1.0  0.29203  0.72066  0.08501  1.0000
  C   C375      1.0  0.20069  0.98852  0.36020  1.0000
  C   C376      1.0  0.23786  0.69232  0.43865  1.0000
  C   C377      1.0  0.11804  0.96820  0.08869  1.0000
  C   C378      1.0  0.12780  0.89233  0.19143  1.0000
  C   C379      1.0  0.18079  0.92101  0.47973  1.0000
  C   C380      1.0  0.17480  0.60768  0.46188  1.0000
  H   H304      1.0  0.18463  0.59688  0.08092  1.0000
  H   H305      1.0  0.28274  0.62580  0.11596  1.0000
  C   C381      1.0  0.18414  0.58397  0.45032  1.0000
  C   C382      1.0  0.29708  0.66283  0.06358  1.0000
  C   C383      1.0  0.26671  0.65412  0.40474  1.0000
  C   C384      1.0  0.01143  0.96721  0.09297  1.0000
  C   C385      1.0  0.09967  0.96599  0.03272  1.0000
  Fe  Fe30      1.0  0.20532  0.50756  0.09265  1.0000
  S   S59       1.0  0.30550  0.51039  0.43514  1.0000
  C   C386      1.0  0.00751  0.99062  0.11516  1.0000
  C   C387      1.0  0.23495  0.63061  0.03685  1.0000
  C   C388      1.0  0.13441  0.87829  0.11951  1.0000
  H   H306      1.0  0.99495  0.79113  0.44277  1.0000
  C   C389      1.0  0.31756  0.94249  0.23022  1.0000
  C   C390      1.0  0.18202  0.61478  0.02588  1.0000
  C   C391      1.0  0.21997  0.62260  0.46699  1.0000
  C   C392      1.0  0.19532  0.66095  0.01764  1.0000
  C   C393      1.0  0.18378  0.88090  0.06838  1.0000
  H   H307      1.0  0.15831  0.94942  0.03344  1.0000
  H   H308      1.0  0.29322  0.89525  0.40181  1.0000
  C   C394      1.0  0.21659  0.51345  0.18967  1.0000
  H   H309      1.0  0.30814  0.88042  0.25724  1.0000
  H   H310      1.0  0.26587  0.71065  0.08115  1.0000
  C   C395      1.0  0.27896  0.60693  0.10002  1.0000
  C   C396      1.0  0.29268  0.83002  0.35765  1.0000
  C   C397      1.0  0.23193  0.60117  0.02873  1.0000
  C   C398      1.0  0.15209  0.69913  0.42959  1.0000
  H   H311      1.0  0.21250  0.62732  0.44155  1.0000
  C   C399      1.0  0.23093  0.97820  0.26737  1.0000
  H   H312      1.0  0.24865  0.91574  0.13490  1.0000
  H   H313      1.0  0.30465  0.94956  0.23081  1.0000
  H   H314      1.0  0.32268  0.77416  0.02261  1.0000
  H   H315      1.0  0.25131  0.93372  0.19912  1.0000
  P   P15       1.0  0.27142  0.67392  0.44686  1.0000
  C   C400      1.0  0.24294  0.74085  0.48373  1.0000
  C   C401      1.0  0.23909  0.65013  0.00937  1.0000
  C   C402      1.0  0.13823  0.90605  0.13321  1.0000
  C   C403      1.0  0.17787  0.97391  0.17982  1.0000
  C   C404      1.0  0.29262  0.95902  0.30549  1.0000
  H   H316      1.0  0.17188  0.62554  0.44283  1.0000
  H   H317      1.0  0.00503  0.86853  0.47189  1.0000
  C   C405      1.0  0.32375  0.84561  0.24029  1.0000
  C   C406      1.0  0.27418  0.83022  0.40696  1.0000
  C   C407      1.0  0.16170  0.91663  0.07619  1.0000
  C   C408      1.0  0.19794  0.95574  0.41167  1.0000
  C   C409      1.0  0.19950  0.96029  0.37411  1.0000
  H   H318      1.0  0.18663  0.96768  0.20284  1.0000
  H   H319      1.0  0.13952  0.66181  0.44839  1.0000
  C   C410      1.0  0.15015  0.67572  0.45349  1.0000
  C   C411      1.0  0.27720  0.95255  0.28737  1.0000
  H   H320      1.0  0.00779  0.57059  0.02354  1.0000
  C   C412      1.0  0.29015  0.87291  0.39522  1.0000
  H   H321      1.0  0.30067  0.76255  0.41249  1.0000
  C   C413      1.0  0.31945  0.85583  0.30418  1.0000
  H   H322      1.0  0.25198  0.62190  0.43008  1.0000
  H   H323      1.0  0.03293  0.66636  0.03752  1.0000
  C   C414      1.0  0.27234  0.92366  0.28393  1.0000
  H   H324      1.0  0.09597  0.99522  0.07726  1.0000
  C   C415      1.0  0.28962  0.69579  0.44294  1.0000
  C   C416      1.0  0.28548  0.60138  0.06614  1.0000
  C   C417      1.0  0.27036  0.97723  0.12198  1.0000
  S   S60       1.0  0.23267  0.99717  0.06771  1.0000
  H   H325      1.0  0.21687  0.75064  0.47098  1.0000
  H   H326      1.0  0.21629  0.85063  0.45257  1.0000
  H   H327      1.0  0.17973  0.92832  0.99612  1.0000
  H   H328      1.0  0.19809  0.93362  0.42195  1.0000
  H   H329      1.0  0.20066  0.94191  0.35598  1.0000
  H   H330      1.0  0.24785  0.81953  0.02267  1.0000
  C   C418      1.0  0.31624  0.86232  0.26653  1.0000
  C   C419      1.0  0.10971  0.94387  0.01974  1.0000
  H   H331      1.0  0.26067  0.94351  0.08570  1.0000
  H   H332      1.0  0.28607  0.57062  0.02144  1.0000
  H   H333      1.0  0.26188  0.59314  0.13901  1.0000
  C   C420      1.0  0.22651  0.85613  0.47226  1.0000
  C   C421      1.0  0.23352  0.59086  0.99321  1.0000
  C   C422      1.0  0.31063  0.68159  0.06886  1.0000
  S   S61       1.0  0.27194  0.75223  0.00470  1.0000
  H   H334      1.0  0.13663  0.87274  0.09149  1.0000
  H   H335      1.0  0.26510  0.81951  0.42253  1.0000
  H   H336      1.0  0.17033  0.93013  0.16860  1.0000
  C   C423      1.0  0.10379  0.97809  0.06724  1.0000
  S   S62       1.0  0.23800  0.97618  0.41505  1.0000
  C   C424      1.0  0.20042  0.66132  0.05521  1.0000
  C   C425      1.0  0.19661  0.63824  0.07798  1.0000
  C   C426      1.0  0.18742  0.61497  0.06332  1.0000
  S   S63       1.0  0.20306  0.52443  0.15078  1.0000
  H   H337      1.0  0.31272  0.91513  0.18308  1.0000
  H   H338      1.0  0.27019  0.66010  0.06175  1.0000
  H   H339      1.0  0.26473  0.53892  0.04432  1.0000
  C   C427      1.0  0.28113  0.81590  0.37796  1.0000
  H   H340      1.0  0.13148  0.91668  0.03046  1.0000
  C   C428      1.0  0.99594  0.56898  0.00739  1.0000
  H   H341      1.0  0.30724  0.66346  0.46748  1.0000
  H   H342      1.0  0.21812  0.96748  0.17648  1.0000
  H   H343      1.0  0.32122  0.85065  0.21127  1.0000
  P   P16       1.0  0.31105  0.87841  0.33882  1.0000
  C   C429      1.0  0.22456  0.71141  0.44424  1.0000
  H   H344      1.0  0.23551  0.67356  0.42143  1.0000
  C   C430      1.0  0.27871  0.85870  0.41554  1.0000
  C   C431      1.0  0.25319  0.61369  0.37262  1.0000
  C   C432      1.0  0.26926  0.64736  0.33936  1.0000
  H   H345      1.0  0.29621  0.98141  0.30879  1.0000
  C   C433      1.0  0.27172  0.98783  0.15814  1.0000
  C   C434      1.0  0.27844  0.70235  0.07876  1.0000
  C   C435      1.0  0.30303  0.93679  0.32121  1.0000
  H   H346      1.0  0.27583  0.73234  0.41669  1.0000
  H   H347      1.0  0.27413  0.65420  0.31394  1.0000
  H   H348      1.0  0.20794  0.67904  0.06628  1.0000
  C   C436      1.0  0.18644  0.89336  0.03436  1.0000
  C   C437      1.0  0.17766  0.71170  0.46495  1.0000
  H   H349      1.0  0.23730  0.85517  0.06664  1.0000
  C   C438      1.0  0.15738  0.96073  0.13024  1.0000
  C   C439      1.0  0.25683  0.62930  0.40491  1.0000
  C   C440      1.0  0.32214  0.92316  0.20325  1.0000
  H   H350      1.0  0.99826  0.98760  0.13465  1.0000
  H   H351      1.0  0.26510  0.98006  0.21364  1.0000
  H   H352      1.0  0.32321  0.87219  0.41784  1.0000
  H   H353      1.0  0.19893  0.67871  0.00062  1.0000
  C   C441      1.0  0.12399  0.93401  0.04102  1.0000
  C   C442      1.0  0.12846  0.94653  0.07539  1.0000
  S   S64       1.0  0.26245  0.91876  0.48386  1.0000
  H   H354      1.0  0.12094  0.97750  0.11558  1.0000
  H   H355      1.0  0.17474  0.59666  0.01533  1.0000
  C   C443      1.0  0.16498  0.92976  0.04280  1.0000
  H   H356      1.0  0.20308  0.53860  0.22754  1.0000
  H   H357      1.0  0.29003  0.74314  0.09250  1.0000
  C   C444      1.0  0.18616  0.63758  0.00254  1.0000
  C   C445      1.0  0.23296  0.88976  0.02654  1.0000
  P   P17       1.0  0.14647  0.93293  0.10377  1.0000
  H   H358      1.0  0.31035  0.56793  0.17296  1.0000
  C   C446      1.0  0.12437  0.86452  0.17788  1.0000
  C   C447      1.0  0.22423  0.51609  0.25612  1.0000
  C   C448      1.0  0.22712  0.73572  0.46664  1.0000
  H   H359      1.0  0.27529  0.98938  0.09988  1.0000
  C   C449      1.0  0.25387  0.69747  0.45542  1.0000
  H   H360      1.0  0.12512  0.89784  0.21919  1.0000
  H   H361      1.0  0.03121  0.61647  0.01316  1.0000
  H   H362      1.0  0.28051  0.68215  0.37062  1.0000
  C   C450      1.0  0.29830  0.90766  0.31766  1.0000
  H   H363      1.0  0.19160  0.86271  0.07879  1.0000
  C   C451      1.0  0.25540  0.93546  0.14164  1.0000
  C   C452      1.0  0.19733  0.97957  0.43555  1.0000
  H   H364      1.0  0.17026  0.50999  0.19031  1.0000
  H   H365      1.0  0.21226  0.70722  0.43130  1.0000
  C   C453      1.0  0.31782  0.73008  0.43717  1.0000
  H   H366      1.0  0.02537  0.95271  0.04836  1.0000
  C   C454      1.0  0.26723  0.58836  0.11336  1.0000
  Fe  Fe31      1.0  0.24946  0.97505  0.36094  1.0000
  H   H367      1.0  0.25672  0.61021  0.31501  1.0000
  S   S65       1.0  0.20367  0.98569  0.00039  1.0000
  C   C455      1.0  0.24396  0.84120  0.01333  1.0000
  H   H368      1.0  0.27315  0.87002  0.43765  1.0000
  H   H369      1.0  0.08878  0.97387  0.01576  1.0000
  H   H370      1.0  0.16724  0.73552  0.41715  1.0000
  H   H371      1.0  0.27869  0.87901  0.29685  1.0000
  H   H372      1.0  0.31038  0.54045  0.11477  1.0000
  C   C456      1.0  0.26209  0.56391  0.09326  1.0000
  H   H373      1.0  0.16911  0.87923  0.47388  1.0000
  C   C457      1.0  0.28093  0.67364  0.06776  1.0000
  C   C458      1.0  0.28284  0.90126  0.29894  1.0000
  C   C459      1.0  0.30202  0.74086  0.42434  1.0000
  H   H374      1.0  0.18847  0.58381  0.42294  1.0000
  C   C460      1.0  0.30556  0.68503  0.45545  1.0000
  C   C461      1.0  0.16187  0.67041  0.48366  1.0000
  H   H375      1.0  0.25267  0.54996  0.10316  1.0000
  C   C462      1.0  0.17153  0.89259  0.08942  1.0000
  C   C463      1.0  0.16580  0.71721  0.43544  1.0000
  H   H376      1.0  0.14292  0.70331  0.40662  1.0000
  H   H377      1.0  0.32052  0.63272  0.11796  1.0000
  C   C464      1.0  0.25626  0.72175  0.47836  1.0000
  C   C465      1.0  0.30811  0.71029  0.07994  1.0000
  C   C466      1.0  0.02505  0.66213  0.01264  1.0000
  H   H378      1.0  0.15135  0.64460  0.00247  1.0000
  H   H379      1.0  0.20271  0.99185  0.33144  1.0000
  C   C467      1.0  0.31959  0.70215  0.45258  1.0000
  C   C468      1.0  0.31180  0.99219  0.15476  1.0000
  H   H380      1.0  0.99264  0.93032  0.44526  1.0000
  H   H381      1.0  0.31859  0.72477  0.08336  1.0000
  C   C469      1.0  0.32058  0.61211  0.06477  1.0000
  C   C470      1.0  0.32172  0.54159  0.13293  1.0000
  S   S66       1.0  0.25861  0.49912  0.46065  1.0000
  C   C471      1.0  0.32171  0.55712  0.16572  1.0000
  H   H382      1.0  0.01644  0.70671  0.00571  1.0000
  C   C472      1.0  0.24942  0.88838  0.49092  1.0000
  H   H383      1.0  0.17206  0.93144  0.45932  1.0000
  H   H384      1.0  0.32309  0.67446  0.06345  1.0000
  H   H385      1.0  0.32443  0.58752  0.01564  1.0000
  C   C473      1.0  0.18866  0.56097  0.47456  1.0000
  H   H386      1.0  0.14820  0.99658  0.09484  1.0000
  H   H387      1.0  0.19644  0.54320  0.46579  1.0000
  C   C474      1.0  0.15607  0.99003  0.11907  1.0000
  H   H388      1.0  0.21385  0.66380  0.49181  1.0000
  C   C475      1.0  0.32327  0.49924  0.41214  1.0000
  C   C476      1.0  0.03011  0.99752  0.06162  1.0000
  H   H389      1.0  0.12423  0.67069  0.99481  1.0000
  C   C477      1.0  0.02416  0.63392  0.99855  1.0000
  C   C478      1.0  0.01573  0.68484  0.99481  1.0000
  H   H390      1.0  0.10655  0.93470  0.99278  1.0000
  C   C479      1.0  0.17903  0.89149  0.48798  1.0000
  C   C480      1.0  0.28330  0.62118  0.47842  1.0000
  C   C481      1.0  0.27560  0.64826  0.48446  1.0000
  H   H391      1.0  0.26840  0.72598  0.49212  1.0000
  Fe  Fe32      1.0  0.21682  0.77381  0.55779  1.0000
  S   S67       1.0  0.23879  0.74762  0.58375  1.0000
  H   H392      1.0  0.00759  0.93264  0.89372  1.0000
  Fe  Fe33      1.0  0.19186  0.74292  0.60543  1.0000
  S   S68       1.0  0.21245  0.71483  0.63337  1.0000
  S   S69       1.0  0.16743  0.74156  0.63398  1.0000
  Fe  Fe34      1.0  0.22753  0.75508  0.63778  1.0000
  S   S70       1.0  0.24079  0.77205  0.69106  1.0000
  Fe  Fe35      1.0  0.22185  0.70889  0.57721  1.0000
  S   S71       1.0  0.23240  0.66330  0.56519  1.0000
  S   S72       1.0  0.20673  0.78382  0.61200  1.0000
  S   S73       1.0  0.20024  0.73450  0.54873  1.0000
  Fe  Fe36      1.0  0.06712  0.73269  0.62031  1.0000
  S   S74       1.0  0.06773  0.73807  0.68135  1.0000
  S   S75       1.0  0.08983  0.72254  0.58786  1.0000
  Fe  Fe37      1.0  0.02897  0.74369  0.60880  1.0000
  S   S76       1.0  0.02732  0.75043  0.67033  1.0000
  S   S77       1.0  0.00554  0.75240  0.56732  1.0000
  Fe  Fe38      1.0  0.05056  0.77712  0.67014  1.0000
  S   S78       1.0  0.05956  0.81796  0.70239  1.0000
  Fe  Fe39      1.0  0.04461  0.71096  0.67855  1.0000
  S   S79       1.0  0.04343  0.68091  0.72912  1.0000
  S   S80       1.0  0.05124  0.77320  0.60842  1.0000
  S   S81       1.0  0.04500  0.70266  0.61755  1.0000
  H   H393      1.0  0.26629  0.67641  0.52603  1.0000
  H   H394      1.0  0.15783  0.96702  0.96887  1.0000
  Fe  Fe40      1.0  0.26381  0.72638  0.90257  1.0000
  S   S82       1.0  0.24325  0.74270  0.93551  1.0000
  S   S83       1.0  0.25832  0.70694  0.84531  1.0000
  Fe  Fe41      1.0  0.29090  0.73415  0.96811  1.0000
  Fe  Fe42      1.0  0.07427  0.97864  0.89012  1.0000
  Fe  Fe43      1.0  0.25553  0.71598  0.98229  1.0000
  C   C482      1.0  0.15738  0.56278  0.91411  1.0000
  Fe  Fe44      1.0  0.26119  0.77752  0.95456  1.0000
  S   S84       1.0  0.25261  0.82468  0.94416  1.0000
  S   S85       1.0  0.27475  0.69695  0.94832  1.0000
  S   S86       1.0  0.28138  0.76207  0.91938  1.0000
  Fe  Fe45      1.0  0.04531  0.96053  0.83576  1.0000
  H   H395      1.0  0.25701  0.84397  0.80045  1.0000
  S   S87       1.0  0.03383  0.92596  0.79574  1.0000
  C   C483      1.0  0.28344  0.62121  0.97818  1.0000
  S   S88       1.0  0.04481  0.53082  0.87801  1.0000
  C   C484      1.0  0.18506  0.55015  0.94115  1.0000
  S   S89       1.0  0.10114  0.96380  0.90791  1.0000
  H   H396      1.0  0.26310  0.87625  0.54224  1.0000
  Fe  Fe46      1.0  0.04502  0.51787  0.81871  1.0000
  S   S90       1.0  0.03864  0.54476  0.76581  1.0000
  S   S91       1.0  0.05183  0.95052  0.89616  1.0000
  P   P18       1.0  0.15934  0.64029  0.51462  1.0000
  C   C485      1.0  0.16981  0.54178  0.92377  1.0000
  H   H397      1.0  0.15017  0.60781  0.91511  1.0000
  S   S92       1.0  0.09116  0.52504  0.91922  1.0000
  C   C486      1.0  0.00536  0.67929  0.96308  1.0000
  C   C487      1.0  0.04652  0.58203  0.95907  1.0000
  H   H398      1.0  0.16751  0.51893  0.91853  1.0000
  C   C488      1.0  0.22994  0.83857  0.50399  1.0000
  C   C489      1.0  0.06093  0.56482  0.96704  1.0000
  H   H399      1.0  0.18575  0.69921  0.94111  1.0000
  H   H400      1.0  0.19372  0.63463  0.54846  1.0000
  C   C490      1.0  0.01739  0.83024  0.49611  1.0000
  C   C491      1.0  0.29711  0.76216  0.75910  1.0000
  C   C492      1.0  0.27919  0.81699  0.79929  1.0000
  H   H401      1.0  0.28548  0.83105  0.90420  1.0000
  H   H402      1.0  0.19948  0.58537  0.96406  1.0000
  H   H403      1.0  0.14655  0.53138  0.98740  1.0000
  C   C493      1.0  0.31167  0.71886  0.88090  1.0000
  C   C494      1.0  0.19424  0.68604  0.92635  1.0000
  C   C495      1.0  0.01007  0.59016  0.89964  1.0000
  C   C496      1.0  0.99447  0.83256  0.63330  1.0000
  Fe  Fe47      1.0  0.06870  0.50360  0.88740  1.0000
  C   C497      1.0  0.20533  0.63912  0.90930  1.0000
  H   H404      1.0  0.24402  0.65456  0.95260  1.0000
  H   H405      1.0  0.23940  0.60234  0.93847  1.0000
  C   C498      1.0  0.04305  0.64265  0.73773  1.0000
  C   C499      1.0  0.04696  0.63235  0.77392  1.0000
  C   C500      1.0  0.04629  0.60243  0.78275  1.0000
  C   C501      1.0  0.04121  0.58240  0.75562  1.0000
  C   C502      1.0  0.03733  0.59267  0.71936  1.0000
  C   C503      1.0  0.03834  0.62255  0.71037  1.0000
  H   H406      1.0  0.05034  0.64774  0.79536  1.0000
  H   H407      1.0  0.04921  0.59493  0.81074  1.0000
  H   H408      1.0  0.03332  0.57745  0.69810  1.0000
  H   H409      1.0  0.03515  0.63009  0.68247  1.0000
  C   C504      1.0  0.05217  0.84647  0.73062  1.0000
  C   C505      1.0  0.06369  0.86621  0.74705  1.0000
  C   C506      1.0  0.05844  0.88999  0.76804  1.0000
  C   C507      1.0  0.04148  0.89471  0.77257  1.0000
  C   C508      1.0  0.02997  0.87474  0.75656  1.0000
  C   C509      1.0  0.03527  0.85069  0.73608  1.0000
  H   H410      1.0  0.07679  0.86327  0.74314  1.0000
  H   H411      1.0  0.06748  0.90505  0.77998  1.0000
  H   H412      1.0  0.01683  0.87803  0.75975  1.0000
  H   H413      1.0  0.02631  0.83562  0.72402  1.0000
  H   H414      1.0  0.13514  0.70023  0.88759  1.0000
  C   C510      1.0  0.14589  0.73703  0.61998  1.0000
  C   C511      1.0  0.14011  0.73098  0.58366  1.0000
  C   C512      1.0  0.12291  0.72700  0.57435  1.0000
  C   C513      1.0  0.11127  0.72905  0.60105  1.0000
  C   C514      1.0  0.11705  0.73524  0.63735  1.0000
  C   C515      1.0  0.13425  0.73910  0.64670  1.0000
  H   H415      1.0  0.14888  0.72934  0.56280  1.0000
  H   H416      1.0  0.11853  0.72266  0.54616  1.0000
  H   H417      1.0  0.10828  0.73696  0.65820  1.0000
  H   H418      1.0  0.13856  0.74389  0.67482  1.0000
  H   H419      1.0  0.24064  0.88371  0.93642  1.0000
  H   H420      1.0  0.13561  0.94845  0.92426  1.0000
  C   C516      1.0  0.28521  0.76450  0.69559  1.0000
  H   H421      1.0  0.00164  0.85179  0.68619  1.0000
  H   H422      1.0  0.23126  0.95358  0.49382  1.0000
  C   C517      1.0  0.24415  0.75364  0.73421  1.0000
  C   C518      1.0  0.24904  0.76979  0.76572  1.0000
  C   C519      1.0  0.25326  0.75598  0.80001  1.0000
  C   C520      1.0  0.25247  0.72570  0.80323  1.0000
  C   C521      1.0  0.24717  0.70957  0.77189  1.0000
  C   C522      1.0  0.24302  0.72343  0.73759  1.0000
  H   H423      1.0  0.24964  0.79316  0.76338  1.0000
  H   H424      1.0  0.25730  0.76871  0.82382  1.0000
  H   H425      1.0  0.24654  0.68614  0.77401  1.0000
  H   H426      1.0  0.23947  0.71068  0.71352  1.0000
  C   C523      1.0  0.24499  0.84913  0.97653  1.0000
  H   H427      1.0  0.00019  0.54674  0.89832  1.0000
  C   C524      1.0  0.22069  0.64338  0.49546  1.0000
  H   H428      1.0  0.10991  0.98844  0.83614  1.0000
  C   C525      1.0  0.12228  0.52811  0.95713  1.0000
  C   C526      1.0  0.18541  0.78760  0.84321  1.0000
  C   C527      1.0  0.19458  0.77146  0.81896  1.0000
  C   C528      1.0  0.21164  0.76584  0.82831  1.0000
  P   P19       1.0  0.18539  0.75977  0.77467  1.0000
  C   C529      1.0  0.19101  0.78481  0.73949  1.0000
  C   C530      1.0  0.19369  0.72375  0.76712  1.0000
  C   C531      1.0  0.19524  0.70341  0.79623  1.0000
  C   C532      1.0  0.20236  0.67588  0.79130  1.0000
  C   C533      1.0  0.20788  0.66837  0.75727  1.0000
  C   C534      1.0  0.20615  0.68831  0.72807  1.0000
  C   C535      1.0  0.19905  0.71593  0.73283  1.0000
  C   C536      1.0  0.18036  0.78906  0.70731  1.0000
  C   C537      1.0  0.18427  0.80912  0.68056  1.0000
  C   C538      1.0  0.19899  0.82474  0.68532  1.0000
  C   C539      1.0  0.20987  0.82014  0.71675  1.0000
  C   C540      1.0  0.20592  0.80031  0.74378  1.0000
  C   C541      1.0  0.16282  0.75922  0.77167  1.0000
  C   C542      1.0  0.15368  0.78563  0.77141  1.0000
  C   C543      1.0  0.13635  0.78607  0.76372  1.0000
  C   C544      1.0  0.12801  0.76023  0.75573  1.0000
  C   C545      1.0  0.13695  0.73385  0.75616  1.0000
  C   C546      1.0  0.15428  0.73325  0.76414  1.0000
  H   H429      1.0  0.01981  0.62766  0.82339  1.0000
  H   H430      1.0  0.24557  0.56995  0.50765  1.0000
  C   C547      1.0  0.05964  0.53566  0.97742  1.0000
  H   H431      1.0  0.17228  0.79227  0.83695  1.0000
  H   H432      1.0  0.21901  0.75354  0.81001  1.0000
  H   H433      1.0  0.19126  0.70909  0.82296  1.0000
  H   H434      1.0  0.20393  0.66056  0.81406  1.0000
  H   H435      1.0  0.21378  0.64730  0.75364  1.0000
  H   H436      1.0  0.21084  0.68270  0.70204  1.0000
  H   H437      1.0  0.19810  0.73125  0.70996  1.0000
  H   H438      1.0  0.16912  0.77660  0.70238  1.0000
  H   H439      1.0  0.17612  0.81170  0.65550  1.0000
  H   H440      1.0  0.20229  0.83956  0.66398  1.0000
  H   H441      1.0  0.22167  0.83119  0.71961  1.0000
  H   H442      1.0  0.21472  0.79689  0.76744  1.0000
  H   H443      1.0  0.16005  0.80605  0.77551  1.0000
  H   H444      1.0  0.12942  0.80658  0.76267  1.0000
  H   H445      1.0  0.11465  0.76073  0.74849  1.0000
  H   H446      1.0  0.13047  0.71402  0.74906  1.0000
  H   H447      1.0  0.16096  0.71270  0.76278  1.0000
  P   P20       1.0  0.30735  0.78019  0.79854  1.0000
  C   C548      1.0  0.27001  0.83949  0.85422  1.0000
  C   C549      1.0  0.26776  0.83456  0.81641  1.0000
  H   H448      1.0  0.24603  0.83306  0.55372  1.0000
  C   C550      1.0  0.28426  0.71966  0.73033  1.0000
  H   H449      1.0  0.26097  0.85245  0.86783  1.0000
  C   C551      1.0  0.10953  0.65399  0.52481  1.0000
  C   C552      1.0  0.15189  0.64806  0.75634  1.0000
  C   C553      1.0  0.16027  0.64050  0.79024  1.0000
  C   C554      1.0  0.15136  0.63741  0.82128  1.0000
  C   C555      1.0  0.13404  0.64194  0.81846  1.0000
  C   C556      1.0  0.12546  0.64910  0.78432  1.0000
  C   C557      1.0  0.13456  0.65226  0.75331  1.0000
  P   P21       1.0  0.10311  0.65564  0.78123  1.0000
  C   C558      1.0  0.09418  0.63130  0.81318  1.0000
  C   C559      1.0  0.09866  0.69306  0.79267  1.0000
  C   C560      1.0  0.08373  0.70668  0.77837  1.0000
  C   C561      1.0  0.08021  0.73569  0.78658  1.0000
  C   C562      1.0  0.09147  0.75126  0.80967  1.0000
  C   C563      1.0  0.10628  0.73777  0.82452  1.0000
  C   C564      1.0  0.10990  0.70878  0.81595  1.0000
  C   C565      1.0  0.08203  0.64139  0.83581  1.0000
  C   C566      1.0  0.07529  0.62241  0.86059  1.0000
  C   C567      1.0  0.08063  0.59329  0.86301  1.0000
  C   C568      1.0  0.09273  0.58309  0.84067  1.0000
  C   C569      1.0  0.09949  0.60197  0.81582  1.0000
  C   C570      1.0  0.09422  0.64930  0.73481  1.0000
  C   C571      1.0  0.08516  0.62410  0.72602  1.0000
  C   C572      1.0  0.07797  0.62003  0.69023  1.0000
  C   C573      1.0  0.07962  0.64111  0.66305  1.0000
  C   C574      1.0  0.08862  0.66618  0.67150  1.0000
  C   C575      1.0  0.09585  0.67034  0.70719  1.0000
  H   H450      1.0  0.15881  0.65049  0.73225  1.0000
  H   H451      1.0  0.17366  0.63681  0.79237  1.0000
  H   H452      1.0  0.15786  0.63121  0.84746  1.0000
  H   H453      1.0  0.12735  0.63964  0.84287  1.0000
  H   H454      1.0  0.12838  0.65790  0.72668  1.0000
  H   H455      1.0  0.07479  0.69496  0.76061  1.0000
  H   H456      1.0  0.06874  0.74610  0.77475  1.0000
  H   H457      1.0  0.08871  0.77383  0.81574  1.0000
  H   H458      1.0  0.11506  0.74999  0.84213  1.0000
  H   H459      1.0  0.12153  0.69888  0.82705  1.0000
  H   H460      1.0  0.07747  0.66371  0.83392  1.0000
  H   H461      1.0  0.06567  0.63011  0.87743  1.0000
  H   H462      1.0  0.07530  0.57843  0.88189  1.0000
  H   H463      1.0  0.09670  0.56037  0.84254  1.0000
  H   H464      1.0  0.10871  0.59359  0.79838  1.0000
  H   H465      1.0  0.08313  0.60787  0.74670  1.0000
  H   H466      1.0  0.07065  0.60089  0.68390  1.0000
  H   H467      1.0  0.07365  0.63835  0.63560  1.0000
  H   H468      1.0  0.08971  0.68270  0.65049  1.0000
  H   H469      1.0  0.10243  0.69028  0.71328  1.0000
  P   P22       1.0  0.17863  0.63787  0.95436  1.0000
  C   C576      1.0  0.21529  0.99037  0.50536  1.0000
  H   H470      1.0  0.12125  0.99426  0.77542  1.0000
  C   C577      1.0  0.23057  0.97505  0.50579  1.0000
  H   H471      1.0  0.99799  0.69685  0.94947  1.0000
  C   C578      1.0  0.01529  0.61027  0.83993  1.0000
  C   C579      1.0  0.21753  0.68349  0.88843  1.0000
  C   C580      1.0  0.13259  0.67146  0.97299  1.0000
  C   C581      1.0  0.29282  0.80381  0.82002  1.0000
  H   H472      1.0  0.31978  0.65307  0.92823  1.0000
  C   C582      1.0  0.29527  0.80968  0.85781  1.0000
  C   C583      1.0  0.02954  0.54075  0.97157  1.0000
  C   C584      1.0  0.04692  0.88542  0.65055  1.0000
  H   H473      1.0  0.05964  0.87752  0.64916  1.0000
  C   C585      1.0  0.16873  0.64846  0.56007  1.0000
  H   H474      1.0  0.18626  0.81092  0.89452  1.0000
  H   H475      1.0  0.25700  0.97561  0.52080  1.0000
  C   C586      1.0  0.25284  0.87081  0.52260  1.0000
  H   H476      1.0  0.23282  0.77329  0.86686  1.0000
  C   C587      1.0  0.17708  0.99738  0.53759  1.0000
  C   C588      1.0  0.31598  0.75409  0.83269  1.0000
  H   H477      1.0  0.30329  0.70663  0.89667  1.0000
  C   C589      1.0  0.02155  0.81451  0.52856  1.0000
  C   C590      1.0  0.12639  0.65820  0.52021  1.0000
  H   H478      1.0  0.18736  0.54370  0.52916  1.0000
  C   C591      1.0  0.12794  0.68712  0.94066  1.0000
  S   S93       1.0  0.23001  0.55404  0.98160  1.0000
  C   C592      1.0  0.10337  0.62582  0.52571  1.0000
  H   H479      1.0  0.10129  0.67262  0.52826  1.0000
  H   H480      1.0  0.07315  0.57364  0.96410  1.0000
  C   C593      1.0  0.27648  0.63658  0.54968  1.0000
  C   C594      1.0  0.28383  0.60946  0.54332  1.0000
  C   C595      1.0  0.28724  0.60177  0.50769  1.0000
  H   H481      1.0  0.99976  0.54220  0.83093  1.0000
  H   H482      1.0  0.32037  0.83790  0.81912  1.0000
  C   C596      1.0  0.27233  0.65589  0.52040  1.0000
  H   H483      1.0  0.00728  0.94623  0.96533  1.0000
  H   H484      1.0  0.24482  0.75969  0.50122  1.0000
  H   H485      1.0  0.29685  0.80039  0.72389  1.0000
  C   C597      1.0  0.23987  0.87739  0.96483  1.0000
  S   S94       1.0  0.31804  0.71875  0.98332  1.0000
  C   C598      1.0  0.02700  0.91631  0.67876  1.0000
  C   C599      1.0  0.00074  0.96169  0.98144  1.0000
  C   C600      1.0  0.13868  0.68792  0.91249  1.0000
  C   C601      1.0  0.00726  0.85088  0.56327  1.0000
  H   H486      1.0  0.21173  0.88241  0.55245  1.0000
  C   C602      1.0  0.13104  0.60601  0.51808  1.0000
  C   C603      1.0  0.20299  0.89335  0.53244  1.0000
  C   C604      1.0  0.00825  0.85637  0.49709  1.0000
  C   C605      1.0  0.14550  0.97697  0.96713  1.0000
  C   C606      1.0  0.17422  0.58500  0.52195  1.0000
  C   C607      1.0  0.13768  0.51696  0.97348  1.0000
  H   H487      1.0  0.27344  0.64235  0.57714  1.0000
  H   H488      1.0  0.28669  0.59429  0.56593  1.0000
  Fe  Fe48      1.0  0.03777  0.99216  0.90771  1.0000
  H   H489      1.0  0.20656  0.72350  0.90613  1.0000
  S   S95       1.0  0.21729  0.80759  0.51065  1.0000
  H   H490      1.0  0.21662  0.80182  0.90951  1.0000
  C   C608      1.0  0.23810  0.61019  0.96597  1.0000
  H   H491      1.0  0.13916  0.58717  0.51591  1.0000
  H   H492      1.0  0.11601  0.69863  0.93747  1.0000
  C   C609      1.0  0.18780  0.57938  0.94946  1.0000
  C   C610      1.0  0.04395  0.52360  0.97946  1.0000
  H   H493      1.0  0.99611  0.64704  0.92473  1.0000
  H   H494      1.0  0.02153  0.63174  0.89089  1.0000
  H   H495      1.0  0.07081  0.52218  0.98272  1.0000
  H   H496      1.0  0.21463  0.93444  0.53944  1.0000
  C   C611      1.0  0.99438  0.57713  0.97005  1.0000
  C   C612      1.0  0.32393  0.80165  0.78263  1.0000
  C   C613      1.0  0.24318  0.84619  0.52919  1.0000
  C   C614      1.0  0.18585  0.64298  0.56888  1.0000
  C   C615      1.0  0.19308  0.64854  0.60423  1.0000
  C   C616      1.0  0.18336  0.66000  0.63087  1.0000
  C   C617      1.0  0.28386  0.82736  0.87478  1.0000
  C   C618      1.0  0.00929  0.58500  0.82285  1.0000
  C   C619      1.0  0.17859  0.99408  0.49976  1.0000
  C   C620      1.0  0.15405  0.67298  0.91653  1.0000
  H   H497      1.0  0.20633  0.64450  0.61068  1.0000
  C   C621      1.0  0.99963  0.94398  0.87261  1.0000
  H   H498      1.0  0.20562  0.61562  0.91049  1.0000
  C   C622      1.0  0.19375  0.65547  0.92785  1.0000
  C   C623      1.0  0.03392  0.87227  0.62939  1.0000
  C   C624      1.0  0.29240  0.73293  0.76097  1.0000
  C   C625      1.0  0.21952  0.77690  0.86064  1.0000
  H   H499      1.0  0.16210  0.67350  0.89420  1.0000
  C   C626      1.0  0.04348  0.90753  0.67504  1.0000
  C   C627      1.0  0.20477  0.92286  0.52435  1.0000
  H   H500      1.0  0.18901  0.66497  0.65795  1.0000
  C   C628      1.0  0.19329  0.79822  0.87598  1.0000
  S   S96       1.0  0.06848  0.98635  0.82919  1.0000
  C   C629      1.0  0.29352  0.77776  0.72601  1.0000
  H   H501      1.0  0.29285  0.58067  0.50262  1.0000
  H   H502      1.0  0.29182  0.73954  0.84665  1.0000
  H   H503      1.0  0.27274  0.61418  0.99175  1.0000
  H   H504      1.0  0.14544  0.55607  0.90129  1.0000
  C   C630      1.0  0.19400  0.93673  0.49699  1.0000
  C   C631      1.0  0.23905  0.61081  0.53268  1.0000
  C   C632      1.0  0.11047  0.50971  0.93906  1.0000
  C   C633      1.0  0.24078  0.63975  0.97394  1.0000
  C   C634      1.0  0.24526  0.98762  0.52079  1.0000
  H   H505      1.0  0.03693  0.85454  0.61164  1.0000
  C   C635      1.0  0.00381  0.56222  0.84403  1.0000
  C   C636      1.0  0.01657  0.82480  0.56199  1.0000
  C   C637      1.0  0.16642  0.66598  0.62221  1.0000
  H   H506      1.0  0.99605  0.88681  0.53057  1.0000
  C   C638      1.0  0.03071  0.57019  0.96194  1.0000
  H   H507      1.0  0.15903  0.67590  0.64247  1.0000
  C   C639      1.0  0.21719  0.65313  0.88980  1.0000
  C   C640      1.0  0.28206  0.62383  0.93982  1.0000
  C   C641      1.0  0.16014  0.59213  0.92211  1.0000
  C   C642      1.0  0.17540  0.60064  0.94007  1.0000
  C   C643      1.0  0.19025  0.87759  0.51402  1.0000
  C   C644      1.0  0.99754  0.93268  0.83715  1.0000
  H   H508      1.0  0.02438  0.93252  0.69910  1.0000
  C   C645      1.0  0.23038  0.63772  0.52847  1.0000
  H   H509      1.0  0.28027  0.69736  0.73228  1.0000
  C   C646      1.0  0.13289  0.96658  0.94169  1.0000
  C   C647      1.0  0.30524  0.73757  0.85258  1.0000
  C   C648      1.0  0.23385  0.89763  0.98968  1.0000
  H   H510      1.0  0.99446  0.80902  0.72221  1.0000
  H   H511      1.0  0.01976  0.81202  0.58676  1.0000
  H   H512      1.0  0.27361  0.72555  0.67454  1.0000
  C   C649      1.0  0.21037  0.79308  0.88454  1.0000
  H   H513      1.0  0.27049  0.61836  0.92429  1.0000
  H   H514      1.0  0.23003  0.91934  0.98039  1.0000
  H   H515      1.0  0.22644  0.64046  0.87650  1.0000
  H   H516      1.0  0.04771  0.60429  0.94994  1.0000
  H   H517      1.0  0.01751  0.53077  0.97195  1.0000
  C   C650      1.0  0.00445  0.65110  0.94894  1.0000
  H   H518      1.0  0.29395  0.63775  0.89209  1.0000
  H   H519      1.0  0.30581  0.80023  0.87446  1.0000
  C   C651      1.0  0.20602  0.69994  0.90659  1.0000
  C   C652      1.0  0.28057  0.73546  0.69774  1.0000
  C   C653      1.0  0.15894  0.65764  0.94923  1.0000
  H   H520      1.0  0.22691  0.69428  0.87385  1.0000
  H   H521      1.0  0.27712  0.81336  0.77008  1.0000
  C   C654      1.0  0.14802  0.65676  0.97730  1.0000
  C   C655      1.0  0.01418  0.62836  0.96605  1.0000
  H   H522      1.0  0.18922  0.85451  0.51976  1.0000
  H   H523      1.0  0.24636  0.60588  0.55826  1.0000
  C   C656      1.0  0.01731  0.88130  0.63243  1.0000
  H   H524      1.0  0.05354  0.91697  0.69234  1.0000
  C   C657      1.0  0.30983  0.64331  0.94200  1.0000
  H   H525      1.0  0.14601  0.66544  0.58122  1.0000
  H   H526      1.0  0.00384  0.91248  0.83083  1.0000
  H   H527      1.0  0.02837  0.79393  0.52791  1.0000
  H   H528      1.0  0.28184  0.77694  0.67064  1.0000
  C   C658      1.0  0.29527  0.63480  0.92170  1.0000
  C   C659      1.0  0.01600  0.61265  0.87823  1.0000
  C   C660      1.0  0.15911  0.66023  0.58703  1.0000
  C   C661      1.0  0.00413  0.56483  0.88224  1.0000
  C   C662      1.0  0.01395  0.90318  0.65771  1.0000
  H   H529      1.0  0.17073  0.58529  0.54999  1.0000
  C   C663      1.0  0.18362  0.56138  0.51028  1.0000
  H   H530      1.0  0.00933  0.58275  0.79326  1.0000
  H   H531      1.0  0.29471  0.72021  0.78590  1.0000
  H   H532      1.0  0.00856  0.70378  0.51481  1.0000
  P   P23       1.0  0.01210  0.59169  0.94925  1.0000
  H   H533      1.0  0.09029  0.62263  0.52941  1.0000
  C   C664      1.0  0.00492  0.99113  0.98066  1.0000
  P   P24       1.0  0.00034  0.86340  0.60654  1.0000
  H   H534      1.0  0.11947  0.55115  0.95864  1.0000
  C   C665      1.0  0.23859  0.59027  0.50402  1.0000
  H   H535      1.0  0.19471  0.53393  0.94891  1.0000
  C   C666      1.0  0.11673  0.97914  0.93894  1.0000
  C   C667      1.0  0.99652  0.83305  0.67189  1.0000
  H   H536      1.0  0.18518  0.68416  0.51136  1.0000
  C   C668      1.0  0.99233  0.80888  0.69250  1.0000
  C   C669      1.0  0.00319  0.86668  0.53052  1.0000
  C   C670      1.0  0.13731  0.63427  0.51703  1.0000
  H   H537      1.0  0.00124  0.90956  0.66203  1.0000
  C   C671      1.0  0.99359  0.74153  0.52560  1.0000
  H   H538      1.0  0.99775  0.92568  0.58863  1.0000
  H   H539      1.0  0.10929  0.58002  0.52302  1.0000
  H   H540      1.0  0.18656  0.98822  0.55746  1.0000
  C   C672      1.0  0.99773  0.71696  0.50540  1.0000
  H   H541      1.0  0.04293  0.50071  0.98613  1.0000
  C   C673      1.0  0.16990  0.60851  0.49796  1.0000
  C   C674      1.0  0.11409  0.60185  0.52219  1.0000
  C   C675      1.0  0.31131  0.64033  0.98032  1.0000
  H   H542      1.0  0.13102  0.68017  0.52003  1.0000
  H   H543      1.0  0.99394  0.97931  0.90781  1.0000
  Fe  Fe49      1.0  0.40186  0.23308  0.11010  1.0000
  S   S97       1.0  0.41309  0.27577  0.09704  1.0000
  S   S98       1.0  0.37665  0.21471  0.08833  1.0000
  Fe  Fe50      1.0  0.43084  0.21587  0.16657  1.0000
  S   S99       1.0  0.44404  0.25839  0.15808  1.0000
  S   S100      1.0  0.44365  0.17928  0.20315  1.0000
  Fe  Fe51      1.0  0.41880  0.28067  0.15825  1.0000
  S   S101      1.0  0.40992  0.32417  0.18240  1.0000
  Fe  Fe52      1.0  0.43788  0.25158  0.09710  1.0000
  S   S102      1.0  0.45752  0.26710  0.05844  1.0000
  S   S103      1.0  0.40613  0.23873  0.17144  1.0000
  S   S104      1.0  0.42613  0.20804  0.10563  1.0000
  H   H544      1.0  0.43958  0.31887  0.02532  1.0000
  H   H545      1.0  0.38338  0.26779  0.35040  1.0000
  C   C676      1.0  0.33930  0.00718  0.17854  1.0000
  C   C677      1.0  0.50450  0.25763  0.10725  1.0000
  H   H546      1.0  0.41249  0.35995  0.10778  1.0000
  S   S105      1.0  0.44962  0.00352  0.33007  1.0000
  H   H547      1.0  0.36342  0.24857  0.39214  1.0000
  S   S106      1.0  0.41765  0.07600  0.30294  1.0000
  Fe  Fe53      1.0  0.42728  0.46417  0.31669  1.0000
  S   S107      1.0  0.43917  0.43067  0.27939  1.0000
  H   H548      1.0  0.40929  0.09421  0.38326  1.0000
  S   S108      1.0  0.41890  0.45226  0.37205  1.0000
  H   H549      1.0  0.43887  0.21272  0.27111  1.0000
  H   H550      1.0  0.53792  0.48290  0.45005  1.0000
  H   H551      1.0  0.48654  0.47646  0.40898  1.0000
  H   H552      1.0  0.41736  0.45551  0.20791  1.0000
  H   H553      1.0  0.46962  0.08940  0.33273  1.0000
  C   C678      1.0  0.33218  0.22530  0.02685  1.0000
  S   S109      1.0  0.42317  0.02341  0.38933  1.0000
  C   C679      1.0  0.41840  0.35268  0.21092  1.0000
  C   C680      1.0  0.43555  0.35550  0.21975  1.0000
  C   C681      1.0  0.44161  0.37927  0.24099  1.0000
  C   C682      1.0  0.43068  0.40028  0.25434  1.0000
  C   C683      1.0  0.41351  0.39718  0.24601  1.0000
  C   C684      1.0  0.40745  0.37369  0.22427  1.0000
  H   H554      1.0  0.44416  0.33969  0.20967  1.0000
  H   H555      1.0  0.45492  0.38144  0.24705  1.0000
  H   H556      1.0  0.40491  0.41310  0.25593  1.0000
  H   H557      1.0  0.39416  0.37182  0.21779  1.0000
  C   C685      1.0  0.43584  0.14987  0.22897  1.0000
  C   C686      1.0  0.44688  0.12715  0.24204  1.0000
  C   C687      1.0  0.44149  0.10398  0.26366  1.0000
  C   C688      1.0  0.42503  0.10352  0.27348  1.0000
  C   C689      1.0  0.41400  0.12626  0.26045  1.0000
  C   C690      1.0  0.41928  0.14903  0.23805  1.0000
  H   H558      1.0  0.45971  0.12744  0.23528  1.0000
  H   H559      1.0  0.45012  0.08669  0.27314  1.0000
  H   H560      1.0  0.40123  0.12622  0.26767  1.0000
  H   H561      1.0  0.41060  0.16620  0.22828  1.0000
  C   C691      1.0  0.46941  0.25560  0.02135  1.0000
  H   H562      1.0  0.48173  0.29666  0.01867  1.0000
  H   H563      1.0  0.36702  0.32182  0.14620  1.0000
  H   H564      1.0  0.33570  0.01946  0.33052  1.0000
  H   H565      1.0  0.36874  0.23493  0.22784  1.0000
  C   C692      1.0  0.36080  0.25832  0.04385  1.0000
  C   C693      1.0  0.35996  0.23048  0.05925  1.0000
  P   P25       1.0  0.38018  0.28393  0.27291  1.0000
  H   H566      1.0  0.64220  0.22506  0.00137  1.0000
  H   H567      1.0  0.37183  0.27107  0.04999  1.0000
  C   C694      1.0  0.33670  0.47024  0.36681  1.0000
  C   C695      1.0  0.37746  0.05816  0.41709  1.0000
  H   H568      1.0  0.38185  0.07499  0.36354  1.0000
  H   H569      1.0  0.43871  0.26369  0.24820  1.0000
  C   C696      1.0  0.54685  0.22947  0.07990  1.0000
  H   H570      1.0  0.34536  0.31512  0.35013  1.0000
  C   C697      1.0  0.34886  0.26462  0.28976  1.0000
  C   C698      1.0  0.36084  0.37865  0.00631  1.0000
  C   C699      1.0  0.36777  0.25429  0.21062  1.0000
  C   C700      1.0  0.55886  0.23302  0.05460  1.0000
  H   H571      1.0  0.48656  0.46947  0.32529  1.0000
  Fe  Fe54      1.0  0.42597  0.03128  0.32880  1.0000
  H   H572      1.0  0.48312  0.43535  0.45126  1.0000
  Fe  Fe55      1.0  0.43370  0.49060  0.39515  1.0000
  C   C701      1.0  0.47311  0.49020  0.27850  1.0000
  C   C702      1.0  0.40836  0.47348  0.20618  1.0000
  H   H573      1.0  0.56342  0.23635  0.99725  1.0000
  C   C703      1.0  0.53001  0.16926  0.18680  1.0000
  C   C704      1.0  0.36667  0.30316  0.16438  1.0000
  H   H574      1.0  0.45923  0.21286  0.01530  1.0000
  C   C705      1.0  0.39127  0.46802  0.20254  1.0000
  H   H575      1.0  0.49343  0.24382  0.15655  1.0000
  C   C706      1.0  0.43723  0.03963  0.49102  1.0000
  C   C707      1.0  0.48746  0.28860  0.14365  1.0000
  C   C708      1.0  0.49887  0.30819  0.08956  1.0000
  H   H576      1.0  0.35996  0.23040  0.16161  1.0000
  H   H577      1.0  0.47277  0.05034  0.38044  1.0000
  C   C709      1.0  0.36555  0.26910  0.30261  1.0000
  H   H578      1.0  0.36586  0.00584  0.34085  1.0000
  H   H579      1.0  0.56724  0.34033  0.42832  1.0000
  H   H580      1.0  0.47053  0.46988  0.26437  1.0000
  C   C710      1.0  0.53131  0.22834  0.16860  1.0000
  C   C711      1.0  0.33420  0.32436  0.36057  1.0000
  C   C712      1.0  0.35937  0.25298  0.36353  1.0000
  C   C713      1.0  0.42783  0.25531  0.26004  1.0000
  C   C714      1.0  0.56145  0.41019  0.45580  1.0000
  H   H581      1.0  0.33416  0.23946  0.36874  1.0000
  C   C715      1.0  0.35250  0.48087  0.37896  1.0000
  S   S110      1.0  0.45050  0.48530  0.45052  1.0000
  C   C716      1.0  0.39750  0.32743  0.02851  1.0000
  C   C717      1.0  0.56775  0.38669  0.43668  1.0000
  H   H582      1.0  0.38709  0.44575  0.20147  1.0000
  H   H583      1.0  0.51614  0.17076  0.05344  1.0000
  H   H584      1.0  0.39511  0.18509  0.01531  1.0000
  S   S111      1.0  0.37034  0.46830  0.35721  1.0000
  H   H585      1.0  0.51246  0.22456  0.01946  1.0000
  C   C718      1.0  0.52605  0.47236  0.45071  1.0000
  C   C719      1.0  0.41289  0.13982  0.48390  1.0000
  C   C720      1.0  0.41368  0.21550  0.28698  1.0000
  C   C721      1.0  0.41350  0.27290  0.26113  1.0000
  C   C722      1.0  0.37065  0.26373  0.33982  1.0000
  C   C723      1.0  0.48023  0.99847  0.47902  1.0000
  H   H586      1.0  0.34542  0.32820  0.41598  1.0000
  C   C724      1.0  0.45076  0.11313  0.35949  1.0000
  C   C725      1.0  0.46406  0.06837  0.38309  1.0000
  H   H587      1.0  0.45557  0.05139  0.43269  1.0000
  H   H588      1.0  0.33568  0.45480  0.34455  1.0000
  H   H589      1.0  0.36041  0.41870  0.03653  1.0000
  H   H590      1.0  0.50010  0.32609  0.07057  1.0000
  C   C726      1.0  0.51258  0.48211  0.42673  1.0000
  H   H591      1.0  0.57675  0.39035  0.41670  1.0000
  H   H592      1.0  0.53190  0.25130  0.16196  1.0000
  C   C727      1.0  0.39919  0.26208  0.27555  1.0000
  H   H593      1.0  0.38575  0.34776  0.07310  1.0000
  H   H594      1.0  0.36054  0.38473  0.29302  1.0000
  H   H595      1.0  0.44909  0.12972  0.33816  1.0000
  C   C728      1.0  0.36275  0.25162  0.17317  1.0000
  C   C729      1.0  0.44097  0.11395  0.38941  1.0000
  C   C730      1.0  0.33733  0.39585  0.03832  1.0000
  C   C731      1.0  0.39932  0.23305  0.28806  1.0000
  H   H596      1.0  0.40878  0.31563  0.30964  1.0000
  C   C732      1.0  0.39744  0.34248  0.06171  1.0000
  C   C733      1.0  0.46229  0.09033  0.35630  1.0000
  C   C734      1.0  0.40232  0.08367  0.40352  1.0000
  C   C735      1.0  0.48213  0.49000  0.31291  1.0000
  C   C736      1.0  0.53842  0.21815  0.20269  1.0000
  H   H597      1.0  0.47984  0.29131  0.16656  1.0000
  H   H598      1.0  0.41349  0.29476  0.24995  1.0000
  H   H599      1.0  0.57185  0.23571  0.06416  1.0000
  H   H600      1.0  0.48279  0.04299  0.46211  1.0000
  H   H601      1.0  0.36650  0.48652  0.20079  1.0000
  C   C737      1.0  0.38665  0.07277  0.39209  1.0000
  C   C738      1.0  0.40911  0.07947  0.43998  1.0000
  C   C739      1.0  0.50642  0.28118  0.08334  1.0000
  C   C740      1.0  0.35355  0.39951  0.02802  1.0000
  C   C741      1.0  0.41266  0.31965  0.01427  1.0000
  C   C742      1.0  0.48075  0.27502  0.00743  1.0000
  C   C743      1.0  0.49717  0.46857  0.42676  1.0000
  C   C744      1.0  0.54427  0.37731  0.48774  1.0000
  C   C745      1.0  0.53000  0.22602  0.06750  1.0000
  C   C746      1.0  0.52539  0.22669  0.02956  1.0000
  P   P26       1.0  0.51413  0.22255  0.09959  1.0000
  C   C747      1.0  0.49868  0.19692  0.08204  1.0000
  C   C748      1.0  0.52347  0.20902  0.14332  1.0000
  C   C749      1.0  0.52292  0.17936  0.15264  1.0000
  C   C750      1.0  0.39817  0.33039  0.30510  1.0000
  H   H602      1.0  0.49534  0.13502  0.03098  1.0000
  H   H603      1.0  0.34447  0.26941  0.26147  1.0000
  C   C751      1.0  0.49167  0.15289  0.04793  1.0000
  C   C752      1.0  0.47523  0.15538  0.05738  1.0000
  C   C753      1.0  0.47049  0.17845  0.07918  1.0000
  C   C754      1.0  0.48209  0.19929  0.09121  1.0000
  C   C755      1.0  0.34755  0.26929  0.01958  1.0000
  C   C756      1.0  0.37218  0.28153  0.22529  1.0000
  H   H604      1.0  0.43185  0.13144  0.39099  1.0000
  C   C757      1.0  0.34288  0.24789  0.35037  1.0000
  C   C758      1.0  0.39981  0.35905  0.31742  1.0000
  C   C759      1.0  0.49512  0.26166  0.13773  1.0000
  H   H605      1.0  0.35747  0.33415  0.27077  1.0000
  C   C760      1.0  0.43986  0.17714  0.48168  1.0000
  H   H606      1.0  0.41474  0.00998  0.19908  1.0000
  H   H607      1.0  0.35273  0.00386  0.18099  1.0000
  C   C761      1.0  0.39954  0.06555  0.46521  1.0000
  H   H608      1.0  0.51692  0.16396  0.13384  1.0000
  C   C762      1.0  0.37102  0.36950  0.29619  1.0000
  Fe  Fe56      1.0  0.39741  0.48397  0.35794  1.0000
  C   C763      1.0  0.42792  0.22661  0.27293  1.0000
  C   C764      1.0  0.39849  0.20646  0.00598  1.0000
  H   H609      1.0  0.46614  0.13948  0.04783  1.0000
  H   H610      1.0  0.45776  0.18042  0.08658  1.0000
  H   H611      1.0  0.47791  0.21717  0.10743  1.0000
  H   H612      1.0  0.35903  0.27361  0.12083  1.0000
  C   C765      1.0  0.34015  0.00709  0.35482  1.0000
  C   C766      1.0  0.45426  0.06910  0.41296  1.0000
  H   H613      1.0  0.41166  0.36630  0.33013  1.0000
  H   H614      1.0  0.52940  0.14640  0.19397  1.0000
  C   C767      1.0  0.36226  0.27602  0.15005  1.0000
  C   C768      1.0  0.44260  0.09187  0.41640  1.0000
  H   H615      1.0  0.59959  0.01854  0.48630  1.0000
  C   C769      1.0  0.33315  0.25291  0.01089  1.0000
  C   C770      1.0  0.53740  0.23020  0.00437  1.0000
  H   H616      1.0  0.38758  0.40084  0.32253  1.0000
  C   C771      1.0  0.50339  0.17339  0.06047  1.0000
  C   C772      1.0  0.38625  0.37860  0.31298  1.0000
  H   H617      1.0  0.48308  0.33252  0.12372  1.0000
  C   C773      1.0  0.36937  0.34091  0.28358  1.0000
  H   H618      1.0  0.37585  0.32684  0.21186  1.0000
  H   H619      1.0  0.38825  0.22355  0.29761  1.0000
  C   C774      1.0  0.37162  0.30594  0.20185  1.0000
  C   C775      1.0  0.41502  0.21529  0.01085  1.0000
  H   H620      1.0  0.41368  0.19297  0.29601  1.0000
  H   H621      1.0  0.32878  0.33155  0.99534  1.0000
  C   C776      1.0  0.56237  0.35852  0.44317  1.0000
  H   H622      1.0  0.55079  0.22951  0.10894  1.0000
  C   C777      1.0  0.53776  0.18863  0.21181  1.0000
  H   H623      1.0  0.54318  0.18078  0.23832  1.0000
  C   C778      1.0  0.41251  0.34943  0.08124  1.0000
  H   H624      1.0  0.32691  0.26996  0.09188  1.0000
  H   H625      1.0  0.51343  0.27873  0.05945  1.0000
  C   C779      1.0  0.33426  0.33181  0.39765  1.0000
  H   H626      1.0  0.40233  0.12570  0.48506  1.0000
  H   H627      1.0  0.43930  0.34546  0.08352  1.0000
  H   H628      1.0  0.36547  0.04918  0.40804  1.0000
  H   H629      1.0  0.54439  0.23319  0.22211  1.0000
  C   C780      1.0  0.38300  0.32121  0.28747  1.0000
  H   H630      1.0  0.34007  0.04605  0.21122  1.0000
  H   H631      1.0  0.38576  0.32113  0.01444  1.0000
  C   C781      1.0  0.49522  0.44530  0.45073  1.0000
  H   H632      1.0  0.34475  0.19260  0.06252  1.0000
  H   H633      1.0  0.56553  0.43196  0.45006  1.0000
  C   C782      1.0  0.48663  0.02662  0.48258  1.0000
  C   C783      1.0  0.33762  0.25382  0.31354  1.0000
  H   H634      1.0  0.42922  0.02963  0.46959  1.0000
  C   C784      1.0  0.55413  0.23337  0.01685  1.0000
  H   H635      1.0  0.37336  0.38158  0.99825  1.0000
  C   C785      1.0  0.34554  0.21416  0.05076  1.0000
  C   C786      1.0  0.42763  0.34127  0.06758  1.0000
  C   C787      1.0  0.48929  0.31183  0.11950  1.0000
  H   H636      1.0  0.33171  0.41272  0.05402  1.0000
  C   C788      1.0  0.54993  0.40556  0.48202  1.0000
  S   S112      1.0  0.40537  0.49439  0.30140  1.0000
  H   H637      1.0  0.43198  0.25013  0.00538  1.0000
  C   C789      1.0  0.50864  0.43551  0.47475  1.0000
  C   C790      1.0  0.52409  0.44931  0.47540  1.0000
  H   H638      1.0  0.38881  0.01880  0.22957  1.0000
  C   C791      1.0  0.46799  0.22800  0.00550  1.0000
  C   C792      1.0  0.43961  0.06985  0.49118  1.0000
  C   C793      1.0  0.33217  0.03096  0.19552  1.0000
  H   H639      1.0  0.42457  0.20062  0.02346  1.0000
  H   H640      1.0  0.45031  0.19157  0.48081  1.0000
  C   C794      1.0  0.55058  0.35386  0.46856  1.0000
  H   H641      1.0  0.33107  0.32001  0.07049  1.0000
  C   C795      1.0  0.42773  0.32624  0.03438  1.0000
  C   C796      1.0  0.44127  0.14846  0.46955  1.0000
  P   P27       1.0  0.42965  0.09264  0.45468  1.0000
  C   C797      1.0  0.42777  0.12962  0.47042  1.0000
  H   H642      1.0  0.45292  0.14094  0.45958  1.0000
  C   C798      1.0  0.38386  0.05469  0.45366  1.0000
  H   H643      1.0  0.34853  0.29049  0.00721  1.0000
  H   H644      1.0  0.54624  0.33207  0.47327  1.0000
  C   C799      1.0  0.46792  0.49558  0.48211  1.0000
  C   C800      1.0  0.41920  0.24336  0.00044  1.0000
  C   C801      1.0  0.37966  0.49118  0.20189  1.0000
  C   C802      1.0  0.32846  0.37086  0.02769  1.0000
  H   H645      1.0  0.37677  0.04302  0.47282  1.0000
  C   C803      1.0  0.33570  0.35043  0.00505  1.0000
  C   C804      1.0  0.35728  0.99954  0.36068  1.0000
  C   C805      1.0  0.32876  0.99891  0.38021  1.0000
  C   C806      1.0  0.35185  0.35425  0.99455  1.0000
  S   S113      1.0  0.65549  0.28388  0.99387  1.0000
  H   H646      1.0  0.63950  0.18158  0.91868  1.0000
  Fe  Fe57      1.0  0.56321  0.24575  0.90119  1.0000
  S   S114      1.0  0.54351  0.27843  0.91566  1.0000
  S   S115      1.0  0.58592  0.22754  0.93704  1.0000
  Fe  Fe58      1.0  0.54298  0.22778  0.82996  1.0000
  S   S116      1.0  0.52191  0.25961  0.83876  1.0000
  S   S117      1.0  0.54393  0.19955  0.77837  1.0000
  Fe  Fe59      1.0  0.54218  0.29159  0.85508  1.0000
  S   S118      1.0  0.54023  0.34070  0.84098  1.0000
  Fe  Fe60      1.0  0.52439  0.24485  0.89836  1.0000
  S   S119      1.0  0.50221  0.22710  0.92802  1.0000
  S   S120      1.0  0.56309  0.26084  0.84231  1.0000
  S   S121      1.0  0.54422  0.21114  0.88784  1.0000
  H   H647      1.0  0.65557  0.41242  0.63850  1.0000
  S   S122      1.0  0.55364  0.03912  0.65498  1.0000
  S   S123      1.0  0.54184  0.06099  0.75870  1.0000
  Fe  Fe61      1.0  0.54787  0.46751  0.67933  1.0000
  S   S124      1.0  0.55386  0.47744  0.62072  1.0000
  S   S125      1.0  0.55113  0.41953  0.69846  1.0000
  C   C807      1.0  0.43891  0.16151  0.74525  1.0000
  H   H648      1.0  0.64543  0.15469  0.97748  1.0000
  C   C808      1.0  0.50538  0.17645  0.83804  1.0000
  H   H649      1.0  0.57072  0.08757  0.82248  1.0000
  H   H650      1.0  0.36470  0.34820  0.86400  1.0000
  H   H651      1.0  0.40430  0.06255  0.49364  1.0000
  H   H652      1.0  0.46122  0.17743  0.77402  1.0000
  C   C809      1.0  0.62828  0.46991  0.60140  1.0000
  C   C810      1.0  0.60493  0.06371  0.87653  1.0000
  C   C811      1.0  0.54318  0.36210  0.80081  1.0000
  C   C812      1.0  0.54006  0.39242  0.80142  1.0000
  C   C813      1.0  0.54229  0.41033  0.77051  1.0000
  C   C814      1.0  0.54780  0.39819  0.73844  1.0000
  C   C815      1.0  0.55094  0.36790  0.73785  1.0000
  C   C816      1.0  0.54863  0.34998  0.76867  1.0000
  H   H653      1.0  0.53580  0.40211  0.82598  1.0000
  H   H654      1.0  0.53972  0.43347  0.77148  1.0000
  H   H655      1.0  0.55521  0.35818  0.71331  1.0000
  H   H656      1.0  0.55112  0.32680  0.76761  1.0000
  C   C817      1.0  0.54400  0.16086  0.77404  1.0000
  C   C818      1.0  0.54077  0.14233  0.80308  1.0000
  C   C819      1.0  0.53992  0.11198  0.79759  1.0000
  C   C820      1.0  0.54275  0.09959  0.76341  1.0000
  C   C821      1.0  0.54626  0.11807  0.73453  1.0000
  C   C822      1.0  0.54682  0.14847  0.73981  1.0000
  H   H657      1.0  0.53859  0.15142  0.82955  1.0000
  H   H658      1.0  0.53693  0.09799  0.81996  1.0000
  H   H659      1.0  0.54824  0.10901  0.70794  1.0000
  H   H660      1.0  0.54933  0.16253  0.71710  1.0000
  C   C823      1.0  0.48959  0.23911  0.96356  1.0000
  H   H661      1.0  0.59387  0.00286  0.82819  1.0000
  H   H662      1.0  0.45922  0.25625  0.90865  1.0000
  H   H663      1.0  0.50312  0.10132  0.74427  1.0000
  C   C824      1.0  0.52560  0.41065  0.62008  1.0000
  C   C825      1.0  0.64385  0.02042  0.74004  1.0000
  H   H664      1.0  0.62552  0.07687  0.66614  1.0000
  C   C826      1.0  0.58633  0.08315  0.69317  1.0000
  C   C827      1.0  0.61922  0.15417  0.89928  1.0000
  H   H665      1.0  0.61494  0.20418  0.97889  1.0000
  C   C828      1.0  0.60536  0.24351  0.95154  1.0000
  C   C829      1.0  0.60889  0.27243  0.94342  1.0000
  H   H666      1.0  0.65830  0.09568  0.55068  1.0000
  C   C830      1.0  0.53478  0.42480  0.54965  1.0000
  C   C831      1.0  0.61356  0.48315  0.61258  1.0000
  H   H667      1.0  0.59967  0.28578  0.92750  1.0000
  C   C832      1.0  0.63647  0.26736  0.97744  1.0000
  C   C833      1.0  0.61276  0.02534  0.61389  1.0000
  H   H668      1.0  0.43712  0.12478  0.66443  1.0000
  C   C834      1.0  0.64097  0.48432  0.74334  1.0000
  H   H669      1.0  0.53368  0.23072  0.97512  1.0000
  H   H670      1.0  0.58542  0.46457  0.85522  1.0000
  H   H671      1.0  0.49965  0.28200  0.96929  1.0000
  S   S126      1.0  0.51798  0.02409  0.57800  1.0000
  C   C835      1.0  0.58548  0.47658  0.53433  1.0000
  P   P28       1.0  0.41247  0.29917  0.97218  1.0000
  C   C836      1.0  0.54422  0.12164  0.91253  1.0000
  H   H672      1.0  0.39835  0.35832  0.96041  1.0000
  H   H673      1.0  0.45329  0.10475  0.51871  1.0000
  H   H674      1.0  0.62446  0.05016  0.57293  1.0000
  C   C837      1.0  0.49806  0.03379  0.51274  1.0000
  P   P29       1.0  0.48882  0.16103  0.73057  1.0000
  C   C838      1.0  0.44086  0.32610  0.95033  1.0000
  C   C839      1.0  0.60547  0.06631  0.74389  1.0000
  H   H675      1.0  0.50661  0.19835  0.78663  1.0000
  H   H676      1.0  0.47637  0.26563  0.70414  1.0000
  Fe  Fe62      1.0  0.53374  0.00814  0.63132  1.0000
  C   C840      1.0  0.50241  0.25498  0.70145  1.0000
  H   H677      1.0  0.61456  0.07068  0.89664  1.0000
  H   H678      1.0  0.54756  0.38305  0.62494  1.0000
  C   C841      1.0  0.54502  0.14395  0.93839  1.0000
  H   H679      1.0  0.52224  0.40556  0.64756  1.0000
  H   H680      1.0  0.50554  0.44198  0.60898  1.0000
  C   C842      1.0  0.64820  0.05353  0.81678  1.0000
  C   C843      1.0  0.46274  0.30172  0.91965  1.0000
  C   C844      1.0  0.45613  0.32691  0.93460  1.0000
  C   C845      1.0  0.60557  0.03496  0.86418  1.0000
  C   C846      1.0  0.45611  0.16590  0.74997  1.0000
  H   H681      1.0  0.46738  0.13241  0.67230  1.0000
  H   H682      1.0  0.39452  0.27516  0.90651  1.0000
  S   S127      1.0  0.52457  0.49621  0.67439  1.0000
  C   C847      1.0  0.64233  0.02114  0.60244  1.0000
  C   C848      1.0  0.45083  0.08173  0.51837  1.0000
  C   C849      1.0  0.43868  0.27493  0.93560  1.0000
  C   C850      1.0  0.61501  0.00401  0.64148  1.0000
  P   P30       1.0  0.59141  0.12084  0.87658  1.0000
  H   H683      1.0  0.46418  0.01955  0.56402  1.0000
  H   H684      1.0  0.64544  0.45173  0.67602  1.0000
  C   C851      1.0  0.52084  0.43832  0.56341  1.0000
  H   H685      1.0  0.51125  0.19401  0.85358  1.0000
  C   C852      1.0  0.58087  0.04421  0.82311  1.0000
  C   C853      1.0  0.58929  0.07406  0.72975  1.0000
  H   H686      1.0  0.60319  0.35364  0.89694  1.0000
  C   C854      1.0  0.56570  0.48496  0.82021  1.0000
  C   C855      1.0  0.58029  0.07298  0.83514  1.0000
  C   C856      1.0  0.50260  0.17883  0.79979  1.0000
  H   H687      1.0  0.57751  0.04212  0.52026  1.0000
  C   C857      1.0  0.39742  0.31485  0.93784  1.0000
  H   H688      1.0  0.60734  0.37035  0.96141  1.0000
  C   C858      1.0  0.37390  0.33898  0.88446  1.0000
  H   H689      1.0  0.57957  0.21300  0.80774  1.0000
  C   C859      1.0  0.39278  0.34442  0.93914  1.0000
  H   H690      1.0  0.46233  0.46413  0.52321  1.0000
  C   C860      1.0  0.40696  0.26257  0.98404  1.0000
  C   C861      1.0  0.37883  0.30975  0.88237  1.0000
  C   C862      1.0  0.57395  0.15121  0.92775  1.0000
  C   C863      1.0  0.45947  0.06367  0.54486  1.0000
  H   H691      1.0  0.62829  0.44712  0.59412  1.0000
  C   C864      1.0  0.59349  0.02517  0.83764  1.0000
  H   H692      1.0  0.59666  0.14171  0.74461  1.0000
  C   C865      1.0  0.49258  0.12930  0.83633  1.0000
  C   C866      1.0  0.63680  0.47773  0.77910  1.0000
  H   H693      1.0  0.43207  0.25467  0.93510  1.0000
  C   C867      1.0  0.44583  0.02170  0.51761  1.0000
  H   H694      1.0  0.50275  0.05565  0.51478  1.0000
  C   C868      1.0  0.51044  0.08664  0.69255  1.0000
  C   C869      1.0  0.62434  0.28424  0.95638  1.0000
  H   H695      1.0  0.37347  0.29634  0.86030  1.0000
  H   H696      1.0  0.59927  0.11069  0.79999  1.0000
  C   C870      1.0  0.48581  0.24841  0.70599  1.0000
  C   C871      1.0  0.51030  0.20429  0.71174  1.0000
  H   H697      1.0  0.63088  0.49379  0.68754  1.0000
  C   C872      1.0  0.43207  0.14672  0.71442  1.0000
  C   C873      1.0  0.53985  0.39779  0.60714  1.0000
  C   C874      1.0  0.51464  0.23290  0.70428  1.0000
  H   H698      1.0  0.57798  0.43322  0.52079  1.0000
  C   C875      1.0  0.61247  0.11583  0.94114  1.0000
  H   H699      1.0  0.57893  0.07276  0.74690  1.0000
  C   C876      1.0  0.64947  0.06378  0.85295  1.0000
  H   H700      1.0  0.50267  0.15011  0.88597  1.0000
  H   H701      1.0  0.52760  0.23799  0.70178  1.0000
  H   H702      1.0  0.50586  0.27724  0.69631  1.0000
  C   C877      1.0  0.49945  0.13535  0.70263  1.0000
  H   H703      1.0  0.59704  0.09017  0.64179  1.0000
  H   H704      1.0  0.37325  0.21900  0.98759  1.0000
  C   C878      1.0  0.48945  0.13186  0.79812  1.0000
  H   H705      1.0  0.48865  0.11017  0.85051  1.0000
  C   C879      1.0  0.50414  0.10738  0.71594  1.0000
  C   C880      1.0  0.60739  0.47848  0.75798  1.0000
  H   H706      1.0  0.60162  0.48824  0.70035  1.0000
  H   H707      1.0  0.48272  0.11484  0.78330  1.0000
  Fe  Fe63      1.0  0.54424  0.02967  0.71017  1.0000
  H   H708      1.0  0.55594  0.39566  0.56311  1.0000
  C   C881      1.0  0.64294  0.48587  0.59928  1.0000
  C   C882      1.0  0.63229  0.16262  0.92440  1.0000
  H   H709      1.0  0.51380  0.45496  0.54752  1.0000
  C   C883      1.0  0.49461  0.15650  0.77938  1.0000
  H   H710      1.0  0.49755  0.16338  0.65433  1.0000
  C   C884      1.0  0.51235  0.09363  0.65586  1.0000
  H   H711      1.0  0.61851  0.00897  0.74945  1.0000
  C   C885      1.0  0.48146  0.21982  0.71387  1.0000
  C   C886      1.0  0.50136  0.14219  0.66556  1.0000
  C   C887      1.0  0.51618  0.43109  0.59834  1.0000
  H   H712      1.0  0.61540  0.02017  0.87526  1.0000
  H   H713      1.0  0.51999  0.18757  0.71472  1.0000
  C   C888      1.0  0.50049  0.15167  0.85630  1.0000
  H   H714      1.0  0.53260  0.11056  0.90603  1.0000
  C   C889      1.0  0.61567  0.07634  0.68452  1.0000
  C   C890      1.0  0.49373  0.19756  0.71700  1.0000
  H   H715      1.0  0.53401  0.15038  0.95183  1.0000
  C   C891      1.0  0.59013  0.14375  0.83590  1.0000
  H   H716      1.0  0.61660  0.16695  0.87439  1.0000
  C   C892      1.0  0.64704  0.37822  0.93682  1.0000
  H   H717      1.0  0.61694  0.46918  0.81372  1.0000
  H   H718      1.0  0.51724  0.07740  0.63787  1.0000
  H   H719      1.0  0.47472  0.30214  0.90805  1.0000
  C   C893      1.0  0.38096  0.35637  0.91267  1.0000
  H   H720      1.0  0.60057  0.03536  0.60767  1.0000
  H   H721      1.0  0.46861  0.21540  0.71805  1.0000
  C   C894      1.0  0.54454  0.40502  0.57217  1.0000
  C   C895      1.0  0.44242  0.13636  0.68825  1.0000
  C   C896      1.0  0.62009  0.47470  0.78628  1.0000
  H   H722      1.0  0.59443  0.47596  0.76338  1.0000
  H   H723      1.0  0.46852  0.07270  0.56508  1.0000
  C   C897      1.0  0.50789  0.12148  0.64242  1.0000
  C   C898      1.0  0.46660  0.15553  0.72381  1.0000
  C   C899      1.0  0.43220  0.29993  0.95177  1.0000
  H   H724      1.0  0.43090  0.16951  0.76558  1.0000
  C   C900      1.0  0.62635  0.03382  0.59443  1.0000
  C   C901      1.0  0.45397  0.27580  0.91998  1.0000
  H   H725      1.0  0.37733  0.37915  0.91386  1.0000
  S   S128      1.0  0.52350  0.00082  0.68664  1.0000
  C   C902      1.0  0.39069  0.29778  0.90872  1.0000
  H   H726      1.0  0.50935  0.12684  0.61391  1.0000
  H   H727      1.0  0.51397  0.06508  0.70304  1.0000
  C   C903      1.0  0.48457  0.48753  0.54155  1.0000
  C   C904      1.0  0.58818  0.17945  0.77285  1.0000
  C   C905      1.0  0.45962  0.14075  0.69285  1.0000
  C   C906      1.0  0.47082  0.48087  0.51624  1.0000
  C   C907      1.0  0.59947  0.08400  0.67049  1.0000
  C   C908      1.0  0.61887  0.06777  0.72151  1.0000
  C   C909      1.0  0.59212  0.08298  0.86249  1.0000
  C   C910      1.0  0.42498  0.18718  0.49487  1.0000
  C   C911      1.0  0.62880  0.36003  0.88593  1.0000
  H   H728      1.0  0.58681  0.19308  0.74838  1.0000
  H   H729      1.0  0.65248  0.03159  0.81158  1.0000
  H   H730      1.0  0.38037  0.26863  0.96967  1.0000
  H   H731      1.0  0.39999  0.17627  0.50629  1.0000
  C   C912      1.0  0.58403  0.19070  0.80642  1.0000
  H   H732      1.0  0.56049  0.17646  0.96543  1.0000
  H   H733      1.0  0.42389  0.20942  0.50422  1.0000
  H   H734      1.0  0.57378  0.08905  0.68223  1.0000
  C   C913      1.0  0.57335  0.12868  0.90180  1.0000
  H   H735      1.0  0.60241  0.47055  0.61400  1.0000
  H   H736      1.0  0.48635  0.47605  0.56757  1.0000
  C   C914      1.0  0.62563  0.12421  0.96609  1.0000
  C   C915      1.0  0.59365  0.15054  0.77077  1.0000
  C   C916      1.0  0.58117  0.48433  0.84066  1.0000
  C   C917      1.0  0.63715  0.10997  0.83171  1.0000
  C   C918      1.0  0.59485  0.13287  0.80226  1.0000
  C   C919      1.0  0.62807  0.48818  0.71520  1.0000
  H   H737      1.0  0.60444  0.09850  0.94871  1.0000
  C   C920      1.0  0.45699  0.03367  0.54444  1.0000
  H   H738      1.0  0.55803  0.46576  0.81873  1.0000
  C   C921      1.0  0.61771  0.37028  0.94424  1.0000
  H   H739      1.0  0.58112  0.18206  0.86327  1.0000
  H   H740      1.0  0.58512  0.16374  0.93333  1.0000
  C   C922      1.0  0.60937  0.13032  0.90714  1.0000
  C   C923      1.0  0.63573  0.09973  0.79568  1.0000
  C   C924      1.0  0.39029  0.25378  0.98006  1.0000
  H   H741      1.0  0.56684  0.01681  0.57357  1.0000
  C   C925      1.0  0.61756  0.22652  0.97232  1.0000
  H   H742      1.0  0.55723  0.09678  0.87448  1.0000
  C   C926      1.0  0.58477  0.17292  0.83776  1.0000
  P   P31       1.0  0.63990  0.05930  0.74072  1.0000
  C   C927      1.0  0.61141  0.48530  0.72247  1.0000
  H   H743      1.0  0.63033  0.11391  0.77376  1.0000
  H   H744      1.0  0.53491  0.37338  0.50681  1.0000
  H   H745      1.0  0.63291  0.13188  0.83725  1.0000
  H   H746      1.0  0.57153  0.03671  0.80230  1.0000
  C   C928      1.0  0.55832  0.11395  0.89441  1.0000
  H   H747      1.0  0.65213  0.04888  0.66884  1.0000
  C   C929      1.0  0.55992  0.15857  0.94617  1.0000
  C   C930      1.0  0.64400  0.09205  0.86037  1.0000
  C   C931      1.0  0.63555  0.14758  0.95770  1.0000
  C   C932      1.0  0.47798  0.21988  0.97690  1.0000
  C   C933      1.0  0.55683  0.46339  0.51664  1.0000
  H   H748      1.0  0.60748  0.05907  0.77222  1.0000
  H   H749      1.0  0.59854  0.47047  0.53960  1.0000
  H   H750      1.0  0.63502  0.38581  0.98708  1.0000
  C   C934      1.0  0.49090  0.26681  0.97915  1.0000
  H   H751      1.0  0.62687  0.30668  0.95024  1.0000
  C   C935      1.0  0.50351  0.01311  0.54018  1.0000
  C   C936      1.0  0.57379  0.45559  0.52324  1.0000
  C   C937      1.0  0.63347  0.37898  0.95870  1.0000
  P   P32       1.0  0.54148  0.43599  0.50583  1.0000
  C   C938      1.0  0.65500  0.07785  0.71520  1.0000
  H   H752      1.0  0.46295  0.34699  0.93420  1.0000
  C   C939      1.0  0.64143  0.07158  0.78783  1.0000
  H   H753      1.0  0.43589  0.34584  0.96166  1.0000
  H   H754      1.0  0.65470  0.04979  0.87522  1.0000
  H   H755      1.0  0.65483  0.14332  0.58111  1.0000
  H   H756      1.0  0.41875  0.14323  0.71086  1.0000
  H   H757      1.0  0.47679  0.19839  0.96520  1.0000
  H   H758      1.0  0.65267  0.42606  0.89436  1.0000
  C   C940      1.0  0.61537  0.36080  0.90790  1.0000
  C   C941      1.0  0.58245  0.02075  0.52857  1.0000
  H   H759      1.0  0.64493  0.10005  0.88833  1.0000
  C   C942      1.0  0.55171  0.49222  0.52246  1.0000
  H   H760      1.0  0.64632  0.47503  0.80156  1.0000
  H   H761      1.0  0.65492  0.36760  0.88308  1.0000
  C   C943      1.0  0.64458  0.36868  0.90029  1.0000
  C   C944      1.0  0.59484  0.00743  0.50942  1.0000
  C   C945      1.0  0.63304  0.23830  0.98511  1.0000
  C   C946      1.0  0.41152  0.16851  0.49603  1.0000
  H   H762      1.0  0.62698  0.35231  0.85791  1.0000
  C   C947      1.0  0.57643  0.00652  0.55858  1.0000
  H   H763      1.0  0.35729  0.33830  0.97708  1.0000
  C   C948      1.0  0.63108  0.00107  0.74629  1.0000
  C   C949      1.0  0.64459  0.99997  0.63020  1.0000
  Fe  Fe64      1.0  0.57026  0.99931  0.66559  1.0000
  H   H764      1.0  0.62782  0.11319  0.99247  1.0000
  H   H765      1.0  0.44445  0.99829  0.51625  1.0000
  C   C950      1.0  0.65846  0.06762  0.68045  1.0000
  C   C951      1.0  0.38615  0.22564  0.99039  1.0000
  C   C952      1.0  0.65839  0.44521  0.68030  1.0000
  H   H766      1.0  0.50687  0.41742  0.49310  1.0000
  Fe  Fe65      1.0  0.40488  0.75219  0.11042  1.0000
  S   S129      1.0  0.42468  0.78635  0.11819  1.0000
  S   S130      1.0  0.37928  0.76966  0.08572  1.0000
  Fe  Fe66      1.0  0.42736  0.70616  0.15306  1.0000
  S   S131      1.0  0.44837  0.73764  0.16355  1.0000
  S   S132      1.0  0.43068  0.65739  0.16877  1.0000
  Fe  Fe67      1.0  0.42856  0.77083  0.17656  1.0000
  S   S133      1.0  0.43059  0.79970  0.22827  1.0000
  Fe  Fe68      1.0  0.44331  0.75141  0.10390  1.0000
  S   S134      1.0  0.46509  0.76597  0.07017  1.0000
  S   S135      1.0  0.40788  0.73817  0.17009  1.0000
  S   S136      1.0  0.42317  0.71824  0.09227  1.0000
  H   H767      1.0  0.33646  0.51621  0.09772  1.0000
  H   H768      1.0  0.55322  0.76299  0.11925  1.0000
  H   H769      1.0  0.37462  0.65676  0.21021  1.0000
  H   H770      1.0  0.40920  0.90922  0.34331  1.0000
  H   H771      1.0  0.34556  0.52225  0.25234  1.0000
  Fe  Fe69      1.0  0.40775  0.98508  0.37163  1.0000
  H   H772      1.0  0.39211  0.56556  0.15093  1.0000
  S   S137      1.0  0.42104  0.57836  0.31145  1.0000
  Fe  Fe70      1.0  0.43247  0.96568  0.31592  1.0000
  S   S138      1.0  0.43599  0.93599  0.26599  1.0000
  S   S139      1.0  0.41133  0.52141  0.38486  1.0000
  S   S140      1.0  0.43012  0.95434  0.37546  1.0000
  H   H773      1.0  0.54093  0.54592  0.36995  1.0000
  C   C953      1.0  0.38510  0.52002  0.20416  1.0000
  H   H774      1.0  0.35989  0.86936  0.27165  1.0000
  C   C954      1.0  0.54205  0.79285  0.15549  1.0000
  H   H775      1.0  0.35638  0.96440  0.44264  1.0000
  C   C955      1.0  0.37674  0.88602  0.19433  1.0000
  C   C956      1.0  0.38981  0.87760  0.34193  1.0000
  C   C957      1.0  0.43111  0.83789  0.23777  1.0000
  C   C958      1.0  0.43120  0.85912  0.21007  1.0000
  C   C959      1.0  0.43264  0.88886  0.21927  1.0000
  C   C960      1.0  0.43347  0.89808  0.25617  1.0000
  C   C961      1.0  0.43289  0.87692  0.28378  1.0000
  C   C962      1.0  0.43180  0.84711  0.27463  1.0000
  H   H776      1.0  0.43034  0.85258  0.18160  1.0000
  H   H777      1.0  0.43325  0.90483  0.19758  1.0000
  H   H778      1.0  0.43373  0.88341  0.31229  1.0000
  H   H779      1.0  0.43171  0.83100  0.29638  1.0000
  C   C963      1.0  0.42749  0.63578  0.20854  1.0000
  C   C964      1.0  0.42115  0.64746  0.23999  1.0000
  C   C965      1.0  0.41908  0.62947  0.27085  1.0000
  C   C966      1.0  0.42321  0.59951  0.27080  1.0000
  C   C967      1.0  0.42958  0.58783  0.23940  1.0000
  C   C968      1.0  0.43164  0.60581  0.20853  1.0000
  H   H780      1.0  0.41792  0.67041  0.24062  1.0000
  H   H781      1.0  0.41431  0.63890  0.29506  1.0000
  H   H782      1.0  0.43319  0.56506  0.23915  1.0000
  H   H783      1.0  0.43665  0.59650  0.18452  1.0000
  C   C969      1.0  0.39838  0.90067  0.32770  1.0000
  C   C970      1.0  0.46376  0.94233  0.19500  1.0000
  C   C971      1.0  0.34627  0.94330  0.25592  1.0000
  C   C972      1.0  0.33383  0.76078  0.02823  1.0000
  H   H784      1.0  0.40387  0.91930  0.19048  1.0000
  C   C973      1.0  0.35220  0.53409  0.30826  1.0000
  C   C974      1.0  0.36225  0.75449  0.05810  1.0000
  C   C975      1.0  0.36301  0.72660  0.04305  1.0000
  H   H785      1.0  0.49120  0.51522  0.35918  1.0000
  C   C976      1.0  0.32965  0.59383  0.04266  1.0000
  H   H786      1.0  0.37421  0.71332  0.04843  1.0000
  H   H787      1.0  0.36532  0.90989  0.14709  1.0000
  C   C977      1.0  0.35359  0.50076  0.40788  1.0000
  H   H788      1.0  0.45950  0.51654  0.23675  1.0000
  C   C978      1.0  0.37282  0.60997  0.20959  1.0000
  H   H789      1.0  0.36515  0.58437  0.09934  1.0000
  H   H790      1.0  0.62766  0.80208  0.06969  1.0000
  C   C979      1.0  0.35116  0.92493  0.22793  1.0000
  C   C980      1.0  0.37662  0.56374  0.31897  1.0000
  H   H791      1.0  0.49058  0.58873  0.42040  1.0000
  C   C981      1.0  0.47718  0.75402  0.03358  1.0000
  Fe  Fe71      1.0  0.42070  0.52990  0.32882  1.0000
  C   C982      1.0  0.44632  0.56373  0.41388  1.0000
  C   C983      1.0  0.43946  0.59158  0.41758  1.0000
  C   C984      1.0  0.44550  0.61499  0.39835  1.0000
  C   C985      1.0  0.45830  0.61050  0.37517  1.0000
  C   C986      1.0  0.46474  0.58229  0.37002  1.0000
  C   C987      1.0  0.45886  0.55908  0.39013  1.0000
  P   P33       1.0  0.48189  0.57618  0.34177  1.0000
  C   C988      1.0  0.48303  0.60593  0.30922  1.0000
  C   C989      1.0  0.50098  0.57210  0.37142  1.0000
  C   C990      1.0  0.51535  0.56000  0.35758  1.0000
  C   C991      1.0  0.52992  0.55536  0.38076  1.0000
  C   C992      1.0  0.53024  0.56267  0.41794  1.0000
  H   H792      1.0  0.58439  0.93336  0.48911  1.0000
  C   C993      1.0  0.50146  0.57956  0.40878  1.0000
  C   C994      1.0  0.49843  0.61783  0.30227  1.0000
  C   C995      1.0  0.49912  0.64048  0.27659  1.0000
  C   C996      1.0  0.48447  0.65146  0.25773  1.0000
  C   C997      1.0  0.46912  0.63992  0.26469  1.0000
  C   C998      1.0  0.46838  0.61731  0.29031  1.0000
  C   C999      1.0  0.47851  0.54263  0.31664  1.0000
  C   C1000     1.0  0.36328  0.98408  0.39239  1.0000
  C   C1001     1.0  0.45926  0.94651  0.15749  1.0000
  C   C1002     1.0  0.32964  0.95251  0.25658  1.0000
  C   C1003     1.0  0.46727  0.89631  0.14578  1.0000
  H   H793      1.0  0.56896  0.89772  0.45047  1.0000
  H   H794      1.0  0.39133  0.85785  0.23370  1.0000
  C   C1004     1.0  0.35890  0.90767  0.40545  1.0000
  H   H795      1.0  0.46305  0.62910  0.36138  1.0000
  H   H796      1.0  0.46406  0.53736  0.38791  1.0000
  H   H797      1.0  0.51520  0.55390  0.32891  1.0000
  C   C1005     1.0  0.43159  0.83044  0.04685  1.0000
  H   H798      1.0  0.34194  0.89901  0.18133  1.0000
  C   C1006     1.0  0.32913  0.98788  0.15807  1.0000
  H   H799      1.0  0.65265  0.65610  0.07371  1.0000
  H   H800      1.0  0.50992  0.60983  0.31652  1.0000
  H   H801      1.0  0.51101  0.64954  0.27123  1.0000
  H   H802      1.0  0.48495  0.66891  0.23770  1.0000
  H   H803      1.0  0.45776  0.64848  0.25008  1.0000
  H   H804      1.0  0.45634  0.60869  0.29537  1.0000
  C   C1007     1.0  0.41052  0.96414  0.19179  1.0000
  C   C1008     1.0  0.33796  0.81605  0.28881  1.0000
  C   C1009     1.0  0.38133  0.97395  0.22673  1.0000
  C   C1010     1.0  0.33045  0.83268  0.31512  1.0000
  H   H805      1.0  0.51400  0.50040  0.40852  1.0000
  C   C1011     1.0  0.51603  0.57481  0.43188  1.0000
  C   C1012     1.0  0.58689  0.82416  0.05671  1.0000
  C   C1013     1.0  0.39353  0.61209  0.15181  1.0000
  C   C1014     1.0  0.54851  0.78501  0.12245  1.0000
  C   C1015     1.0  0.34753  0.77140  0.05061  1.0000
  C   C1016     1.0  0.47038  0.91549  0.20786  1.0000
  C   C1017     1.0  0.33460  0.82250  0.25140  1.0000
  H   H806      1.0  0.52338  0.90130  0.08036  1.0000
  C   C1018     1.0  0.48969  0.77221  0.02180  1.0000
  C   C1019     1.0  0.34692  0.89260  0.42320  1.0000
  C   C1020     1.0  0.47228  0.89260  0.18339  1.0000
  P   P34       1.0  0.46882  0.86695  0.11338  1.0000
  C   C1021     1.0  0.49026  0.88899  0.01878  1.0000
  C   C1022     1.0  0.47644  0.83343  0.13557  1.0000
  C   C1023     1.0  0.46814  0.82188  0.16458  1.0000
  C   C1024     1.0  0.47368  0.79579  0.18169  1.0000
  C   C1025     1.0  0.48714  0.78030  0.16897  1.0000
  C   C1026     1.0  0.49519  0.79115  0.13938  1.0000
  C   C1027     1.0  0.48989  0.81762  0.12271  1.0000
  H   H807      1.0  0.45416  0.96738  0.14761  1.0000
  H   H808      1.0  0.40502  0.83749  0.04579  1.0000
  C   C1028     1.0  0.35111  0.54493  0.17986  1.0000
  C   C1029     1.0  0.46944  0.54257  0.28201  1.0000
  C   C1030     1.0  0.47913  0.51732  0.47407  1.0000
  C   C1031     1.0  0.44853  0.85868  0.09139  1.0000
  H   H809      1.0  0.47736  0.52893  0.44824  1.0000
  H   H810      1.0  0.34048  0.80967  0.23102  1.0000
  H   H811      1.0  0.33337  0.82774  0.34407  1.0000
  C   C1032     1.0  0.41830  0.86441  0.08613  1.0000
  C   C1033     1.0  0.43391  0.87172  0.10292  1.0000
  H   H812      1.0  0.47352  0.91220  0.23711  1.0000
  C   C1034     1.0  0.33637  0.55898  0.18899  1.0000
  C   C1035     1.0  0.57401  0.86217  0.48883  1.0000
  S   S141      1.0  0.38461  0.97292  0.40087  1.0000
  H   H813      1.0  0.47743  0.87213  0.19428  1.0000
  H   H814      1.0  0.45731  0.83292  0.17393  1.0000
  H   H815      1.0  0.46712  0.78716  0.20409  1.0000
  H   H816      1.0  0.49092  0.75943  0.18126  1.0000
  H   H817      1.0  0.50509  0.77847  0.12840  1.0000
  H   H818      1.0  0.49591  0.82493  0.09898  1.0000
  C   C1036     1.0  0.46109  0.92365  0.13293  1.0000
  C   C1037     1.0  0.55911  0.74158  0.01528  1.0000
  Fe  Fe72      1.0  0.44586  0.99367  0.39017  1.0000
  H   H819      1.0  0.34907  0.88765  0.45231  1.0000
  H   H820      1.0  0.35019  0.69461  0.00868  1.0000
  H   H821      1.0  0.45740  0.92709  0.10396  1.0000
  C   C1038     1.0  0.35190  0.97619  0.41789  1.0000
  H   H822      1.0  0.54167  0.77691  0.17744  1.0000
  H   H823      1.0  0.40708  0.87419  0.09550  1.0000
  H   H824      1.0  0.43440  0.88695  0.12540  1.0000
  C   C1039     1.0  0.34935  0.71606  0.02045  1.0000
  C   C1040     1.0  0.53610  0.82123  0.16027  1.0000
  C   C1041     1.0  0.39327  0.91240  0.29305  1.0000
  H   H825      1.0  0.38886  0.57573  0.27127  1.0000
  C   C1042     1.0  0.33908  0.50975  0.42442  1.0000
  C   C1043     1.0  0.38946  0.83934  0.18010  1.0000
  H   H826      1.0  0.61431  0.75434  0.07485  1.0000
  H   H827      1.0  0.39677  0.82004  0.18894  1.0000
  C   C1044     1.0  0.41713  0.84384  0.05803  1.0000
  C   C1045     1.0  0.64368  0.65168  0.01670  1.0000
  H   H828      1.0  0.51535  0.90293  0.01324  1.0000
  C   C1046     1.0  0.40638  0.99219  0.20289  1.0000
  H   H829      1.0  0.51625  0.58035  0.46077  1.0000
  H   H830      1.0  0.53377  0.68326  0.00576  1.0000
  C   C1047     1.0  0.55352  0.71414  0.00437  1.0000
  H   H831      1.0  0.37060  0.87096  0.10267  1.0000
  H   H832      1.0  0.53106  0.82725  0.18588  1.0000
  H   H833      1.0  0.56705  0.84662  0.47180  1.0000
  H   H834      1.0  0.36247  0.51964  0.13837  1.0000
  H   H835      1.0  0.36232  0.54755  0.36184  1.0000
  C   C1048     1.0  0.38614  0.86086  0.20556  1.0000
  H   H836      1.0  0.36923  0.84860  0.33281  1.0000
  H   H837      1.0  0.46620  0.87538  0.03200  1.0000
  H   H838      1.0  0.38571  0.57428  0.33778  1.0000
  H   H839      1.0  0.46526  0.71294  0.02456  1.0000
  H   H840      1.0  0.42217  0.96009  0.17966  1.0000
  C   C1049     1.0  0.37484  0.86818  0.13148  1.0000
  C   C1050     1.0  0.36350  0.54862  0.33250  1.0000
  S   S142      1.0  0.40918  0.99412  0.31154  1.0000
  C   C1051     1.0  0.54311  0.83404  0.09891  1.0000
  C   C1052     1.0  0.40012  0.94096  0.19824  1.0000
  C   C1053     1.0  0.38546  0.94555  0.21598  1.0000
  C   C1054     1.0  0.48473  0.51603  0.33201  1.0000
  C   C1055     1.0  0.47477  0.72724  0.01604  1.0000
  C   C1056     1.0  0.57923  0.79702  0.05815  1.0000
  C   C1057     1.0  0.37838  0.56452  0.28119  1.0000
  C   C1058     1.0  0.54826  0.81803  0.01339  1.0000
  C   C1059     1.0  0.35606  0.91464  0.36813  1.0000
  H   H841      1.0  0.39394  0.86853  0.36872  1.0000
  H   H842      1.0  0.46408  0.56239  0.26969  1.0000
  H   H843      1.0  0.44188  0.54566  0.42939  1.0000
  C   C1060     1.0  0.58922  0.77196  0.06615  1.0000
  H   H844      1.0  0.37042  0.97849  0.24106  1.0000
  C   C1061     1.0  0.36698  0.55029  0.25664  1.0000
  C   C1062     1.0  0.32923  0.89109  0.36592  1.0000
  H   H845      1.0  0.37027  0.91461  0.42070  1.0000
  C   C1063     1.0  0.55002  0.75868  0.03864  1.0000
  C   C1064     1.0  0.61415  0.80079  0.06729  1.0000
  H   H846      1.0  0.54365  0.85033  0.07748  1.0000
  H   H847      1.0  0.61019  0.84684  0.05880  1.0000
  H   H848      1.0  0.36528  0.92682  0.35468  1.0000
  C   C1065     1.0  0.49956  0.76384  0.99303  1.0000
  H   H849      1.0  0.33953  0.91121  0.31931  1.0000
  C   C1066     1.0  0.47867  0.88043  0.04310  1.0000
  P   P35       1.0  0.55677  0.79485  0.05080  1.0000
  C   C1067     1.0  0.37062  0.87831  0.28719  1.0000
  C   C1068     1.0  0.50640  0.89628  0.03218  1.0000
  H   H850      1.0  0.35531  0.95059  0.27743  1.0000
  H   H851      1.0  0.34233  0.52171  0.31903  1.0000
  H   H852      1.0  0.53247  0.86398  0.13621  1.0000
  H   H853      1.0  0.58372  0.75086  0.06889  1.0000
  C   C1069     1.0  0.53677  0.84187  0.13213  1.0000
  P   P36       1.0  0.37300  0.91467  0.22683  1.0000
  C   C1070     1.0  0.40227  0.52521  0.20880  1.0000
  C   C1071     1.0  0.60661  0.77385  0.07015  1.0000
  C   C1072     1.0  0.52908  0.72119  0.03793  1.0000
  C   C1073     1.0  0.38853  0.63782  0.16825  1.0000
  C   C1074     1.0  0.60429  0.82598  0.06093  1.0000
  C   C1075     1.0  0.54876  0.80539  0.09364  1.0000
  H   H854      1.0  0.40040  0.92983  0.28235  1.0000
  C   C1076     1.0  0.51094  0.89522  0.06997  1.0000
  H   H855      1.0  0.33624  0.57163  0.21392  1.0000
  C   C1077     1.0  0.37937  0.90121  0.27250  1.0000
  H   H856      1.0  0.57944  0.84388  0.05167  1.0000
  C   C1078     1.0  0.35265  0.59177  0.08991  1.0000
  C   C1079     1.0  0.37794  0.58396  0.19349  1.0000
  C   C1080     1.0  0.53847  0.70398  0.01555  1.0000
  C   C1081     1.0  0.38817  0.58523  0.16415  1.0000
  H   H857      1.0  0.39306  0.65855  0.15918  1.0000
  C   C1082     1.0  0.33885  0.91431  0.20213  1.0000
  P   P37       1.0  0.37026  0.54955  0.20841  1.0000
  C   C1083     1.0  0.37167  0.88995  0.15680  1.0000
  H   H858      1.0  0.40194  0.61311  0.13010  1.0000
  H   H859      1.0  0.51706  0.71382  0.04527  1.0000
  H   H860      1.0  0.45823  0.82633  0.05550  1.0000
  C   C1084     1.0  0.35109  0.52969  0.14664  1.0000
  H   H861      1.0  0.38616  0.82590  0.12361  1.0000
  C   C1085     1.0  0.46679  0.51648  0.26307  1.0000
  H   H862      1.0  0.52682  0.76206  0.06493  1.0000
  H   H863      1.0  0.44022  0.63662  0.40133  1.0000
  H   H864      1.0  0.50302  0.88583  0.12363  1.0000
  C   C1086     1.0  0.48325  0.87868  0.08108  1.0000
  C   C1087     1.0  0.38363  0.84279  0.14318  1.0000
  C   C1088     1.0  0.37591  0.86641  0.32167  1.0000
  H   H865      1.0  0.35276  0.57026  0.03768  1.0000
  H   H866      1.0  0.42950  0.59495  0.43544  1.0000
  C   C1089     1.0  0.49940  0.88652  0.09436  1.0000
  H   H867      1.0  0.36475  0.60961  0.23190  1.0000
  C   C1090     1.0  0.37820  0.63676  0.19714  1.0000
  C   C1091     1.0  0.34567  0.58385  0.05515  1.0000
  C   C1092     1.0  0.33641  0.52788  0.12340  1.0000
  C   C1093     1.0  0.53471  0.74858  0.04909  1.0000
  H   H868      1.0  0.32870  0.74336  0.43520  1.0000
  C   C1094     1.0  0.35403  0.53460  0.27047  1.0000
  H   H869      1.0  0.49170  0.79299  0.03493  1.0000
  H   H870      1.0  0.40671  0.54704  0.21326  1.0000
  C   C1095     1.0  0.34139  0.90613  0.34835  1.0000
  H   H871      1.0  0.33468  0.96954  0.14473  1.0000
  C   C1096     1.0  0.65493  0.66070  0.04541  1.0000
  H   H872      1.0  0.34676  0.79299  0.06202  1.0000
  H   H873      1.0  0.64781  0.72730  0.03003  1.0000
  C   C1097     1.0  0.34350  0.60922  0.11252  1.0000
  C   C1098     1.0  0.57510  0.89095  0.47680  1.0000
  H   H874      1.0  0.34649  0.79827  0.29739  1.0000
  H   H875      1.0  0.34013  0.52485  0.44706  1.0000
  C   C1099     1.0  0.44719  0.83760  0.06371  1.0000
  C   C1100     1.0  0.64088  0.76878  0.00525  1.0000
  H   H876      1.0  0.54147  0.55887  0.43603  1.0000
  H   H877      1.0  0.34892  0.61525  0.13952  1.0000
  S   S143      1.0  0.46507  0.98854  0.44189  1.0000
  C   C1101     1.0  0.33473  0.98319  0.41167  1.0000
  H   H878      1.0  0.46186  0.95968  0.21434  1.0000
  C   C1102     1.0  0.63853  0.73931  0.01259  1.0000
  H   H879      1.0  0.43071  0.81361  0.02614  1.0000
  C   C1103     1.0  0.33215  0.88419  0.40353  1.0000
  H   H880      1.0  0.63261  0.64013  0.02276  1.0000
  C   C1104     1.0  0.53104  0.82425  0.00936  1.0000
  H   H881      1.0  0.36563  0.50895  0.41781  1.0000
  H   H882      1.0  0.52294  0.81609  0.02922  1.0000
  H   H883      1.0  0.57041  0.74960  0.00489  1.0000
  H   H884      1.0  0.42707  0.50619  0.21369  1.0000
  C   C1105     1.0  0.33469  0.73308  0.01275  1.0000
  C   C1106     1.0  0.39173  0.99712  0.22009  1.0000
  H   H885      1.0  0.62211  0.70290  0.00443  1.0000
  S   S144      1.0  0.44335  0.50056  0.34033  1.0000
  C   C1107     1.0  0.32745  0.61916  0.10015  1.0000
  C   C1108     1.0  0.41385  0.50207  0.20933  1.0000
  H   H886      1.0  0.50153  0.54027  0.49212  1.0000
  H   H887      1.0  0.32616  0.96740  0.27772  1.0000
  H   H888      1.0  0.32619  0.97691  0.43157  1.0000
  C   C1109     1.0  0.62391  0.72557  0.99812  1.0000
  H   H889      1.0  0.33184  0.69373  0.46242  1.0000
  S   S145      1.0  0.65859  0.78773  0.02456  1.0000
  H   H890      1.0  0.55666  0.62482  0.88415  1.0000
  Fe  Fe73      1.0  0.57133  0.73811  0.91872  1.0000
  S   S146      1.0  0.55172  0.77226  0.92838  1.0000
  S   S147      1.0  0.59362  0.72198  0.95756  1.0000
  Fe  Fe74      1.0  0.55264  0.71853  0.84598  1.0000
  S   S148      1.0  0.53181  0.75209  0.85005  1.0000
  S   S149      1.0  0.55741  0.68836  0.79753  1.0000
  Fe  Fe75      1.0  0.55214  0.78357  0.86767  1.0000
  S   S150      1.0  0.55494  0.83225  0.85319  1.0000
  Fe  Fe76      1.0  0.53256  0.73908  0.91048  1.0000
  S   S151      1.0  0.50938  0.72480  0.93930  1.0000
  S   S152      1.0  0.57292  0.75101  0.85967  1.0000
  S   S153      1.0  0.55221  0.70385  0.90457  1.0000
  H   H891      1.0  0.62487  0.87940  0.54661  1.0000
  S   S154      1.0  0.54718  0.54602  0.63845  1.0000
  S   S155      1.0  0.53444  0.56169  0.74262  1.0000
  Fe  Fe77      1.0  0.54223  0.96325  0.69513  1.0000
  S   S156      1.0  0.55127  0.96902  0.63848  1.0000
  S   S157      1.0  0.53656  0.91620  0.71256  1.0000
  H   H892      1.0  0.61049  0.96952  0.50455  1.0000
  C   C1110     1.0  0.65351  0.66778  0.59424  1.0000
  H   H893      1.0  0.34315  0.86655  0.79708  1.0000
  C   C1111     1.0  0.45234  0.70957  0.67295  1.0000
  C   C1112     1.0  0.59130  0.58229  0.71260  1.0000
  C   C1113     1.0  0.53412  0.84948  0.95182  1.0000
  C   C1114     1.0  0.62677  0.54844  0.86873  1.0000
  H   H894      1.0  0.58858  0.56975  0.68793  1.0000
  H   H895      1.0  0.57141  0.82148  0.98712  1.0000
  C   C1115     1.0  0.54998  0.85494  0.81336  1.0000
  C   C1116     1.0  0.54045  0.84530  0.78212  1.0000
  C   C1117     1.0  0.53658  0.86425  0.75168  1.0000
  C   C1118     1.0  0.54216  0.89319  0.75182  1.0000
  C   C1119     1.0  0.55177  0.90279  0.78300  1.0000
  C   C1120     1.0  0.55558  0.88385  0.81349  1.0000
  H   H896      1.0  0.53586  0.82337  0.78174  1.0000
  H   H897      1.0  0.52909  0.85651  0.72789  1.0000
  H   H898      1.0  0.55613  0.92490  0.78377  1.0000
  H   H899      1.0  0.56290  0.89171  0.83745  1.0000
  C   C1121     1.0  0.55045  0.65329  0.78282  1.0000
  C   C1122     1.0  0.54052  0.63589  0.80342  1.0000
  C   C1123     1.0  0.53576  0.60802  0.79068  1.0000
  C   C1124     1.0  0.54087  0.59708  0.75730  1.0000
  C   C1125     1.0  0.55061  0.61464  0.73652  1.0000
  C   C1126     1.0  0.55523  0.64259  0.74909  1.0000
  H   H900      1.0  0.53652  0.64384  0.82915  1.0000
  H   H901      1.0  0.52805  0.59482  0.80684  1.0000
  H   H902      1.0  0.55443  0.60681  0.71057  1.0000
  H   H903      1.0  0.56256  0.65607  0.73247  1.0000
  C   C1127     1.0  0.49244  0.67709  0.86545  1.0000
  C   C1128     1.0  0.59510  0.96526  0.55023  1.0000
  Fe  Fe78      1.0  0.53138  0.50830  0.61723  1.0000
  C   C1129     1.0  0.61760  0.69470  0.87973  1.0000
  H   H904      1.0  0.35298  0.73154  0.87760  1.0000
  C   C1130     1.0  0.62793  0.52869  0.61934  1.0000
  C   C1131     1.0  0.58234  0.91314  0.61805  1.0000
  H   H905      1.0  0.55894  0.84983  0.93397  1.0000
  C   C1132     1.0  0.63066  0.66147  0.83933  1.0000
  H   H906      1.0  0.65566  0.64770  0.85598  1.0000
  C   C1133     1.0  0.61157  0.74088  0.97562  1.0000
  C   C1134     1.0  0.61396  0.77032  0.96809  1.0000
  P   P38       1.0  0.59860  0.56644  0.82350  1.0000
  C   C1135     1.0  0.64779  0.54665  0.81147  1.0000
  C   C1136     1.0  0.58286  0.97906  0.56959  1.0000
  H   H907      1.0  0.60458  0.78246  0.95098  1.0000
  S   S158      1.0  0.56193  0.99153  0.72218  1.0000
  H   H908      1.0  0.62359  0.92889  0.63297  1.0000
  C   C1137     1.0  0.65411  0.53951  0.84728  1.0000
  H   H909      1.0  0.54802  0.51098  0.78584  1.0000
  C   C1138     1.0  0.33330  0.75153  0.84160  1.0000
  C   C1139     1.0  0.65565  0.63901  0.58239  1.0000
  H   H910      1.0  0.59052  0.62328  0.68363  1.0000
  C   C1140     1.0  0.55126  0.84347  0.95569  1.0000
  H   H911      1.0  0.55921  0.53501  0.53987  1.0000
  H   H912      1.0  0.57833  0.96884  0.59339  1.0000
  H   H913      1.0  0.65613  0.66887  0.51111  1.0000
  C   C1141     1.0  0.62668  0.65605  0.61554  1.0000
  H   H914      1.0  0.62784  0.55157  0.62600  1.0000
  H   H915      1.0  0.64847  0.53469  0.90371  1.0000
  C   C1142     1.0  0.59206  0.59229  0.85694  1.0000
  C   C1143     1.0  0.49720  0.98491  0.53661  1.0000
  C   C1144     1.0  0.56995  0.53513  0.80314  1.0000
  C   C1145     1.0  0.59850  0.92049  0.60974  1.0000
  H   H916      1.0  0.58873  0.90659  0.71108  1.0000
  H   H917      1.0  0.62638  0.55969  0.77611  1.0000
  C   C1146     1.0  0.63217  0.69442  0.90344  1.0000
  H   H918      1.0  0.56562  0.58705  0.84215  1.0000
  C   C1147     1.0  0.62475  0.92563  0.55801  1.0000
  Fe  Fe79      1.0  0.56903  0.51417  0.64533  1.0000
  C   C1148     1.0  0.63481  0.95011  0.56307  1.0000
  C   C1149     1.0  0.34995  0.83444  0.75797  1.0000
  C   C1150     1.0  0.64277  0.51525  0.60909  1.0000
  C   C1151     1.0  0.48571  0.97773  0.50641  1.0000
  C   C1152     1.0  0.59157  0.90995  0.68284  1.0000
  H   H919      1.0  0.47538  0.68564  0.67171  1.0000
  C   C1153     1.0  0.49865  0.63757  0.73298  1.0000
  C   C1154     1.0  0.50154  0.66533  0.71878  1.0000
  C   C1155     1.0  0.51104  0.61519  0.68154  1.0000
  P   P39       1.0  0.49488  0.69761  0.74197  1.0000
  C   C1156     1.0  0.49402  0.68906  0.79022  1.0000
  C   C1157     1.0  0.50979  0.72620  0.73779  1.0000
  C   C1158     1.0  0.52679  0.71913  0.73682  1.0000
  C   C1159     1.0  0.53852  0.74103  0.73517  1.0000
  C   C1160     1.0  0.53338  0.77024  0.73417  1.0000
  C   C1161     1.0  0.51647  0.77756  0.73490  1.0000
  C   C1162     1.0  0.50471  0.75567  0.73681  1.0000
  C   C1163     1.0  0.50823  0.69173  0.81489  1.0000
  C   C1164     1.0  0.49298  0.52372  0.49917  1.0000
  H   H920      1.0  0.63000  0.64856  0.81454  1.0000
  H   H921      1.0  0.60300  0.50791  0.85813  1.0000
  C   C1165     1.0  0.63098  0.55458  0.80416  1.0000
  C   C1166     1.0  0.47446  0.70959  0.72256  1.0000
  C   C1167     1.0  0.46817  0.70021  0.68766  1.0000
  H   H922      1.0  0.58925  0.52124  0.54997  1.0000
  C   C1168     1.0  0.44269  0.72837  0.69289  1.0000
  C   C1169     1.0  0.44886  0.73782  0.72762  1.0000
  C   C1170     1.0  0.46468  0.72848  0.74243  1.0000
  C   C1171     1.0  0.57500  0.59833  0.85930  1.0000
  H   H923      1.0  0.49297  0.63495  0.75862  1.0000
  C   C1172     1.0  0.59110  0.50905  0.84220  1.0000
  H   H924      1.0  0.53109  0.69665  0.73829  1.0000
  H   H925      1.0  0.55167  0.73527  0.73562  1.0000
  H   H926      1.0  0.54252  0.78721  0.73336  1.0000
  C   C1173     1.0  0.58163  0.63557  0.90459  1.0000
  H   H927      1.0  0.51997  0.69843  0.80546  1.0000
  C   C1174     1.0  0.56006  0.51041  0.80166  1.0000
  C   C1175     1.0  0.51376  0.64272  0.66694  1.0000
  H   H928      1.0  0.61739  0.91943  0.69688  1.0000
  H   H929      1.0  0.46819  0.67593  0.78480  1.0000
  H   H930      1.0  0.49181  0.67331  0.89469  1.0000
  C   C1176     1.0  0.33361  0.79068  0.75534  1.0000
  H   H931      1.0  0.60679  0.70747  0.88652  1.0000
  H   H932      1.0  0.44141  0.75243  0.74310  1.0000
  H   H933      1.0  0.46930  0.73605  0.76938  1.0000
  H   H934      1.0  0.51505  0.59573  0.66780  1.0000
  H   H935      1.0  0.62421  0.95631  0.75144  1.0000
  H   H936      1.0  0.63213  0.70660  0.92862  1.0000
  C   C1177     1.0  0.64531  0.66125  0.86295  1.0000
  H   H937      1.0  0.51098  0.68890  0.67348  1.0000
  H   H938      1.0  0.57225  0.91223  0.59653  1.0000
  C   C1178     1.0  0.50891  0.66773  0.68529  1.0000
  H   H939      1.0  0.48096  0.95590  0.50438  1.0000
  C   C1179     1.0  0.60770  0.91710  0.67482  1.0000
  H   H940      1.0  0.35393  0.79854  0.72183  1.0000
  C   C1180     1.0  0.64633  0.67817  0.89504  1.0000
  H   H941      1.0  0.61547  0.66263  0.62817  1.0000
  C   C1181     1.0  0.64301  0.61893  0.58720  1.0000
  C   C1182     1.0  0.61685  0.67839  0.84757  1.0000
  H   H942      1.0  0.56632  0.90300  0.66089  1.0000
  H   H943      1.0  0.65676  0.98996  0.63666  1.0000
  H   H944      1.0  0.51825  0.68859  0.87146  1.0000
  H   H945      1.0  0.60546  0.67869  0.82940  1.0000
  H   H946      1.0  0.59247  0.54474  0.74791  1.0000
  C   C1183     1.0  0.63429  0.97104  0.74750  1.0000
  H   H947      1.0  0.46684  0.66632  0.85114  1.0000
  H   H948      1.0  0.48668  0.89006  0.98948  1.0000
  H   H949      1.0  0.34193  0.76423  0.82727  1.0000
  H   H950      1.0  0.62938  0.97096  0.56950  1.0000
  C   C1184     1.0  0.47838  0.67342  0.84093  1.0000
  H   H951      1.0  0.50146  0.59126  0.72581  1.0000
  H   H952      1.0  0.59638  0.86668  0.57168  1.0000
  C   C1185     1.0  0.50335  0.61266  0.71433  1.0000
  C   C1186     1.0  0.58176  0.85353  0.52297  1.0000
  H   H953      1.0  0.58081  0.83127  0.53244  1.0000
  C   C1187     1.0  0.62864  0.62742  0.60381  1.0000
  H   H954      1.0  0.35998  0.84714  0.74839  1.0000
  H   H955      1.0  0.65591  0.54607  0.78925  1.0000
  C   C1188     1.0  0.34046  0.84539  0.78536  1.0000
  H   H956      1.0  0.61874  0.54899  0.89118  1.0000
  C   C1189     1.0  0.47917  0.67917  0.80341  1.0000
  C   C1190     1.0  0.49716  0.73701  0.97555  1.0000
  C   C1191     1.0  0.65199  0.94792  0.55990  1.0000
  H   H957      1.0  0.49177  0.76199  0.73792  1.0000
  C   C1192     1.0  0.60385  0.60857  0.87829  1.0000
  C   C1193     1.0  0.59593  0.58450  0.77915  1.0000
  C   C1194     1.0  0.59700  0.61492  0.77653  1.0000
  C   C1195     1.0  0.59536  0.62881  0.74217  1.0000
  C   C1196     1.0  0.59239  0.61251  0.71021  1.0000
  H   H958      1.0  0.63793  0.65012  0.95836  1.0000
  C   C1197     1.0  0.59326  0.56823  0.74682  1.0000
  C   C1198     1.0  0.32751  0.82906  0.79775  1.0000
  C   C1199     1.0  0.59862  0.62982  0.90234  1.0000
  H   H959      1.0  0.52866  0.86067  0.92730  1.0000
  C   C1200     1.0  0.62036  0.55597  0.83283  1.0000
  H   H960      1.0  0.43044  0.73562  0.68142  1.0000
  H   H961      1.0  0.59875  0.62809  0.80093  1.0000
  H   H962      1.0  0.59570  0.65235  0.74046  1.0000
  H   H963      1.0  0.64320  0.58658  0.68560  1.0000
  C   C1201     1.0  0.48466  0.71888  0.98733  1.0000
  H   H964      1.0  0.64025  0.54127  0.71999  1.0000
  H   H965      1.0  0.60768  0.64246  0.91866  1.0000
  H   H966      1.0  0.61707  0.60555  0.87584  1.0000
  C   C1202     1.0  0.63909  0.67624  0.61069  1.0000
  C   C1203     1.0  0.59169  0.90269  0.53332  1.0000
  C   C1204     1.0  0.64946  0.89656  0.54723  1.0000
  C   C1205     1.0  0.61321  0.51279  0.62092  1.0000
  C   C1206     1.0  0.63099  0.99147  0.64944  1.0000
  P   P40       1.0  0.60257  0.92882  0.56282  1.0000
  C   C1207     1.0  0.64358  0.54028  0.87590  1.0000
  C   C1208     1.0  0.52401  0.83988  0.97866  1.0000
  C   C1209     1.0  0.58026  0.50526  0.54002  1.0000
  C   C1210     1.0  0.34654  0.80707  0.74300  1.0000
  H   H967      1.0  0.50113  0.96857  0.55718  1.0000
  C   C1211     1.0  0.55831  0.82755  0.98613  1.0000
  H   H968      1.0  0.51064  0.84362  0.97500  1.0000
  C   C1212     1.0  0.50738  0.68587  0.85235  1.0000
  H   H969      1.0  0.61896  0.61175  0.60731  1.0000
  C   C1213     1.0  0.57892  0.90788  0.65446  1.0000
  H   H970      1.0  0.63285  0.97476  0.67039  1.0000
  Fe  Fe80      1.0  0.54170  0.53230  0.69535  1.0000
  S   S159      1.0  0.59477  0.53114  0.63304  1.0000
  C   C1214     1.0  0.61116  0.92249  0.63843  1.0000
  C   C1215     1.0  0.60106  0.97971  0.52000  1.0000
  C   C1216     1.0  0.65159  0.54443  0.70673  1.0000
  S   S160      1.0  0.59862  0.99240  0.66752  1.0000
  C   C1217     1.0  0.33967  0.73296  0.87018  1.0000
  H   H971      1.0  0.57762  0.65257  0.92259  1.0000
  H   H972      1.0  0.44755  0.70222  0.64603  1.0000
  C   C1218     1.0  0.63223  0.89873  0.55026  1.0000
  H   H973      1.0  0.51254  0.80027  0.73457  1.0000
  H   H974      1.0  0.63005  0.80707  0.97746  1.0000
  C   C1219     1.0  0.56984  0.61988  0.88303  1.0000
  H   H975      1.0  0.51973  0.64460  0.64151  1.0000
  H   H976      1.0  0.64395  0.59674  0.57810  1.0000
  C   C1220     1.0  0.58564  0.53463  0.82309  1.0000
  H   H977      1.0  0.63752  0.69850  0.61961  1.0000
  H   H978      1.0  0.56535  0.55455  0.78835  1.0000
  H   H979      1.0  0.65399  0.52767  0.60822  1.0000
  H   H980      1.0  0.65214  0.73798  0.94016  1.0000
  C   C1221     1.0  0.59057  0.87368  0.54515  1.0000
  S   S161      1.0  0.51413  0.51769  0.56332  1.0000
  C   C1222     1.0  0.64667  0.65765  0.98018  1.0000
  C   C1223     1.0  0.49594  0.50889  0.53316  1.0000
  C   C1224     1.0  0.65024  0.96006  0.74221  1.0000
  C   C1225     1.0  0.58391  0.91116  0.49890  1.0000
  H   H981      1.0  0.33374  0.70312  0.91287  1.0000
  C   C1226     1.0  0.65328  0.57051  0.68755  1.0000
  C   C1227     1.0  0.62847  0.78419  0.98304  1.0000
  H   H982      1.0  0.56067  0.70111  0.98640  1.0000
  H   H983      1.0  0.65523  0.87584  0.54119  1.0000
  C   C1228     1.0  0.32885  0.71678  0.88994  1.0000
  C   C1229     1.0  0.56337  0.51306  0.53417  1.0000
  S   S162      1.0  0.56437  0.50269  0.70368  1.0000
  H   H984      1.0  0.33118  0.76941  0.74366  1.0000
  H   H985      1.0  0.65261  0.93677  0.74230  1.0000
  H   H986      1.0  0.50904  0.77804  0.98428  1.0000
  H   H987      1.0  0.48260  0.69811  0.97417  1.0000
  H   H988      1.0  0.53862  0.49840  0.51907  1.0000
  Fe  Fe81      1.0  0.75778  0.24414  0.34812  1.0000
  S   S163      1.0  0.77079  0.20645  0.37901  1.0000
  S   S164      1.0  0.75804  0.24557  0.28537  1.0000
  Fe  Fe82      1.0  0.75251  0.27762  0.41955  1.0000
  S   S165      1.0  0.76534  0.24219  0.45568  1.0000
  H   H989      1.0  0.76745  0.14500  0.02158  1.0000
  Fe  Fe83      1.0  0.78437  0.24052  0.41293  1.0000
  S   S166      1.0  0.81224  0.23244  0.42841  1.0000
  Fe  Fe84      1.0  0.75110  0.20995  0.41938  1.0000
  S   S167      1.0  0.73578  0.17053  0.43568  1.0000
  S   S168      1.0  0.77263  0.27809  0.37983  1.0000
  S   S169      1.0  0.73701  0.24542  0.38552  1.0000
  Fe  Fe85      1.0  0.92532  0.20459  0.30914  1.0000
  S   S170      1.0  0.91563  0.21101  0.36514  1.0000
  S   S171      1.0  0.91990  0.15909  0.28497  1.0000
  Fe  Fe86      1.0  0.93202  0.27035  0.30154  1.0000
  S   S172      1.0  0.92284  0.27993  0.35678  1.0000
  S   S173      1.0  0.94180  0.30906  0.26955  1.0000
  Fe  Fe87      1.0  0.93780  0.24026  0.37822  1.0000
  S   S174      1.0  0.95073  0.24003  0.43809  1.0000
  Fe  Fe88      1.0  0.90167  0.25006  0.34008  1.0000
  S   S175      1.0  0.87411  0.26452  0.33787  1.0000
  S   S176      1.0  0.94824  0.23173  0.32335  1.0000
  S   S177      1.0  0.91023  0.24258  0.28367  1.0000
  Fe  Fe89      1.0  0.91499  0.44844  0.13369  1.0000
  H   H990      1.0  0.83388  0.06397  0.23273  1.0000
  S   S178      1.0  0.90684  0.40475  0.15728  1.0000
  C   C1230     1.0  0.98277  0.01610  0.22005  1.0000
  S   S179      1.0  0.93358  0.01936  0.09288  1.0000
  C   C1231     1.0  0.73277  0.37460  0.15157  1.0000
  H   H991      1.0  0.80840  0.44306  0.07946  1.0000
  H   H992      1.0  0.78881  0.11642  0.07400  1.0000
  Fe  Fe90      1.0  0.93818  0.01918  0.15476  1.0000
  S   S180      1.0  0.94903  0.05982  0.18351  1.0000
  S   S181      1.0  0.91272  0.45708  0.07210  1.0000
  H   H993      1.0  0.76325  0.24805  0.09439  1.0000
  Fe  Fe91      1.0  0.69983  0.25277  0.09914  1.0000
  S   S182      1.0  0.72289  0.23988  0.07193  1.0000
  S   S183      1.0  0.69754  0.25431  0.16097  1.0000
  H   H994      1.0  0.68112  0.30774  0.27096  1.0000
  Fe  Fe92      1.0  0.70549  0.21500  0.03260  1.0000
  C   C1232     1.0  0.71308  0.30578  0.33803  1.0000
  Fe  Fe93      1.0  0.71627  0.27877  0.03479  1.0000
  S   S184      1.0  0.77068  0.08548  0.99887  1.0000
  S   S185      1.0  0.68262  0.22531  0.06238  1.0000
  S   S186      1.0  0.69430  0.29301  0.06439  1.0000
  H   H995      1.0  0.75693  0.24776  0.20688  1.0000
  H   H996      1.0  0.69851  0.25269  0.23977  1.0000
  C   C1233     1.0  0.71929  0.36223  0.02791  1.0000
  H   H997      1.0  0.95791  0.10970  0.13017  1.0000
  H   H998      1.0  0.70972  0.34967  0.03937  1.0000
  C   C1234     1.0  0.96940  0.42517  0.24127  1.0000
  C   C1235     1.0  0.91135  0.27813  0.44720  1.0000
  H   H999      1.0  0.73526  0.39324  0.13462  1.0000
  C   C1236     1.0  0.79349  0.37313  0.02247  1.0000
  C   C1237     1.0  0.81011  0.11549  0.34548  1.0000
  C   C1238     1.0  0.76538  0.34688  0.30810  1.0000
  H   H1000     1.0  0.81503  0.08237  0.18000  1.0000
  H   H1001     1.0  0.80124  0.32822  0.03253  1.0000
  C   C1239     1.0  0.93782  0.37825  0.33030  1.0000
  C   C1240     1.0  0.81325  0.14081  0.23657  1.0000
  S   S187      1.0  0.70702  0.16841  0.01172  1.0000
  C   C1241     1.0  0.72660  0.39187  0.49177  1.0000
  C   C1242     1.0  0.72663  0.32622  0.19481  1.0000
  C   C1243     1.0  0.94363  0.35491  0.35289  1.0000
  H   H1002     1.0  0.80163  0.13131  0.18272  1.0000
  C   C1244     1.0  0.92823  0.13205  0.25619  1.0000
  C   C1245     1.0  0.94329  0.13536  0.24015  1.0000
  C   C1246     1.0  0.94938  0.11309  0.21796  1.0000
  C   C1247     1.0  0.94048  0.08731  0.21123  1.0000
  C   C1248     1.0  0.92541  0.08399  0.22726  1.0000
  C   C1249     1.0  0.91933  0.10623  0.24943  1.0000
  H   H1003     1.0  0.95033  0.15496  0.24510  1.0000
  H   H1004     1.0  0.96113  0.11586  0.20608  1.0000
  H   H1005     1.0  0.91856  0.06411  0.22301  1.0000
  H   H1006     1.0  0.90774  0.10317  0.26180  1.0000
  C   C1250     1.0  0.93172  0.33543  0.23842  1.0000
  C   C1251     1.0  0.94094  0.35905  0.22679  1.0000
  C   C1252     1.0  0.93354  0.38069  0.20256  1.0000
  C   C1253     1.0  0.91680  0.37879  0.18910  1.0000
  C   C1254     1.0  0.90757  0.35514  0.20070  1.0000
  C   C1255     1.0  0.91495  0.33362  0.22511  1.0000
  H   H1007     1.0  0.95398  0.36043  0.23633  1.0000
  H   H1008     1.0  0.94086  0.39855  0.19375  1.0000
  H   H1009     1.0  0.89466  0.35327  0.19035  1.0000
  H   H1010     1.0  0.90777  0.31535  0.23316  1.0000
  C   C1256     1.0  0.97030  0.24221  0.46618  1.0000
  C   C1257     1.0  0.90633  0.33406  0.47439  1.0000
  C   C1258     1.0  0.73676  0.09803  0.99530  1.0000
  H   H1011     1.0  0.79283  0.24109  0.28048  1.0000
  H   H1012     1.0  0.73371  0.24993  0.15754  1.0000
  C   C1259     1.0  0.82905  0.23997  0.40131  1.0000
  C   C1260     1.0  0.82722  0.25921  0.37131  1.0000
  C   C1261     1.0  0.84119  0.26645  0.35243  1.0000
  C   C1262     1.0  0.85702  0.25385  0.36242  1.0000
  C   C1263     1.0  0.85881  0.23421  0.39199  1.0000
  C   C1264     1.0  0.84491  0.22753  0.41150  1.0000
  H   H1013     1.0  0.81514  0.26914  0.36340  1.0000
  H   H1014     1.0  0.83975  0.28204  0.33002  1.0000
  H   H1015     1.0  0.87094  0.22461  0.40026  1.0000
  H   H1016     1.0  0.84649  0.21282  0.43489  1.0000
  S   S188      1.0  0.72721  0.44802  0.00690  1.0000
  C   C1265     1.0  0.98753  0.02520  0.18587  1.0000
  C   C1266     1.0  0.76646  0.32185  0.14255  1.0000
  C   C1267     1.0  0.98055  0.08372  0.13360  1.0000
  C   C1268     1.0  0.76023  0.44693  0.07899  1.0000
  C   C1269     1.0  0.88293  0.43945  0.41113  1.0000
  C   C1270     1.0  0.73709  0.14203  0.46979  1.0000
  C   C1271     1.0  0.95851  0.42050  0.26860  1.0000
  H   H1017     1.0  0.78213  0.15581  0.11625  1.0000
  H   H1018     1.0  0.86479  0.40578  0.40518  1.0000
  H   H1019     1.0  0.76328  0.49313  0.08456  1.0000
  H   H1020     1.0  0.72443  0.30718  0.21115  1.0000
  C   C1272     1.0  0.74094  0.24845  0.25148  1.0000
  C   C1273     1.0  0.72441  0.24987  0.26055  1.0000
  C   C1274     1.0  0.71127  0.25142  0.23249  1.0000
  C   C1275     1.0  0.71449  0.25138  0.19517  1.0000
  C   C1276     1.0  0.73105  0.24991  0.18611  1.0000
  C   C1277     1.0  0.74418  0.24871  0.21415  1.0000
  H   H1021     1.0  0.72174  0.24979  0.28914  1.0000
  C   C1278     1.0  0.83456  0.23761  0.27125  1.0000
  C   C1279     1.0  0.81834  0.24919  0.27006  1.0000
  C   C1280     1.0  0.82481  0.19140  0.29322  1.0000
  C   C1281     1.0  0.83781  0.20888  0.28285  1.0000
  P   P41       1.0  0.82880  0.15369  0.30595  1.0000
  H   H1022     1.0  0.91602  0.44278  0.23670  1.0000
  H   H1023     1.0  0.76071  0.40074  0.07152  1.0000
  C   C1282     1.0  0.88958  0.38783  0.41934  1.0000
  C   C1283     1.0  0.85058  0.15019  0.32223  1.0000
  C   C1284     1.0  0.86245  0.14221  0.29782  1.0000
  C   C1285     1.0  0.87941  0.14146  0.30948  1.0000
  C   C1286     1.0  0.88476  0.14927  0.34535  1.0000
  C   C1287     1.0  0.87308  0.15769  0.36974  1.0000
  C   C1288     1.0  0.85604  0.15819  0.35827  1.0000
  H   H1024     1.0  0.84480  0.25119  0.26462  1.0000
  H   H1025     1.0  0.81596  0.27169  0.26197  1.0000
  H   H1026     1.0  0.85057  0.20074  0.28439  1.0000
  H   H1027     1.0  0.73700  0.32437  0.33449  1.0000
  C   C1289     1.0  0.70502  0.32735  0.26683  1.0000
  H   H1028     1.0  0.85876  0.13741  0.26944  1.0000
  H   H1029     1.0  0.88848  0.13561  0.29037  1.0000
  H   H1030     1.0  0.89801  0.14940  0.35389  1.0000
  H   H1031     1.0  0.87728  0.16445  0.39731  1.0000
  H   H1032     1.0  0.84730  0.16562  0.37734  1.0000
  H   H1033     1.0  0.88072  0.00760  0.26370  1.0000
  C   C1290     1.0  0.94654  0.46888  0.25738  1.0000
  C   C1291     1.0  0.76409  0.31737  0.25325  1.0000
  C   C1292     1.0  0.88209  0.34290  0.36793  1.0000
  C   C1293     1.0  0.89698  0.34058  0.35065  1.0000
  C   C1294     1.0  0.89663  0.33577  0.31285  1.0000
  C   C1295     1.0  0.88138  0.33360  0.29191  1.0000
  C   C1296     1.0  0.86645  0.33647  0.30879  1.0000
  C   C1297     1.0  0.86677  0.34127  0.34669  1.0000
  H   H1034     1.0  0.90891  0.34209  0.36650  1.0000
  H   H1035     1.0  0.90822  0.33320  0.29995  1.0000
  H   H1036     1.0  0.88118  0.32934  0.26271  1.0000
  H   H1037     1.0  0.85466  0.33426  0.29264  1.0000
  H   H1038     1.0  0.89295  0.29002  0.40352  1.0000
  C   C1298     1.0  0.76465  0.31941  0.10431  1.0000
  C   C1299     1.0  0.80854  0.20319  0.29184  1.0000
  H   H1039     1.0  0.74498  0.10174  0.15979  1.0000
  C   C1300     1.0  0.75495  0.10487  0.14199  1.0000
  C   C1301     1.0  0.74813  0.40868  0.27483  1.0000
  C   C1302     1.0  0.78455  0.35803  0.09846  1.0000
  H   H1040     1.0  0.81762  0.18607  0.36893  1.0000
  C   C1303     1.0  0.87428  0.05275  0.25247  1.0000
  C   C1304     1.0  0.90083  0.41523  0.31420  1.0000
  C   C1305     1.0  0.98383  0.00102  0.02461  1.0000
  C   C1306     1.0  0.77580  0.13533  0.11770  1.0000
  C   C1307     1.0  0.82809  0.08543  0.23384  1.0000
  H   H1041     1.0  0.77783  0.34555  0.18842  1.0000
  H   H1042     1.0  0.71610  0.29806  0.36600  1.0000
  C   C1308     1.0  0.78115  0.33493  0.31899  1.0000
  H   H1043     1.0  0.73999  0.39599  0.20217  1.0000
  C   C1309     1.0  0.72494  0.32091  0.31995  1.0000
  C   C1310     1.0  0.88472  0.40896  0.29950  1.0000
  C   C1311     1.0  0.89131  0.42725  0.24020  1.0000
  C   C1312     1.0  0.84254  0.36845  0.12221  1.0000
  C   C1313     1.0  0.73219  0.35188  0.21198  1.0000
  H   H1044     1.0  0.93173  0.37379  0.30334  1.0000
  C   C1314     1.0  0.72106  0.33168  0.28403  1.0000
  H   H1045     1.0  0.67201  0.34232  0.07885  1.0000
  C   C1315     1.0  0.76337  0.13137  0.14200  1.0000
  C   C1316     1.0  0.73876  0.34701  0.46752  1.0000
  C   C1317     1.0  0.81290  0.16418  0.36992  1.0000
  H   H1046     1.0  0.88770  0.43166  0.21136  1.0000
  H   H1047     1.0  0.71259  0.12651  0.45255  1.0000
  C   C1318     1.0  0.73332  0.34805  0.01556  1.0000
  C   C1319     1.0  0.82531  0.36721  0.11300  1.0000
  C   C1320     1.0  0.80053  0.10796  0.37434  1.0000
  H   H1048     1.0  0.75974  0.36213  0.32615  1.0000
  H   H1049     1.0  0.71911  0.30518  0.14365  1.0000
  C   C1321     1.0  0.83944  0.46704  0.00933  1.0000
  C   C1322     1.0  0.77356  0.33747  0.08231  1.0000
  C   C1323     1.0  0.96700  0.09840  0.11477  1.0000
  C   C1324     1.0  0.81784  0.38348  0.08302  1.0000
  C   C1325     1.0  0.85247  0.38554  0.10132  1.0000
  C   C1326     1.0  0.84523  0.40098  0.07077  1.0000
  C   C1327     1.0  0.82804  0.39973  0.06140  1.0000
  C   C1328     1.0  0.72373  0.32497  0.15653  1.0000
  C   C1329     1.0  0.87810  0.02422  0.24266  1.0000
  C   C1330     1.0  0.72498  0.14569  0.00983  1.0000
  C   C1331     1.0  0.97340  0.48251  0.01421  1.0000
  H   H1050     1.0  0.78512  0.28869  0.24776  1.0000
  H   H1051     1.0  0.90459  0.47367  0.33354  1.0000
  C   C1332     1.0  0.67045  0.36259  0.02523  1.0000
  C   C1333     1.0  0.79714  0.12851  0.40092  1.0000
  C   C1334     1.0  0.78839  0.31421  0.29708  1.0000
  H   H1052     1.0  0.70459  0.16350  0.09078  1.0000
  C   C1335     1.0  0.98561  0.24691  0.45149  1.0000
  C   C1336     1.0  0.85748  0.36375  0.46161  1.0000
  C   C1337     1.0  0.70774  0.18050  0.18156  1.0000
  C   C1338     1.0  0.80344  0.15650  0.39883  1.0000
  C   C1339     1.0  0.77989  0.30557  0.26411  1.0000
  C   C1340     1.0  0.97660  0.08290  0.05677  1.0000
  C   C1341     1.0  0.84267  0.35798  0.47771  1.0000
  H   H1053     1.0  0.98180  0.08427  0.16340  1.0000
  H   H1054     1.0  0.86581  0.38669  0.10863  1.0000
  H   H1055     1.0  0.85298  0.41402  0.05441  1.0000
  H   H1056     1.0  0.82267  0.41178  0.03747  1.0000
  C   C1342     1.0  0.71968  0.42854  0.30690  1.0000
  C   C1343     1.0  0.83830  0.00887  0.02487  1.0000
  C   C1344     1.0  0.95762  0.47361  0.23051  1.0000
  H   H1057     1.0  0.90433  0.41043  0.34292  1.0000
  H   H1058     1.0  0.95434  0.10897  0.06193  1.0000
  C   C1345     1.0  0.89773  0.32577  0.44115  1.0000
  C   C1346     1.0  0.83410  0.33242  0.46925  1.0000
  H   H1059     1.0  0.68733  0.18147  0.13949  1.0000
  H   H1060     1.0  0.77448  0.06939  0.07565  1.0000
  H   H1061     1.0  0.81263  0.09919  0.32539  1.0000
  C   C1347     1.0  0.96895  0.45169  0.22220  1.0000
  H   H1062     1.0  0.87598  0.39924  0.31674  1.0000
  C   C1348     1.0  0.94024  0.40702  0.34200  1.0000
  H   H1063     1.0  0.86520  0.46261  0.03184  1.0000
  H   H1064     1.0  0.77139  0.33572  0.05275  1.0000
  C   C1349     1.0  0.85350  0.02001  0.04044  1.0000
  S   S189      1.0  0.93917  0.47205  0.14266  1.0000
  C   C1350     1.0  0.76956  0.47219  0.08267  1.0000
  H   H1065     1.0  0.92472  0.42840  0.42910  1.0000
  C   C1351     1.0  0.78569  0.41797  0.07586  1.0000
  C   C1352     1.0  0.77684  0.34300  0.15883  1.0000
  H   H1066     1.0  0.81805  0.35330  0.12914  1.0000
  H   H1067     1.0  0.70873  0.43612  0.31975  1.0000
  C   C1353     1.0  0.84040  0.31247  0.44497  1.0000
  C   C1354     1.0  0.87785  0.41050  0.41141  1.0000
  H   H1068     1.0  0.97736  0.01629  0.04105  1.0000
  H   H1069     1.0  0.83955  0.09438  0.28776  1.0000
  C   C1355     1.0  0.86627  0.00138  0.05634  1.0000
  C   C1356     1.0  0.71763  0.39283  0.02547  1.0000
  C   C1357     1.0  0.91426  0.08496  0.11284  1.0000
  C   C1358     1.0  0.91083  0.08882  0.07498  1.0000
  C   C1359     1.0  0.89448  0.09454  0.06043  1.0000
  C   C1360     1.0  0.88156  0.09649  0.08376  1.0000
  C   C1361     1.0  0.88488  0.09224  0.12191  1.0000
  C   C1362     1.0  0.90133  0.08626  0.13614  1.0000
  P   P42       1.0  0.86838  0.09517  0.15265  1.0000
  C   C1363     1.0  0.87199  0.06734  0.18793  1.0000
  C   C1364     1.0  0.86914  0.13030  0.17493  1.0000
  C   C1365     1.0  0.85439  0.14464  0.18363  1.0000
  C   C1366     1.0  0.85510  0.17075  0.20319  1.0000
  C   C1367     1.0  0.87053  0.18232  0.21515  1.0000
  C   C1368     1.0  0.88524  0.16787  0.20739  1.0000
  C   C1369     1.0  0.88458  0.14205  0.18734  1.0000
  C   C1370     1.0  0.87115  0.07421  0.22525  1.0000
  C   C1371     1.0  0.74552  0.36479  0.00038  1.0000
  C   C1372     1.0  0.70046  0.17637  0.14595  1.0000
  C   C1373     1.0  0.74732  0.43712  0.28809  1.0000
  C   C1374     1.0  0.87618  0.03873  0.17844  1.0000
  C   C1375     1.0  0.84870  0.08971  0.12576  1.0000
  C   C1376     1.0  0.84086  0.11299  0.10540  1.0000
  C   C1377     1.0  0.82664  0.10839  0.08155  1.0000
  C   C1378     1.0  0.82017  0.08048  0.07757  1.0000
  C   C1379     1.0  0.82780  0.05725  0.09778  1.0000
  C   C1380     1.0  0.84201  0.06177  0.12168  1.0000
  H   H1070     1.0  0.92690  0.08030  0.12412  1.0000
  H   H1071     1.0  0.92079  0.08676  0.05689  1.0000
  H   H1072     1.0  0.86004  0.30222  0.41051  1.0000
  H   H1073     1.0  0.86904  0.10054  0.07159  1.0000
  H   H1074     1.0  0.90420  0.08237  0.16521  1.0000
  H   H1075     1.0  0.84235  0.13547  0.17592  1.0000
  H   H1076     1.0  0.84370  0.18177  0.20969  1.0000
  H   H1077     1.0  0.87120  0.20225  0.23091  1.0000
  H   H1078     1.0  0.89724  0.17645  0.21745  1.0000
  H   H1079     1.0  0.89620  0.13110  0.18248  1.0000
  H   H1080     1.0  0.86836  0.09614  0.23361  1.0000
  H   H1081     1.0  0.84827  0.35609  0.14548  1.0000
  C   C1381     1.0  0.94690  0.44226  0.27672  1.0000
  C   C1382     1.0  0.75289  0.10811  0.00347  1.0000
  H   H1082     1.0  0.87745  0.03307  0.14996  1.0000
  H   H1083     1.0  0.84618  0.13447  0.10672  1.0000
  H   H1084     1.0  0.82095  0.12625  0.06513  1.0000
  H   H1085     1.0  0.80952  0.07665  0.05804  1.0000
  H   H1086     1.0  0.82314  0.03542  0.09369  1.0000
  H   H1087     1.0  0.84801  0.04308  0.13556  1.0000
  C   C1383     1.0  0.78210  0.24586  0.14000  1.0000
  C   C1384     1.0  0.78854  0.22989  0.17089  1.0000
  C   C1385     1.0  0.78106  0.20399  0.18045  1.0000
  C   C1386     1.0  0.76686  0.19410  0.15950  1.0000
  C   C1387     1.0  0.76069  0.21001  0.12812  1.0000
  P   P43       1.0  0.75717  0.16045  0.17127  1.0000
  C   C1388     1.0  0.69736  0.30078  0.32030  1.0000
  C   C1389     1.0  0.76272  0.15150  0.21931  1.0000
  C   C1390     1.0  0.76895  0.12370  0.23033  1.0000
  C   C1391     1.0  0.77326  0.11743  0.26760  1.0000
  C   C1392     1.0  0.77132  0.13877  0.29410  1.0000
  C   C1393     1.0  0.76535  0.16648  0.28330  1.0000
  C   C1394     1.0  0.76126  0.17288  0.24615  1.0000
  C   C1395     1.0  0.73481  0.16562  0.16219  1.0000
  C   C1396     1.0  0.72482  0.17523  0.18972  1.0000
  H   H1088     1.0  0.70682  0.40354  0.03546  1.0000
  C   C1397     1.0  0.83132  0.10276  0.26492  1.0000
  C   C1398     1.0  0.78567  0.36128  0.13686  1.0000
  C   C1399     1.0  0.72730  0.16112  0.12649  1.0000
  H   H1089     1.0  0.78788  0.26592  0.13254  1.0000
  H   H1090     1.0  0.79931  0.23761  0.18756  1.0000
  H   H1091     1.0  0.78626  0.19202  0.20443  1.0000
  H   H1092     1.0  0.77058  0.10677  0.21050  1.0000
  H   H1093     1.0  0.77791  0.09593  0.27603  1.0000
  H   H1094     1.0  0.77428  0.13392  0.32306  1.0000
  H   H1095     1.0  0.76374  0.18308  0.30374  1.0000
  H   H1096     1.0  0.75684  0.19457  0.23839  1.0000
  H   H1097     1.0  0.95910  0.39975  0.28283  1.0000
  H   H1098     1.0  0.97852  0.02452  0.16212  1.0000
  C   C1400     1.0  0.74111  0.15572  0.01852  1.0000
  P   P44       1.0  0.93276  0.43685  0.31208  1.0000
  H   H1099     1.0  0.70990  0.38618  0.29624  1.0000
  C   C1401     1.0  0.77157  0.08648  0.09458  1.0000
  H   H1100     1.0  0.83395  0.29231  0.43923  1.0000
  H   H1101     1.0  0.73004  0.17946  0.21730  1.0000
  C   C1402     1.0  0.78692  0.47050  0.08275  1.0000
  H   H1102     1.0  0.95623  0.34170  0.40483  1.0000
  H   H1103     1.0  0.97507  0.08241  0.02701  1.0000
  H   H1104     1.0  0.91336  0.25642  0.43672  1.0000
  C   C1403     1.0  0.81746  0.09577  0.20415  1.0000
  S   S190      1.0  0.89966  0.48818  0.14672  1.0000
  H   H1105     1.0  0.79328  0.37815  0.14976  1.0000
  C   C1404     1.0  0.76822  0.23584  0.11855  1.0000
  S   S191      1.0  0.88525  0.01685  0.07484  1.0000
  C   C1405     1.0  0.89979  0.44591  0.41799  1.0000
  H   H1106     1.0  0.70021  0.18890  0.20257  1.0000
  C   C1406     1.0  0.89994  0.29737  0.42828  1.0000
  C   C1407     1.0  0.72682  0.34914  0.13490  1.0000
  H   H1107     1.0  0.75004  0.20257  0.11097  1.0000
  H   H1108     1.0  0.95062  0.43388  0.38649  1.0000
  C   C1408     1.0  0.77979  0.11296  0.09397  1.0000
  C   C1409     1.0  0.95409  0.38853  0.39953  1.0000
  S   S192      1.0  0.73810  0.31978  0.43246  1.0000
  C   C1410     1.0  0.80998  0.12338  0.20562  1.0000
  H   H1109     1.0  0.79416  0.49015  0.08451  1.0000
  H   H1110     1.0  0.97015  0.00888  0.22241  1.0000
  H   H1111     1.0  0.96053  0.39238  0.42626  1.0000
  C   C1411     1.0  0.91162  0.42340  0.42439  1.0000
  C   C1412     1.0  0.99016  0.06823  0.07558  1.0000
  C   C1413     1.0  0.71022  0.16648  0.11850  1.0000
  H   H1112     1.0  0.94214  0.33280  0.34318  1.0000
  H   H1113     1.0  0.80095  0.17238  0.41967  1.0000
  S   S193      1.0  0.96148  0.48188  0.05394  1.0000
  C   C1414     1.0  0.81630  0.14376  0.34293  1.0000
  H   H1114     1.0  0.97720  0.45513  0.20062  1.0000
  C   C1415     1.0  0.82409  0.13079  0.26635  1.0000
  C   C1416     1.0  0.90660  0.39443  0.42439  1.0000
  C   C1417     1.0  0.85446  0.47709  0.02733  1.0000
  H   H1115     1.0  0.85509  0.34336  0.35922  1.0000
  H   H1116     1.0  0.79573  0.08619  0.37625  1.0000
  C   C1418     1.0  0.87999  0.41481  0.26243  1.0000
  C   C1419     1.0  0.95168  0.35998  0.38756  1.0000
  H   H1117     1.0  0.80729  0.16204  0.23718  1.0000
  H   H1118     1.0  0.75600  0.30396  0.09149  1.0000
  H   H1119     1.0  0.91604  0.37727  0.42788  1.0000
  H   H1120     1.0  0.87378  0.45687  0.40546  1.0000
  H   H1121     1.0  0.89175  0.09680  0.03098  1.0000
  C   C1420     1.0  0.91233  0.42751  0.29192  1.0000
  C   C1421     1.0  0.69333  0.31157  0.28471  1.0000
  C   C1422     1.0  0.72352  0.12322  0.47155  1.0000
  C   C1423     1.0  0.80535  0.23201  0.28047  1.0000
  S   S194      1.0  0.73633  0.30969  0.01891  1.0000
  H   H1122     1.0  0.79832  0.19027  0.29997  1.0000
  H   H1123     1.0  0.73256  0.46893  0.31492  1.0000
  C   C1424     1.0  0.72042  0.40013  0.29355  1.0000
  H   H1124     1.0  0.68831  0.28868  0.33430  1.0000
  C   C1425     1.0  0.72663  0.36968  0.46505  1.0000
  H   H1125     1.0  0.75778  0.45140  0.28621  1.0000
  C   C1426     1.0  0.90745  0.43357  0.25478  1.0000
  C   C1427     1.0  0.94847  0.41201  0.37680  1.0000
  H   H1126     1.0  0.70144  0.33614  0.23967  1.0000
  H   H1127     1.0  0.95713  0.49413  0.21556  1.0000
  H   H1128     1.0  0.78748  0.34094  0.34515  1.0000
  H   H1129     1.0  0.90372  0.46834  0.41800  1.0000
  H   H1130     1.0  0.87401  0.05835  0.28122  1.0000
  S   S195      1.0  0.77366  0.00116  0.01275  1.0000
  H   H1131     1.0  0.73461  0.15406  0.10442  1.0000
  H   H1132     1.0  0.74673  0.44832  0.07791  1.0000
  C   C1428     1.0  0.79499  0.44352  0.07957  1.0000
  H   H1133     1.0  0.95841  0.47596  0.34234  1.0000
  H   H1134     1.0  0.75243  0.06223  0.11813  1.0000
  C   C1429     1.0  0.75912  0.08247  0.11851  1.0000
  H   H1135     1.0  0.71713  0.37007  0.44227  1.0000
  Fe  Fe94      1.0  0.67907  0.26434  0.02494  1.0000
  H   H1136     1.0  0.93761  0.48600  0.26271  1.0000
  P   P45       1.0  0.88306  0.35049  0.41642  1.0000
  C   C1430     1.0  0.86359  0.34423  0.43622  1.0000
  H   H1137     1.0  0.78966  0.12280  0.42324  1.0000
  C   C1431     1.0  0.75500  0.13699  0.01529  1.0000
  C   C1432     1.0  0.76823  0.41996  0.07536  1.0000
  C   C1433     1.0  0.92047  0.28695  0.47928  1.0000
  C   C1434     1.0  0.75675  0.33828  0.27500  1.0000
  C   C1435     1.0  0.73312  0.44702  0.30422  1.0000
  P   P46       1.0  0.73610  0.35286  0.26164  1.0000
  C   C1436     1.0  0.96496  0.09786  0.07638  1.0000
  H   H1138     1.0  0.75741  0.30926  0.22864  1.0000
  H   H1139     1.0  0.75945  0.30786  0.15940  1.0000
  C   C1437     1.0  0.73470  0.38993  0.27755  1.0000
  H   H1140     1.0  0.80032  0.30419  0.30635  1.0000
  C   C1438     1.0  0.73545  0.37602  0.18996  1.0000
  H   H1141     1.0  0.82270  0.32775  0.48193  1.0000
  H   H1142     1.0  0.75929  0.40122  0.26272  1.0000
  P   P47       1.0  0.79557  0.38275  0.07049  1.0000
  C   C1439     1.0  0.85513  0.31823  0.42867  1.0000
  H   H1143     1.0  0.72474  0.34800  0.10519  1.0000
  H   H1144     1.0  0.98593  0.24924  0.42204  1.0000
  H   H1145     1.0  0.86761  0.40957  0.25077  1.0000
  C   C1440     1.0  0.93162  0.47078  0.33661  1.0000
  H   H1146     1.0  0.97804  0.40802  0.23453  1.0000
  Fe  Fe95      1.0  0.93639  0.48316  0.08179  1.0000
  H   H1147     1.0  0.74289  0.17797  0.02727  1.0000
  C   C1441     1.0  0.82534  0.48558  0.00273  1.0000
  H   H1148     1.0  0.86423  0.38312  0.46958  1.0000
  C   C1442     1.0  0.72975  0.40952  0.00982  1.0000
  C   C1443     1.0  0.67056  0.36265  0.06359  1.0000
  C   C1444     1.0  0.99092  0.47939  0.01913  1.0000
  H   H1149     1.0  0.71717  0.40903  0.48933  1.0000
  C   C1445     1.0  0.72289  0.11675  0.99840  1.0000
  S   S196      1.0  0.91379  0.99899  0.16357  1.0000
  H   H1150     1.0  0.99021  0.01042  0.27768  1.0000
  C   C1446     1.0  0.87891  0.01718  0.20567  1.0000
  H   H1151     1.0  0.83882  0.44478  0.00003  1.0000
  C   C1447     1.0  0.91617  0.48392  0.34260  1.0000
  C   C1448     1.0  0.94637  0.48535  0.34759  1.0000
  H   H1152     1.0  0.85546  0.04322  0.03982  1.0000
  H   H1153     1.0  0.82872  0.02347  0.01235  1.0000
  H   H1154     1.0  0.94363  0.01817  0.00136  1.0000
  C   C1449     1.0  0.74368  0.39526  0.99724  1.0000
  C   C1450     1.0  0.79744  0.34466  0.01194  1.0000
  H   H1155     1.0  0.78696  0.41683  0.00227  1.0000
  H   H1156     1.0  0.90422  0.35535  0.48579  1.0000
  C   C1451     1.0  0.78939  0.39438  0.99515  1.0000
  H   H1157     1.0  0.67186  0.34201  0.01142  1.0000
  C   C1452     1.0  0.66624  0.41488  0.06243  1.0000
  H   H1158     1.0  0.66457  0.43511  0.07685  1.0000
  H   H1159     1.0  0.66876  0.38868  0.11194  1.0000
  H   H1160     1.0  0.71557  0.19839  0.48603  1.0000
  C   C1453     1.0  0.66590  0.41488  0.02403  1.0000
  C   C1454     1.0  0.66861  0.38877  0.08221  1.0000
  C   C1455     1.0  0.66829  0.38877  0.00514  1.0000
  H   H1161     1.0  0.66369  0.43526  0.00923  1.0000
  Fe  Fe96      1.0  0.89864  0.49815  0.08597  1.0000
  S   S197      1.0  0.70095  0.25261  0.99294  1.0000
  Fe  Fe97      1.0  0.72191  0.03108  0.57498  1.0000
  C   C1456     1.0  0.72397  0.10004  0.49742  1.0000
  S   S198      1.0  0.73968  0.06556  0.55465  1.0000
  C   C1457     1.0  0.75508  0.00341  0.80679  1.0000
  S   S199      1.0  0.70821  0.45979  0.61744  1.0000
  C   C1458     1.0  0.71583  0.17924  0.54016  1.0000
  C   C1459     1.0  0.69196  0.42758  0.68798  1.0000
  C   C1460     1.0  0.97609  0.48783  0.94807  1.0000
  Fe  Fe98      1.0  0.72292  0.45933  0.56717  1.0000
  S   S200      1.0  0.73965  0.41953  0.55598  1.0000
  S   S201      1.0  0.70478  0.04219  0.61891  1.0000
  C   C1461     1.0  0.96417  0.01928  0.90837  1.0000
  P   P48       1.0  0.99132  0.39054  0.85606  1.0000
  C   C1462     1.0  0.95517  0.02989  0.83151  1.0000
  H   H1162     1.0  0.69925  0.21217  0.61951  1.0000
  H   H1163     1.0  0.67945  0.16965  0.60681  1.0000
  H   H1164     1.0  0.69217  0.23995  0.67380  1.0000
  H   H1165     1.0  0.79125  0.46238  0.88769  1.0000
  H   H1166     1.0  0.68526  0.39651  0.64564  1.0000
  C   C1463     1.0  0.96606  0.48650  0.97823  1.0000
  H   H1167     1.0  0.98765  0.42138  0.92491  1.0000
  C   C1464     1.0  0.68963  0.31085  0.93084  1.0000
  S   S202      1.0  0.76302  0.45545  0.94053  1.0000
  S   S203      1.0  0.79085  0.02667  0.94088  1.0000
  C   C1465     1.0  0.67860  0.10546  0.67501  1.0000
  H   H1168     1.0  0.75639  0.35410  0.99059  1.0000
  Fe  Fe99      1.0  0.78056  0.49009  0.96245  1.0000
  C   C1466     1.0  0.97657  0.40861  0.91882  1.0000
  H   H1169     1.0  0.68584  0.28841  0.92847  1.0000
  C   C1467     1.0  0.94319  0.00904  0.82119  1.0000
  C   C1468     1.0  0.96409  0.40938  0.94331  1.0000
  Fe  Fe100     1.0  0.75347  0.48699  0.89592  1.0000
  S   S204      1.0  0.65904  0.03210  0.57702  1.0000
  C   C1469     1.0  0.96043  0.37485  0.88036  1.0000
  C   C1470     1.0  0.78858  0.38690  0.95797  1.0000
  P   P49       1.0  0.71558  0.15543  0.61094  1.0000
  H   H1170     1.0  0.73903  0.06359  0.66718  1.0000
  C   C1471     1.0  0.97041  0.23926  0.50481  1.0000
  H   H1171     1.0  0.67266  0.07325  0.63356  1.0000
  H   H1172     1.0  0.71651  0.09963  0.65045  1.0000
  H   H1173     1.0  0.98057  0.49625  0.83551  1.0000
  C   C1472     1.0  0.98452  0.47607  0.82340  1.0000
  S   S205      1.0  0.71364  0.00154  0.71099  1.0000
  C   C1473     1.0  0.79642  0.33718  0.97474  1.0000
  H   H1174     1.0  0.95879  0.23554  0.51682  1.0000
  C   C1474     1.0  0.74845  0.13360  0.61301  1.0000
  C   C1475     1.0  0.69821  0.21871  0.67746  1.0000
  H   H1175     1.0  0.75129  0.15231  0.59668  1.0000
  C   C1476     1.0  0.67788  0.33239  0.93802  1.0000
  C   C1477     1.0  0.72169  0.18137  0.57735  1.0000
  C   C1478     1.0  0.73080  0.22258  0.52582  1.0000
  C   C1479     1.0  0.92935  0.01653  0.79697  1.0000
  C   C1480     1.0  0.79193  0.35828  0.94776  1.0000
  Fe  Fe101     1.0  0.68585  0.01473  0.58745  1.0000
  H   H1176     1.0  0.76760  0.44530  0.72419  1.0000
  C   C1481     1.0  0.68641  0.45070  0.70876  1.0000
  H   H1177     1.0  0.72409  0.35247  0.93107  1.0000
  H   H1178     1.0  0.71045  0.10879  0.99188  1.0000
  S   S206      1.0  0.70194  0.47973  0.53043  1.0000
  H   H1179     1.0  0.96415  0.06606  0.91468  1.0000
  H   H1180     1.0  0.70504  0.42118  0.69031  1.0000
  H   H1181     1.0  0.79120  0.35257  0.91892  1.0000
  H   H1182     1.0  0.69241  0.02471  0.87759  1.0000
  H   H1183     1.0  0.69321  0.22880  0.87846  1.0000
  H   H1184     1.0  0.96591  0.33978  0.74695  1.0000
  C   C1482     1.0  0.70189  0.05173  0.95363  1.0000
  C   C1483     1.0  0.68568  0.06018  0.96056  1.0000
  C   C1484     1.0  0.67760  0.08312  0.94047  1.0000
  C   C1485     1.0  0.68576  0.09769  0.91354  1.0000
  C   C1486     1.0  0.70221  0.08972  0.90701  1.0000
  C   C1487     1.0  0.71008  0.06630  0.92677  1.0000
  P   P50       1.0  0.71296  0.10916  0.87309  1.0000
  C   C1488     1.0  0.70677  0.14716  0.87433  1.0000
  C   C1489     1.0  0.73522  0.10560  0.88467  1.0000
  C   C1490     1.0  0.74368  0.12603  0.90738  1.0000
  C   C1491     1.0  0.76086  0.12296  0.91629  1.0000
  C   C1492     1.0  0.76972  0.09942  0.90294  1.0000
  C   C1493     1.0  0.76142  0.07894  0.88052  1.0000
  C   C1494     1.0  0.74423  0.08181  0.87164  1.0000
  C   C1495     1.0  0.70444  0.16036  0.90820  1.0000
  C   C1496     1.0  0.69955  0.18964  0.90960  1.0000
  C   C1497     1.0  0.69694  0.20605  0.87719  1.0000
  C   C1498     1.0  0.69925  0.19315  0.84333  1.0000
  C   C1499     1.0  0.70416  0.16380  0.84184  1.0000
  C   C1500     1.0  0.70802  0.09413  0.82791  1.0000
  C   C1501     1.0  0.69382  0.07719  0.82074  1.0000
  C   C1502     1.0  0.69066  0.06411  0.78647  1.0000
  C   C1503     1.0  0.70152  0.06807  0.75896  1.0000
  C   C1504     1.0  0.71554  0.08526  0.76565  1.0000
  C   C1505     1.0  0.71876  0.09838  0.79992  1.0000
  C   C1506     1.0  0.74172  0.08346  0.65275  1.0000
  P   P51       1.0  0.66247  0.48918  0.73332  1.0000
  C   C1507     1.0  0.67650  0.48859  0.77483  1.0000
  H   H1185     1.0  0.67939  0.11560  0.89845  1.0000
  H   H1186     1.0  0.72269  0.05969  0.92217  1.0000
  H   H1187     1.0  0.73711  0.14402  0.91902  1.0000
  H   H1188     1.0  0.76725  0.13828  0.93467  1.0000
  H   H1189     1.0  0.78295  0.09665  0.91075  1.0000
  H   H1190     1.0  0.76830  0.06055  0.87048  1.0000
  H   H1191     1.0  0.73805  0.06520  0.85493  1.0000
  H   H1192     1.0  0.70653  0.14813  0.93372  1.0000
  H   H1193     1.0  0.69790  0.19956  0.93601  1.0000
  C   C1508     1.0  0.66314  0.43706  0.90809  1.0000
  C   C1509     1.0  0.98973  0.36087  0.82364  1.0000
  H   H1194     1.0  0.70594  0.15426  0.81542  1.0000
  H   H1195     1.0  0.68531  0.07362  0.84167  1.0000
  H   H1196     1.0  0.71327  0.17138  0.74486  1.0000
  H   H1197     1.0  0.69922  0.05744  0.73259  1.0000
  H   H1198     1.0  0.72418  0.08765  0.74456  1.0000
  H   H1199     1.0  0.72988  0.11118  0.80488  1.0000
  H   H1200     1.0  0.94013  0.39361  0.95544  1.0000
  C   C1510     1.0  0.93896  0.06602  0.79409  1.0000
  H   H1201     1.0  0.76164  0.15156  0.49393  1.0000
  H   H1202     1.0  0.95265  0.48890  0.97368  1.0000
  H   H1203     1.0  0.84063  0.48494  0.86302  1.0000
  H   H1204     1.0  0.77354  0.11618  0.61381  1.0000
  H   H1205     1.0  0.69730  0.20600  0.81828  1.0000
  H   H1206     1.0  0.98512  0.23812  0.55759  1.0000
  H   H1207     1.0  0.79920  0.31506  0.96679  1.0000
  H   H1208     1.0  0.68656  0.07489  0.54519  1.0000
  C   C1511     1.0  0.68082  0.41360  0.66290  1.0000
  Fe  Fe102     1.0  0.76973  0.03976  0.97472  1.0000
  Fe  Fe103     1.0  0.77126  0.00231  0.90584  1.0000
  C   C1512     1.0  0.95279  0.05860  0.81839  1.0000
  C   C1513     1.0  0.73244  0.20400  0.58836  1.0000
  C   C1514     1.0  0.77090  0.46786  0.72100  1.0000
  H   H1209     1.0  0.68173  0.13478  0.72061  1.0000
  C   C1515     1.0  0.72577  0.00578  0.78368  1.0000
  C   C1516     1.0  0.73880  0.39185  0.52148  1.0000
  H   H1210     1.0  0.69909  0.21978  0.73658  1.0000
  C   C1517     1.0  0.67016  0.08138  0.66044  1.0000
  H   H1211     1.0  0.75959  0.47132  0.66541  1.0000
  C   C1518     1.0  0.79943  0.47384  0.87063  1.0000
  C   C1519     1.0  0.67262  0.42407  0.93819  1.0000
  H   H1212     1.0  0.67951  0.04920  0.98191  1.0000
  C   C1520     1.0  0.70126  0.48450  0.83378  1.0000
  C   C1521     1.0  0.95357  0.04506  0.95988  1.0000
  H   H1213     1.0  0.98797  0.04822  0.80328  1.0000
  H   H1214     1.0  0.67994  0.05053  0.78133  1.0000
  C   C1522     1.0  0.68605  0.43930  0.95531  1.0000
  H   H1215     1.0  0.76756  0.07177  0.64897  1.0000
  C   C1523     1.0  0.98541  0.24071  0.52817  1.0000
  H   H1216     1.0  0.66996  0.02333  0.72919  1.0000
  H   H1217     1.0  0.71553  0.30121  0.92413  1.0000
  C   C1524     1.0  0.68124  0.14890  0.59386  1.0000
  C   C1525     1.0  0.73223  0.12921  0.62325  1.0000
  C   C1526     1.0  0.70210  0.20732  0.71281  1.0000
  S   S207      1.0  0.66081  0.46824  0.58306  1.0000
  H   H1218     1.0  0.69390  0.44005  0.83903  1.0000
  C   C1527     1.0  0.74027  0.48382  0.79691  1.0000
  H   H1219     1.0  0.72793  0.46518  0.70806  1.0000
  H   H1220     1.0  0.68778  0.11583  0.65963  1.0000
  H   H1221     1.0  0.70827  0.03424  0.96963  1.0000
  H   H1222     1.0  0.70797  0.16156  0.53049  1.0000
  H   H1223     1.0  0.91652  0.05081  0.76461  1.0000
  C   C1528     1.0  0.97643  0.36058  0.79614  1.0000
  C   C1529     1.0  0.69910  0.11022  0.57362  1.0000
  C   C1530     1.0  0.92728  0.04498  0.78328  1.0000
  H   H1224     1.0  0.66520  0.32605  0.94132  1.0000
  C   C1531     1.0  0.76118  0.11311  0.62272  1.0000
  H   H1225     1.0  0.70059  0.47806  0.95584  1.0000
  C   C1532     1.0  0.69150  0.46048  0.82429  1.0000
  S   S208      1.0  0.80678  0.47132  0.97986  1.0000
  C   C1533     1.0  0.66712  0.46470  0.89541  1.0000
  H   H1226     1.0  0.67215  0.44331  0.78705  1.0000
  C   C1534     1.0  0.97608  0.33970  0.76836  1.0000
  H   H1227     1.0  0.78211  0.47068  0.77587  1.0000
  C   C1535     1.0  0.75111  0.13737  0.49470  1.0000
  C   C1536     1.0  0.75162  0.11400  0.52032  1.0000
  C   C1537     1.0  0.66721  0.13410  0.57916  1.0000
  C   C1538     1.0  0.72018  0.20005  0.51470  1.0000
  C   C1539     1.0  0.73698  0.22450  0.56264  1.0000
  C   C1540     1.0  0.96095  0.04542  0.92645  1.0000
  C   C1541     1.0  0.68059  0.47952  0.91259  1.0000
  H   H1228     1.0  0.73653  0.44289  0.76924  1.0000
  C   C1542     1.0  0.97478  0.39157  0.88689  1.0000
  C   C1543     1.0  0.94977  0.39298  0.93635  1.0000
  C   C1544     1.0  0.68261  0.36152  0.94228  1.0000
  H   H1229     1.0  0.82182  0.45866  0.90188  1.0000
  H   H1230     1.0  0.96558  0.42269  0.96777  1.0000
  Fe  Fe104     1.0  0.68786  0.48291  0.58148  1.0000
  C   C1545     1.0  0.72996  0.00304  0.74708  1.0000
  H   H1231     1.0  0.73477  0.00775  0.84130  1.0000
  H   H1232     1.0  0.76265  0.11043  0.53893  1.0000
  C   C1546     1.0  0.98910  0.31919  0.76752  1.0000
  C   C1547     1.0  0.71411  0.16417  0.68675  1.0000
  C   C1548     1.0  0.67517  0.11606  0.70940  1.0000
  H   H1233     1.0  0.70365  0.39054  0.94356  1.0000
  H   H1234     1.0  0.96148  0.07537  0.82714  1.0000
  C   C1549     1.0  0.70628  0.31806  0.92827  1.0000
  C   C1550     1.0  0.77909  0.48254  0.75048  1.0000
  S   S209      1.0  0.74734  0.46679  0.83942  1.0000
  C   C1551     1.0  0.70228  0.20289  0.64672  1.0000
  H   H1235     1.0  0.73735  0.20575  0.61679  1.0000
  C   C1552     1.0  0.98951  0.04521  0.86276  1.0000
  H   H1236     1.0  0.78547  0.40341  0.93705  1.0000
  C   C1553     1.0  0.66947  0.45940  0.70571  1.0000
  H   H1237     1.0  0.71133  0.10073  0.57083  1.0000
  Fe  Fe105     1.0  0.74433  0.47580  0.97475  1.0000
  C   C1554     1.0  0.71024  0.17544  0.65106  1.0000
  C   C1555     1.0  0.73087  0.47890  0.73157  1.0000
  H   H1238     1.0  0.95884  0.36093  0.85667  1.0000
  H   H1239     1.0  0.92473  0.32134  0.51837  1.0000
  C   C1556     1.0  0.75782  0.08805  0.64253  1.0000
  C   C1557     1.0  0.73821  0.00594  0.81337  1.0000
  C   C1558     1.0  0.69732  0.13678  0.59176  1.0000
  C   C1559     1.0  0.67915  0.46249  0.79501  1.0000
  C   C1560     1.0  0.75094  0.36918  0.52394  1.0000
  C   C1561     1.0  0.66341  0.10239  0.72945  1.0000
  C   C1562     1.0  0.72897  0.10387  0.64303  1.0000
  H   H1240     1.0  0.69546  0.46186  0.72691  1.0000
  C   C1563     1.0  0.68507  0.09558  0.55881  1.0000
  C   C1564     1.0  0.69005  0.46679  0.94249  1.0000
  S   S210      1.0  0.75004  0.01791  0.93752  1.0000
  C   C1565     1.0  0.73810  0.09507  0.52193  1.0000
  H   H1241     1.0  0.93724  0.08817  0.78386  1.0000
  H   H1242     1.0  0.72044  0.14336  0.69120  1.0000
  P   P52       1.0  0.66761  0.38852  0.95549  1.0000
  C   C1566     1.0  0.69937  0.36861  0.93940  1.0000
  C   C1567     1.0  0.94909  0.01865  0.97515  1.0000
  C   C1568     1.0  0.81668  0.47163  0.87849  1.0000
  C   C1569     1.0  0.71005  0.18007  0.71745  1.0000
  C   C1570     1.0  0.71110  0.34696  0.93224  1.0000
  C   C1571     1.0  0.79269  0.49147  0.84149  1.0000
  C   C1572     1.0  0.73582  0.46633  0.76628  1.0000
  H   H1243     1.0  0.71126  0.48256  0.85559  1.0000
  H   H1244     1.0  0.73504  0.07579  0.98662  1.0000
  H   H1245     1.0  0.76035  0.32976  0.49975  1.0000
  H   H1246     1.0  0.96660  0.37708  0.79556  1.0000
  P   P53       1.0  0.97255  0.02019  0.86394  1.0000
  H   H1247     1.0  0.98916  0.30353  0.74541  1.0000
  H   H1248     1.0  0.74533  0.24188  0.57108  1.0000
  C   C1573     1.0  0.98955  0.47590  0.78767  1.0000
  H   H1249     1.0  0.77926  0.49365  0.83646  1.0000
  H   H1250     1.0  0.95129  0.06521  0.97397  1.0000
  C   C1574     1.0  0.74681  0.00091  0.74050  1.0000
  H   H1251     1.0  0.93690  0.36275  0.89983  1.0000
  C   C1575     1.0  0.94796  0.37567  0.90497  1.0000
  H   H1252     1.0  0.76045  0.36883  0.54671  1.0000
  H   H1253     1.0  0.71347  0.08576  0.49798  1.0000
  H   H1254     1.0  0.75316  0.40773  0.98545  1.0000
  Fe  Fe106     1.0  0.71389  0.00079  0.64779  1.0000
  C   C1576     1.0  0.98504  0.45034  0.84419  1.0000
  C   C1577     1.0  0.75093  0.34692  0.49728  1.0000
  S   S211      1.0  0.70227  0.00630  0.54118  1.0000
  H   H1255     1.0  0.69350  0.42991  0.97870  1.0000
  H   H1256     1.0  0.98125  0.45136  0.87183  1.0000
  C   C1578     1.0  0.76640  0.48249  0.68785  1.0000
  C   C1579     1.0  0.82724  0.48656  0.85667  1.0000
  H   H1257     1.0  0.97019  0.49125  0.92062  1.0000
  C   C1580     1.0  0.66913  0.10738  0.56181  1.0000
  C   C1581     1.0  0.99071  0.42413  0.82956  1.0000
  H   H1258     1.0  0.98948  0.49598  0.77188  1.0000
  H   H1259     1.0  0.71280  0.00749  0.78912  1.0000
  H   H1260     1.0  0.66124  0.11085  0.75617  1.0000
  H   H1261     1.0  0.66516  0.09003  0.94641  1.0000
  S   S212      1.0  0.77142  0.00272  0.84296  1.0000
  H   H1262     1.0  0.73433  0.23835  0.50575  1.0000
  C   C1582     1.0  0.75925  0.00111  0.77017  1.0000
  C   C1583     1.0  0.66407  0.42248  0.65902  1.0000
  H   H1263     1.0  0.92016  0.00033  0.78905  1.0000
  H   H1264     1.0  0.75028  0.99873  0.71261  1.0000
  H   H1265     1.0  0.65985  0.47447  0.87205  1.0000
  H   H1266     1.0  0.67960  0.99849  0.82329  1.0000
  H   H1267     1.0  0.77224  0.99918  0.76470  1.0000
  C   C1584     1.0  0.65987  0.00917  0.73472  1.0000
  H   H1268     1.0  0.71505  0.00062  0.91816  1.0000
  C   C1585     1.0  0.69678  0.00303  0.87139  1.0000
  H   H1269     1.0  0.83794  0.37309  0.49720  1.0000
  C   C1586     1.0  0.91783  0.31479  0.49312  1.0000
  H   H1270     1.0  0.92958  0.27207  0.49329  1.0000
  Fe  Fe107     1.0  0.74091  0.74154  0.38056  1.0000
  S   S213      1.0  0.75902  0.70556  0.39897  1.0000
  S   S214      1.0  0.72258  0.73170  0.33121  1.0000
  Fe  Fe108     1.0  0.75461  0.78224  0.44196  1.0000
  S   S215      1.0  0.77390  0.74836  0.46355  1.0000
  S   S216      1.0  0.75636  0.82839  0.46683  1.0000
  Fe  Fe109     1.0  0.77849  0.74016  0.40437  1.0000
  S   S217      1.0  0.80196  0.72702  0.37581  1.0000
  Fe  Fe110     1.0  0.75299  0.71606  0.45627  1.0000
  C   C1587     1.0  0.78151  0.59260  0.02476  1.0000
  S   S218      1.0  0.76046  0.77556  0.38276  1.0000
  S   S219      1.0  0.73349  0.75035  0.43814  1.0000
  Fe  Fe111     1.0  0.91687  0.69750  0.31075  1.0000
  S   S220      1.0  0.91432  0.70035  0.37208  1.0000
  S   S221      1.0  0.90706  0.66035  0.27269  1.0000
  Fe  Fe112     1.0  0.92755  0.76197  0.30619  1.0000
  S   S222      1.0  0.92569  0.76876  0.36686  1.0000
  S   S223      1.0  0.93778  0.79346  0.26431  1.0000
  Fe  Fe113     1.0  0.93865  0.72507  0.37634  1.0000
  S   S224      1.0  0.96140  0.71418  0.41872  1.0000
  Fe  Fe114     1.0  0.90158  0.74386  0.35909  1.0000
  S   S225      1.0  0.87880  0.76292  0.38563  1.0000
  S   S226      1.0  0.94182  0.71923  0.31541  1.0000
  S   S227      1.0  0.90279  0.74002  0.29795  1.0000
  Fe  Fe115     1.0  0.92703  0.95520  0.16114  1.0000
  C   C1588     1.0  0.77813  0.61973  0.00802  1.0000
  S   S228      1.0  0.91938  0.92366  0.20622  1.0000
  H   H1271     1.0  0.75264  0.69847  0.03892  1.0000
  S   S229      1.0  0.92215  0.52482  0.09141  1.0000
  C   C1589     1.0  0.91189  0.82261  0.42070  1.0000
  C   C1590     1.0  0.66779  0.54666  0.48982  1.0000
  H   H1272     1.0  0.73026  0.83749  0.41082  1.0000
  Fe  Fe116     1.0  0.92365  0.51262  0.15157  1.0000
  S   S230      1.0  0.93287  0.54233  0.19965  1.0000
  S   S231      1.0  0.92134  0.95171  0.09954  1.0000
  C   C1591     1.0  0.73779  0.84937  0.00110  1.0000
  Fe  Fe117     1.0  0.71187  0.77027  0.11344  1.0000
  S   S232      1.0  0.73072  0.75201  0.07752  1.0000
  S   S233      1.0  0.72444  0.78430  0.16905  1.0000
  Fe  Fe118     1.0  0.68434  0.77059  0.04809  1.0000
  Fe  Fe119     1.0  0.71080  0.72198  0.05533  1.0000
  H   H1273     1.0  0.71189  0.89440  0.31238  1.0000
  Fe  Fe120     1.0  0.72040  0.78442  0.03467  1.0000
  H   H1274     1.0  0.73217  0.72059  0.16376  1.0000
  S   S234      1.0  0.69211  0.73837  0.09385  1.0000
  S   S235      1.0  0.70244  0.80424  0.07132  1.0000
  H   H1275     1.0  0.70484  0.71744  0.26246  1.0000
  H   H1276     1.0  0.74257  0.79772  0.23755  1.0000
  H   H1277     1.0  0.71525  0.90840  0.02657  1.0000
  H   H1278     1.0  0.70611  0.92327  0.25523  1.0000
  C   C1592     1.0  0.76185  0.74025  0.02452  1.0000
  C   C1593     1.0  0.96839  0.63742  0.00583  1.0000
  H   H1279     1.0  0.77025  0.85866  0.40619  1.0000
  C   C1594     1.0  0.75155  0.89870  0.28646  1.0000
  H   H1280     1.0  0.76678  0.67369  0.29274  1.0000
  H   H1281     1.0  0.77309  0.64840  0.46495  1.0000
  C   C1595     1.0  0.71192  0.80811  0.38792  1.0000
  C   C1596     1.0  0.83566  0.97887  0.02507  1.0000
  C   C1597     1.0  0.84832  0.96026  0.04149  1.0000
  C   C1598     1.0  0.77705  0.58592  0.47072  1.0000
  H   H1282     1.0  0.78616  0.64596  0.33666  1.0000
  H   H1283     1.0  0.84242  0.54724  0.03990  1.0000
  H   H1284     1.0  0.79638  0.77178  0.06538  1.0000
  H   H1285     1.0  0.87322  0.95680  0.06914  1.0000
  C   C1599     1.0  0.72681  0.92008  0.43191  1.0000
  H   H1286     1.0  0.95539  0.92460  0.25018  1.0000
  C   C1600     1.0  0.91468  0.62765  0.25281  1.0000
  C   C1601     1.0  0.93079  0.61620  0.26171  1.0000
  C   C1602     1.0  0.93608  0.59020  0.24518  1.0000
  C   C1603     1.0  0.92547  0.57531  0.21926  1.0000
  C   C1604     1.0  0.90938  0.58680  0.21034  1.0000
  C   C1605     1.0  0.90406  0.61270  0.22698  1.0000
  H   H1287     1.0  0.93914  0.62729  0.28148  1.0000
  H   H1288     1.0  0.94850  0.58154  0.25258  1.0000
  H   H1289     1.0  0.90095  0.57554  0.19095  1.0000
  H   H1290     1.0  0.89158  0.62121  0.21979  1.0000
  C   C1606     1.0  0.93202  0.82938  0.24792  1.0000
  C   C1607     1.0  0.94019  0.84126  0.21868  1.0000
  C   C1608     1.0  0.93634  0.86975  0.20514  1.0000
  C   C1609     1.0  0.92434  0.88699  0.22092  1.0000
  C   C1610     1.0  0.91615  0.87509  0.25015  1.0000
  C   C1611     1.0  0.91987  0.84648  0.26341  1.0000
  H   H1291     1.0  0.94960  0.82832  0.20642  1.0000
  H   H1292     1.0  0.94279  0.87846  0.18275  1.0000
  H   H1293     1.0  0.90688  0.88815  0.26269  1.0000
  H   H1294     1.0  0.91342  0.83768  0.28572  1.0000
  S   S236      1.0  0.76211  0.50935  0.99941  1.0000
  H   H1295     1.0  0.71425  0.60423  0.44833  1.0000
  C   C1612     1.0  0.81785  0.55337  0.34554  1.0000
  H   H1296     1.0  0.79936  0.55446  0.29931  1.0000
  H   H1297     1.0  0.70514  0.73737  0.19893  1.0000
  C   C1613     1.0  0.82331  0.73711  0.38022  1.0000
  C   C1614     1.0  0.83487  0.72052  0.36177  1.0000
  C   C1615     1.0  0.85185  0.72797  0.36309  1.0000
  C   C1616     1.0  0.85756  0.75209  0.38327  1.0000
  C   C1617     1.0  0.84600  0.76860  0.40194  1.0000
  C   C1618     1.0  0.82898  0.76120  0.40046  1.0000
  H   H1298     1.0  0.83067  0.70153  0.34672  1.0000
  H   H1299     1.0  0.86056  0.71500  0.34867  1.0000
  H   H1300     1.0  0.85024  0.78728  0.41768  1.0000
  H   H1301     1.0  0.82029  0.77415  0.41489  1.0000
  H   H1302     1.0  0.96885  0.84869  0.31534  1.0000
  C   C1619     1.0  0.85570  0.50610  0.03848  1.0000
  C   C1620     1.0  0.70713  0.80835  0.32159  1.0000
  C   C1621     1.0  0.81587  0.67366  0.43638  1.0000
  H   H1303     1.0  0.72171  0.83779  0.29247  1.0000
  C   C1622     1.0  0.98289  0.77480  0.39258  1.0000
  H   H1304     1.0  0.92976  0.54680  0.38272  1.0000
  H   H1305     1.0  0.84642  0.93704  0.04182  1.0000
  H   H1306     1.0  0.77959  0.58588  0.32990  1.0000
  C   C1623     1.0  0.75563  0.91286  0.39478  1.0000
  C   C1624     1.0  0.96692  0.55549  0.00362  1.0000
  H   H1307     1.0  0.75831  0.92124  0.23799  1.0000
  C   C1625     1.0  0.72369  0.74598  0.28614  1.0000
  C   C1626     1.0  0.73438  0.76857  0.27881  1.0000
  C   C1627     1.0  0.73440  0.78003  0.24283  1.0000
  C   C1628     1.0  0.72390  0.76885  0.21372  1.0000
  C   C1629     1.0  0.71337  0.74603  0.22097  1.0000
  C   C1630     1.0  0.71323  0.73478  0.25702  1.0000
  H   H1308     1.0  0.74242  0.77749  0.30099  1.0000
  C   C1631     1.0  0.73670  0.70040  0.15270  1.0000
  C   C1632     1.0  0.78177  0.61508  0.08463  1.0000
  C   C1633     1.0  0.74782  0.64867  0.12200  1.0000
  C   C1634     1.0  0.75703  0.67411  0.11907  1.0000
  C   C1635     1.0  0.75134  0.69996  0.13462  1.0000
  P   P54       1.0  0.77625  0.67414  0.09674  1.0000
  C   C1636     1.0  0.79395  0.67276  0.13066  1.0000
  C   C1637     1.0  0.74820  0.91516  0.25418  1.0000
  H   H1309     1.0  0.82748  0.68172  0.42752  1.0000
  C   C1638     1.0  0.81079  0.58053  0.39897  1.0000
  C   C1639     1.0  0.95774  0.90666  0.48194  1.0000
  H   H1310     1.0  0.98365  0.55075  0.05245  1.0000
  C   C1640     1.0  0.77402  0.76108  0.03217  1.0000
  C   C1641     1.0  0.79206  0.67756  0.16810  1.0000
  C   C1642     1.0  0.80593  0.67587  0.19389  1.0000
  C   C1643     1.0  0.82174  0.66928  0.18254  1.0000
  C   C1644     1.0  0.82373  0.66467  0.14534  1.0000
  C   C1645     1.0  0.80991  0.66642  0.11946  1.0000
  C   C1646     1.0  0.77599  0.70759  0.07026  1.0000
  C   C1647     1.0  0.78821  0.72867  0.07781  1.0000
  C   C1648     1.0  0.78717  0.75534  0.05889  1.0000
  C   C1649     1.0  0.84161  0.52472  0.03167  1.0000
  C   C1650     1.0  0.97298  0.54725  0.16512  1.0000
  H   H1311     1.0  0.95710  0.52387  0.37236  1.0000
  C   C1651     1.0  0.72549  0.86556  0.01730  1.0000
  H   H1312     1.0  0.75155  0.62862  0.10945  1.0000
  H   H1313     1.0  0.75804  0.71998  0.13215  1.0000
  C   C1652     1.0  0.95162  0.88858  0.45346  1.0000
  H   H1314     1.0  0.69507  0.77954  0.35739  1.0000
  H   H1315     1.0  0.75139  0.74512  0.00455  1.0000
  H   H1316     1.0  0.93813  0.82334  0.43689  1.0000
  H   H1317     1.0  0.74299  0.93376  0.08001  1.0000
  H   H1318     1.0  0.88205  0.99509  0.19809  1.0000
  H   H1319     1.0  0.80437  0.67941  0.22277  1.0000
  H   H1320     1.0  0.83248  0.66763  0.20252  1.0000
  H   H1321     1.0  0.83599  0.65940  0.13661  1.0000
  H   H1322     1.0  0.81162  0.66251  0.09073  1.0000
  H   H1323     1.0  0.79832  0.72491  0.09879  1.0000
  C   C1653     1.0  0.66921  0.67561  0.03764  1.0000
  S   S237      1.0  0.71485  0.67268  0.05471  1.0000
  H   H1324     1.0  0.97731  0.64336  0.09815  1.0000
  C   C1654     1.0  0.78341  0.59029  0.06307  1.0000
  C   C1655     1.0  0.83381  0.81112  0.14972  1.0000
  C   C1656     1.0  0.83243  0.79173  0.12037  1.0000
  C   C1657     1.0  0.82894  0.76254  0.12672  1.0000
  C   C1658     1.0  0.82676  0.75279  0.16240  1.0000
  C   C1659     1.0  0.82792  0.77222  0.19200  1.0000
  C   C1660     1.0  0.83153  0.80150  0.18539  1.0000
  P   P55       1.0  0.82527  0.75904  0.23797  1.0000
  C   C1661     1.0  0.80378  0.74987  0.24297  1.0000
  C   C1662     1.0  0.83917  0.72793  0.24711  1.0000
  C   C1663     1.0  0.83462  0.70446  0.26877  1.0000
  C   C1664     1.0  0.84591  0.68141  0.27754  1.0000
  C   C1665     1.0  0.86179  0.68157  0.26472  1.0000
  C   C1666     1.0  0.86639  0.70470  0.24296  1.0000
  C   C1667     1.0  0.85516  0.72781  0.23415  1.0000
  C   C1668     1.0  0.79852  0.74544  0.27832  1.0000
  C   C1669     1.0  0.78204  0.73802  0.28291  1.0000
  C   C1670     1.0  0.77059  0.73546  0.25228  1.0000
  C   C1671     1.0  0.77552  0.74082  0.21708  1.0000
  C   C1672     1.0  0.79207  0.74782  0.21231  1.0000
  C   C1673     1.0  0.83070  0.78696  0.27127  1.0000
  C   C1674     1.0  0.81963  0.81057  0.27505  1.0000
  C   C1675     1.0  0.82360  0.83235  0.30071  1.0000
  C   C1676     1.0  0.83861  0.83068  0.32284  1.0000
  C   C1677     1.0  0.84973  0.80739  0.31908  1.0000
  C   C1678     1.0  0.84581  0.78552  0.29357  1.0000
  H   H1325     1.0  0.83692  0.83357  0.14491  1.0000
  H   H1326     1.0  0.83436  0.79927  0.09284  1.0000
  H   H1327     1.0  0.82822  0.74736  0.10408  1.0000
  H   H1328     1.0  0.82428  0.73005  0.16701  1.0000
  H   H1329     1.0  0.83296  0.81690  0.20764  1.0000
  H   H1330     1.0  0.82258  0.70406  0.27979  1.0000
  H   H1331     1.0  0.84254  0.66375  0.29512  1.0000
  H   H1332     1.0  0.87071  0.66407  0.27224  1.0000
  H   H1333     1.0  0.87891  0.70498  0.23390  1.0000
  H   H1334     1.0  0.85918  0.74599  0.21825  1.0000
  H   H1335     1.0  0.80721  0.74756  0.30247  1.0000
  H   H1336     1.0  0.77813  0.73442  0.31035  1.0000
  H   H1337     1.0  0.75783  0.72962  0.25591  1.0000
  H   H1338     1.0  0.76639  0.73971  0.19362  1.0000
  H   H1339     1.0  0.79552  0.75173  0.18475  1.0000
  H   H1340     1.0  0.80791  0.81208  0.25820  1.0000
  H   H1341     1.0  0.81494  0.85035  0.30385  1.0000
  H   H1342     1.0  0.84163  0.84727  0.34315  1.0000
  H   H1343     1.0  0.86134  0.80594  0.33643  1.0000
  H   H1344     1.0  0.85459  0.76751  0.29193  1.0000
  C   C1679     1.0  0.78789  0.83098  0.38171  1.0000
  C   C1680     1.0  0.79146  0.81498  0.35077  1.0000
  C   C1681     1.0  0.78042  0.81619  0.31908  1.0000
  C   C1682     1.0  0.76584  0.83336  0.31833  1.0000
  C   C1683     1.0  0.76224  0.84974  0.34919  1.0000
  C   C1684     1.0  0.77324  0.84799  0.38113  1.0000
  H   H1345     1.0  0.79601  0.82902  0.40688  1.0000
  H   H1346     1.0  0.80239  0.80067  0.35200  1.0000
  H   H1347     1.0  0.78279  0.80285  0.29569  1.0000
  H   H1348     1.0  0.75707  0.83311  0.29414  1.0000
  H   H1349     1.0  0.76433  0.89255  0.29516  1.0000
  C   C1685     1.0  0.74185  0.89524  0.38571  1.0000
  H   H1350     1.0  0.94123  0.94604  0.30154  1.0000
  C   C1686     1.0  0.96289  0.86996  0.31332  1.0000
  H   H1351     1.0  0.73660  0.67682  0.30208  1.0000
  H   H1352     1.0  0.89256  0.85707  0.34569  1.0000
  H   H1353     1.0  0.97741  0.57281  0.21406  1.0000
  H   H1354     1.0  0.70946  0.79926  0.41448  1.0000
  H   H1355     1.0  0.78610  0.56923  0.07597  1.0000
  C   C1687     1.0  0.93028  0.52543  0.37036  1.0000
  H   H1356     1.0  0.66485  0.70952  0.47274  1.0000
  H   H1357     1.0  0.81585  0.52916  0.00918  1.0000
  C   C1688     1.0  0.70370  0.79724  0.35584  1.0000
  C   C1689     1.0  0.73701  0.91108  0.99610  1.0000
  C   C1690     1.0  0.79543  0.86865  0.02703  1.0000
  H   H1358     1.0  0.95649  0.54615  0.01632  1.0000
  C   C1691     1.0  0.94400  0.62755  0.03824  1.0000
  C   C1692     1.0  0.95301  0.63331  0.07199  1.0000
  C   C1693     1.0  0.96995  0.64020  0.07229  1.0000
  P   P56       1.0  0.94391  0.62759  0.11506  1.0000
  C   C1694     1.0  0.92195  0.62033  0.10700  1.0000
  C   C1695     1.0  0.95515  0.59628  0.13545  1.0000
  C   C1696     1.0  0.95659  0.57097  0.11444  1.0000
  C   C1697     1.0  0.96541  0.54653  0.12929  1.0000
  C   C1698     1.0  0.78518  0.65491  0.45721  1.0000
  C   C1699     1.0  0.72502  0.89618  0.01449  1.0000
  C   C1700     1.0  0.96297  0.59696  0.17129  1.0000
  C   C1701     1.0  0.91539  0.59415  0.11874  1.0000
  C   C1702     1.0  0.89852  0.58816  0.11049  1.0000
  C   C1703     1.0  0.88801  0.60857  0.09125  1.0000
  C   C1704     1.0  0.89429  0.63526  0.08079  1.0000
  C   C1705     1.0  0.91119  0.64122  0.08882  1.0000
  C   C1706     1.0  0.94501  0.65912  0.14444  1.0000
  C   C1707     1.0  0.95205  0.68520  0.13347  1.0000
  C   C1708     1.0  0.95224  0.70952  0.15644  1.0000
  C   C1709     1.0  0.94527  0.70807  0.19025  1.0000
  C   C1710     1.0  0.93800  0.68237  0.20101  1.0000
  C   C1711     1.0  0.93774  0.65809  0.17810  1.0000
  H   H1359     1.0  0.81402  0.58730  0.42702  1.0000
  P   P57       1.0  0.74248  0.86919  0.34890  1.0000
  C   C1712     1.0  0.72759  0.67505  0.15545  1.0000
  H   H1360     1.0  0.93121  0.62054  0.03713  1.0000
  C   C1713     1.0  0.97741  0.82267  0.41678  1.0000
  H   H1361     1.0  0.95067  0.56994  0.08674  1.0000
  H   H1362     1.0  0.96609  0.52681  0.11326  1.0000
  H   H1363     1.0  0.90360  0.52153  0.36324  1.0000
  H   H1364     1.0  0.88649  0.82425  0.39703  1.0000
  S   S238      1.0  0.95208  0.97577  0.15635  1.0000
  H   H1365     1.0  0.92322  0.57823  0.13422  1.0000
  H   H1366     1.0  0.89362  0.56749  0.11874  1.0000
  H   H1367     1.0  0.87501  0.60354  0.08450  1.0000
  H   H1368     1.0  0.66666  0.52723  0.47323  1.0000
  H   H1369     1.0  0.91596  0.66189  0.08042  1.0000
  H   H1370     1.0  0.95719  0.68710  0.10715  1.0000
  C   C1714     1.0  0.78204  0.96116  0.08926  1.0000
  H   H1371     1.0  0.94535  0.72693  0.20806  1.0000
  H   H1372     1.0  0.93247  0.68133  0.22710  1.0000
  H   H1373     1.0  0.93183  0.63845  0.18659  1.0000
  C   C1715     1.0  0.91873  0.85983  0.36307  1.0000
  C   C1716     1.0  0.86354  0.97140  0.05701  1.0000
  P   P58       1.0  0.95298  0.86162  0.38488  1.0000
  C   C1717     1.0  0.90245  0.85050  0.36618  1.0000
  C   C1718     1.0  0.93173  0.85071  0.38896  1.0000
  C   C1719     1.0  0.82650  0.51453  0.01417  1.0000
  S   S239      1.0  0.81689  0.96349  0.00518  1.0000
  S   S240      1.0  0.73842  0.81066  0.00277  1.0000
  H   H1374     1.0  0.77361  0.66505  0.01548  1.0000
  H   H1375     1.0  0.71613  0.85451  0.03145  1.0000
  C   C1720     1.0  0.96941  0.75036  0.48004  1.0000
  C   C1721     1.0  0.97757  0.64244  0.03930  1.0000
  C   C1722     1.0  0.97519  0.90035  0.41922  1.0000
  P   P59       1.0  0.79528  0.87558  0.07562  1.0000
  C   C1723     1.0  0.78324  0.90874  0.08088  1.0000
  C   C1724     1.0  0.78519  0.84613  0.09785  1.0000
  C   C1725     1.0  0.77095  0.83359  0.08011  1.0000
  C   C1726     1.0  0.76224  0.81248  0.09795  1.0000
  C   C1727     1.0  0.76778  0.80323  0.13348  1.0000
  C   C1728     1.0  0.78218  0.81499  0.15109  1.0000
  C   C1729     1.0  0.79086  0.83638  0.13340  1.0000
  C   C1730     1.0  0.79129  0.93553  0.08502  1.0000
  C   C1731     1.0  0.97979  0.97154  0.02571  1.0000
  C   C1732     1.0  0.72227  0.61107  0.47182  1.0000
  C   C1733     1.0  0.75651  0.93411  0.08272  1.0000
  C   C1734     1.0  0.76573  0.90833  0.07918  1.0000
  C   C1735     1.0  0.81642  0.88070  0.09526  1.0000
  C   C1736     1.0  0.83009  0.87480  0.07464  1.0000
  C   C1737     1.0  0.84631  0.88077  0.08908  1.0000
  C   C1738     1.0  0.84903  0.89269  0.12413  1.0000
  C   C1739     1.0  0.83553  0.89854  0.14489  1.0000
  C   C1740     1.0  0.81929  0.89265  0.13052  1.0000
  C   C1741     1.0  0.73394  0.60018  0.00896  1.0000
  C   C1742     1.0  0.73182  0.92385  0.24278  1.0000
  C   C1743     1.0  0.97251  0.92172  0.47901  1.0000
  H   H1376     1.0  0.95768  0.72963  0.14801  1.0000
  H   H1377     1.0  0.99119  0.68995  0.45820  1.0000
  H   H1378     1.0  0.76625  0.84068  0.05276  1.0000
  H   H1379     1.0  0.75093  0.80384  0.08438  1.0000
  H   H1380     1.0  0.76065  0.78741  0.14749  1.0000
  H   H1381     1.0  0.78635  0.80807  0.17883  1.0000
  H   H1382     1.0  0.80174  0.84553  0.14790  1.0000
  H   H1383     1.0  0.80467  0.93695  0.08386  1.0000
  C   C1744     1.0  0.89903  0.83202  0.39505  1.0000
  H   H1384     1.0  0.72813  0.65216  0.44667  1.0000
  C   C1745     1.0  0.96033  0.88524  0.42189  1.0000
  H   H1385     1.0  0.75902  0.88845  0.07409  1.0000
  H   H1386     1.0  0.82831  0.86641  0.04698  1.0000
  H   H1387     1.0  0.85677  0.87691  0.07269  1.0000
  H   H1388     1.0  0.86160  0.89784  0.13492  1.0000
  H   H1389     1.0  0.83768  0.90823  0.17182  1.0000
  H   H1390     1.0  0.80891  0.89814  0.14649  1.0000
  C   C1746     1.0  0.77802  0.64240  0.06802  1.0000
  H   H1391     1.0  0.76590  0.94646  0.43039  1.0000
  C   C1747     1.0  0.77114  0.58895  0.43350  1.0000
  H   H1392     1.0  0.69478  0.72207  0.47371  1.0000
  P   P60       1.0  0.78138  0.61272  0.40310  1.0000
  H   H1393     1.0  0.67647  0.61827  0.48230  1.0000
  C   C1748     1.0  0.79564  0.58976  0.38024  1.0000
  C   C1749     1.0  0.98228  0.55803  0.02400  1.0000
  C   C1750     1.0  0.79692  0.84005  0.01420  1.0000
  C   C1751     1.0  0.75606  0.55010  0.47978  1.0000
  C   C1752     1.0  0.80259  0.56188  0.32706  1.0000
  C   C1753     1.0  0.79146  0.57987  0.34440  1.0000
  C   C1754     1.0  0.97346  0.72557  0.46008  1.0000
  H   H1394     1.0  0.72263  0.61178  0.05860  1.0000
  H   H1395     1.0  0.88610  0.65121  0.06621  1.0000
  H   H1396     1.0  0.97981  0.83830  0.43845  1.0000
  C   C1755     1.0  0.96336  0.88562  0.28041  1.0000
  C   C1756     1.0  0.76689  0.63178  0.37041  1.0000
  C   C1757     1.0  0.74986  0.63428  0.37599  1.0000
  C   C1758     1.0  0.73896  0.65004  0.35099  1.0000
  C   C1759     1.0  0.74501  0.66383  0.32067  1.0000
  C   C1760     1.0  0.76201  0.66206  0.31543  1.0000
  C   C1761     1.0  0.77294  0.64626  0.34032  1.0000
  C   C1762     1.0  0.72727  0.89956  0.40389  1.0000
  C   C1763     1.0  0.75812  0.57127  0.41936  1.0000
  S   S241      1.0  0.87463  0.52052  0.05945  1.0000
  H   H1397     1.0  0.72922  0.93651  0.21771  1.0000
  C   C1764     1.0  0.91554  0.51114  0.35944  1.0000
  C   C1765     1.0  0.72368  0.82990  0.38577  1.0000
  S   S242      1.0  0.96434  0.95775  0.05383  1.0000
  H   H1398     1.0  0.71575  0.92262  0.44681  1.0000
  C   C1766     1.0  0.72449  0.64945  0.02374  1.0000
  H   H1399     1.0  0.75374  0.57241  0.39053  1.0000
  H   H1400     1.0  0.77993  0.68227  0.17765  1.0000
  H   H1401     1.0  0.94008  0.87745  0.45627  1.0000
  C   C1767     1.0  0.79579  0.89198  0.00211  1.0000
  H   H1402     1.0  0.74502  0.62506  0.40022  1.0000
  H   H1403     1.0  0.72590  0.65263  0.35589  1.0000
  H   H1404     1.0  0.94063  0.91899  0.36029  1.0000
  H   H1405     1.0  0.78252  0.57338  0.00793  1.0000
  C   C1768     1.0  0.71880  0.91635  0.26387  1.0000
  H   H1406     1.0  0.71601  0.67565  0.16865  1.0000
  C   C1769     1.0  0.94714  0.90955  0.33828  1.0000
  C   C1770     1.0  0.76465  0.96047  0.08807  1.0000
  C   C1771     1.0  0.75512  0.93341  0.42281  1.0000
  H   H1407     1.0  0.71623  0.88710  0.39674  1.0000
  C   C1772     1.0  0.80770  0.65106  0.41731  1.0000
  C   C1773     1.0  0.73316  0.64920  0.14017  1.0000
  H   H1408     1.0  0.67809  0.68220  0.05984  1.0000
  C   C1774     1.0  0.96537  0.82833  0.38725  1.0000
  H   H1409     1.0  0.96213  0.61606  0.18819  1.0000
  C   C1775     1.0  0.71882  0.83027  0.31936  1.0000
  H   H1410     1.0  0.97946  0.52807  0.17688  1.0000
  H   H1411     1.0  0.96800  0.76337  0.34327  1.0000
  Fe  Fe121     1.0  0.94585  0.97494  0.09460  1.0000
  C   C1776     1.0  0.72666  0.61974  0.03286  1.0000
  C   C1777     1.0  0.72697  0.84157  0.35155  1.0000
  C   C1778     1.0  0.74074  0.93691  0.44148  1.0000
  C   C1779     1.0  0.73846  0.89047  0.30727  1.0000
  C   C1780     1.0  0.95460  0.88168  0.34244  1.0000
  C   C1781     1.0  0.77634  0.64453  0.02944  1.0000
  H   H1412     1.0  0.67305  0.57442  0.44465  1.0000
  C   C1782     1.0  0.92821  0.83169  0.41752  1.0000
  C   C1783     1.0  0.67408  0.69731  0.49026  1.0000
  H   H1413     1.0  0.92106  0.87347  0.33987  1.0000
  C   C1784     1.0  0.95559  0.91303  0.27626  1.0000
  H   H1414     1.0  0.72580  0.62979  0.14128  1.0000
  C   C1785     1.0  0.94753  0.92503  0.30522  1.0000
  H   H1415     1.0  0.95228  0.81000  0.33879  1.0000
  C   C1786     1.0  0.72210  0.89989  0.29614  1.0000
  H   H1416     1.0  0.70114  0.79920  0.29669  1.0000
  S   S243      1.0  0.70205  0.75246  0.00892  1.0000
  C   C1787     1.0  0.96198  0.80663  0.36097  1.0000
  C   C1788     1.0  0.95164  0.62991  0.00532  1.0000
  H   H1417     1.0  0.76682  0.91057  0.38042  1.0000
  C   C1789     1.0  0.97182  0.57248  0.18603  1.0000
  H   H1418     1.0  0.77294  0.78192  0.01792  1.0000
  H   H1419     1.0  0.79715  0.82177  0.03307  1.0000
  H   H1420     1.0  0.78330  0.61291  0.11431  1.0000
  H   H1421     1.0  0.82648  0.53949  0.33206  1.0000
  H   H1422     1.0  0.96927  0.87606  0.25759  1.0000
  H   H1423     1.0  0.73996  0.53948  0.43206  1.0000
  H   H1424     1.0  0.74040  0.95241  0.46371  1.0000
  H   H1425     1.0  0.98210  0.89803  0.39508  1.0000
  H   H1426     1.0  0.78835  0.98175  0.09180  1.0000
  C   C1790     1.0  0.98828  0.95205  0.00370  1.0000
  C   C1791     1.0  0.97084  0.78014  0.36341  1.0000
  C   C1792     1.0  0.82191  0.56259  0.38155  1.0000
  H   H1427     1.0  0.79507  0.91428  0.01136  1.0000
  H   H1428     1.0  0.90928  0.80733  0.44217  1.0000
  C   C1793     1.0  0.79242  0.64114  0.42812  1.0000
  H   H1429     1.0  0.81315  0.64197  0.39370  1.0000
  C   C1794     1.0  0.76265  0.71382  0.04392  1.0000
  C   C1795     1.0  0.69091  0.70440  0.49074  1.0000
  H   H1430     1.0  0.83367  0.55581  0.39603  1.0000
  H   H1431     1.0  0.95856  0.76346  0.47061  1.0000
  C   C1796     1.0  0.98611  0.79597  0.41936  1.0000
  H   H1432     1.0  0.73552  0.57740  0.01637  1.0000
  C   C1797     1.0  0.94568  0.51251  0.36451  1.0000
  C   C1798     1.0  0.80867  0.68698  0.46569  1.0000
  C   C1799     1.0  0.73020  0.63821  0.47069  1.0000
  H   H1433     1.0  0.99065  0.64764  0.03972  1.0000
  H   H1434     1.0  0.75743  0.98049  0.08975  1.0000
  H   H1435     1.0  0.81475  0.70513  0.47962  1.0000
  H   H1436     1.0  0.72088  0.82891  0.48277  1.0000
  Fe  Fe122     1.0  0.90957  0.99654  0.10200  1.0000
  H   H1437     1.0  0.98925  0.75376  0.39516  1.0000
  C   C1800     1.0  0.79334  0.67755  0.47614  1.0000
  C   C1801     1.0  0.98778  0.70911  0.47313  1.0000
  C   C1802     1.0  0.74336  0.85353  0.48952  1.0000
  C   C1803     1.0  0.75046  0.55226  0.44258  1.0000
  C   C1804     1.0  0.67132  0.57328  0.47374  1.0000
  C   C1805     1.0  0.98122  0.91857  0.44764  1.0000
  H   H1438     1.0  0.98530  0.92921  0.00414  1.0000
  H   H1439     1.0  0.68342  0.69313  0.99580  1.0000
  C   C1806     1.0  0.67215  0.68190  0.00123  1.0000
  H   H1440     1.0  0.78749  0.59835  0.48213  1.0000
  Fe  Fe123     1.0  0.71305  0.52307  0.54729  1.0000
  H   H1441     1.0  0.70404  0.59477  0.95078  1.0000
  H   H1442     1.0  0.72509  0.57612  0.61730  1.0000
  C   C1807     1.0  0.69806  0.66534  0.53455  1.0000
  S   S244      1.0  0.69397  0.97383  0.61797  1.0000
  C   C1808     1.0  0.69097  0.62064  0.59833  1.0000
  C   C1809     1.0  0.76076  0.87647  0.88602  1.0000
  H   H1443     1.0  0.69901  0.70123  0.91084  1.0000
  Fe  Fe124     1.0  0.71188  0.96651  0.57393  1.0000
  S   S245      1.0  0.71052  0.92088  0.54727  1.0000
  S   S246      1.0  0.69732  0.52723  0.59529  1.0000
  C   C1810     1.0  0.70249  0.88789  0.87316  1.0000
  H   H1444     1.0  0.71019  0.75034  0.90811  1.0000
  C   C1811     1.0  0.96635  0.87825  0.59894  1.0000
  C   C1812     1.0  0.82055  0.50399  0.82720  1.0000
  C   C1813     1.0  0.68178  0.85582  0.91611  1.0000
  H   H1445     1.0  0.97367  0.95976  0.57810  1.0000
  C   C1814     1.0  0.74055  0.90023  0.52157  1.0000
  C   C1815     1.0  0.72975  0.65950  0.99040  1.0000
  Fe  Fe125     1.0  0.79372  0.98683  0.97723  1.0000
  Fe  Fe126     1.0  0.75293  0.53725  0.95022  1.0000
  S   S247      1.0  0.74805  0.58636  0.94406  1.0000
  S   S248      1.0  0.77612  0.96099  0.93912  1.0000
  S   S249      1.0  0.77258  0.51997  0.91463  1.0000
  C   C1816     1.0  0.95922  0.99291  0.92345  1.0000
  Fe  Fe127     1.0  0.71847  0.50421  0.62862  1.0000
  C   C1817     1.0  0.70958  0.98962  0.89413  1.0000
  H   H1446     1.0  0.77360  0.56524  0.52273  1.0000
  H   H1447     1.0  0.71156  0.88562  0.69302  1.0000
  H   H1448     1.0  0.98298  0.76521  0.69062  1.0000
  H   H1449     1.0  0.66384  0.52406  0.54011  1.0000
  C   C1818     1.0  0.79744  0.88680  0.96490  1.0000
  C   C1819     1.0  0.70408  0.62939  0.65966  1.0000
  C   C1820     1.0  0.73699  0.63991  0.96641  1.0000
  C   C1821     1.0  0.67753  0.85963  0.87843  1.0000
  C   C1822     1.0  0.98015  0.97449  0.81741  1.0000
  H   H1450     1.0  0.70765  0.65289  0.55070  1.0000
  H   H1451     1.0  0.97429  0.63878  0.98032  1.0000
  H   H1452     1.0  0.69935  0.86572  0.96178  1.0000
  S   S250      1.0  0.73488  0.50263  0.58127  1.0000
  C   C1823     1.0  0.71472  0.91866  0.73437  1.0000
  H   H1453     1.0  0.73342  0.55001  0.75501  1.0000
  C   C1824     1.0  0.69080  0.71952  0.91508  1.0000
  C   C1825     1.0  0.71579  0.59299  0.62122  1.0000
  H   H1454     1.0  0.75077  0.63607  0.55574  1.0000
  H   H1455     1.0  0.96103  0.97248  0.90964  1.0000
  H   H1456     1.0  0.98549  0.80718  0.58606  1.0000
  S   S251      1.0  0.71425  0.55867  0.50284  1.0000
  C   C1826     1.0  0.67901  0.52847  0.69130  1.0000
  H   H1457     1.0  0.70531  0.63477  0.84443  1.0000
  H   H1458     1.0  0.68331  0.67013  0.85917  1.0000
  H   H1459     1.0  0.66918  0.59587  0.65577  1.0000
  S   S252      1.0  0.75026  0.68211  0.50201  1.0000
  H   H1460     1.0  0.73538  0.86301  0.88469  1.0000
  C   C1827     1.0  0.99187  0.97038  0.88056  1.0000
  C   C1828     1.0  0.98178  0.98550  0.85331  1.0000
  C   C1829     1.0  0.98323  0.78397  0.63643  1.0000
  C   C1830     1.0  0.66084  0.67313  0.97223  1.0000
  C   C1831     1.0  0.68745  0.65334  0.87907  1.0000
  C   C1832     1.0  0.69995  0.63344  0.87065  1.0000
  H   H1461     1.0  0.95097  0.90909  0.50622  1.0000
  H   H1462     1.0  0.70653  0.52892  0.82098  1.0000
  H   H1463     1.0  0.75956  0.85203  0.97060  1.0000
  C   C1833     1.0  0.68955  0.98827  0.84093  1.0000
  H   H1464     1.0  0.74986  0.53577  0.49785  1.0000
  H   H1465     1.0  0.68385  0.50075  0.90264  1.0000
  H   H1466     1.0  0.66378  0.78656  0.93865  1.0000
  H   H1467     1.0  0.70368  0.86538  0.51380  1.0000
  H   H1468     1.0  0.74089  0.64781  0.94055  1.0000
  P   P61       1.0  0.79410  0.53143  0.78417  1.0000
  C   C1834     1.0  0.78026  0.55645  0.80560  1.0000
  H   H1469     1.0  0.70445  0.64106  0.68537  1.0000
  C   C1835     1.0  0.98580  0.78426  0.67476  1.0000
  C   C1836     1.0  0.66919  0.67436  0.51210  1.0000
  C   C1837     1.0  0.65934  0.92116  0.55201  1.0000
  H   H1470     1.0  0.76328  0.88368  0.50080  1.0000
  H   H1471     1.0  0.97320  0.98650  0.79539  1.0000
  C   C1838     1.0  0.78347  0.56349  0.84292  1.0000
  C   C1839     1.0  0.77275  0.58250  0.85989  1.0000
  C   C1840     1.0  0.75888  0.59495  0.83973  1.0000
  C   C1841     1.0  0.75587  0.58879  0.80235  1.0000
  C   C1842     1.0  0.76654  0.56969  0.78528  1.0000
  C   C1843     1.0  0.81041  0.55154  0.76496  1.0000
  H   H1472     1.0  0.68510  0.53276  0.76896  1.0000
  H   H1473     1.0  0.67532  0.97071  0.73071  1.0000
  C   C1844     1.0  0.83585  0.58235  0.73467  1.0000
  C   C1845     1.0  0.82691  0.59509  0.76186  1.0000
  C   C1846     1.0  0.81424  0.57975  0.77705  1.0000
  C   C1847     1.0  0.66626  0.54488  0.52759  1.0000
  C   C1848     1.0  0.79827  0.83490  0.97681  1.0000
  C   C1849     1.0  0.74051  0.64750  0.50096  1.0000
  H   H1474     1.0  0.78164  0.54908  0.70953  1.0000
  H   H1475     1.0  0.66717  0.53341  0.85280  1.0000
  H   H1476     1.0  0.84563  0.59430  0.72287  1.0000
  H   H1477     1.0  0.75889  0.90607  0.96637  1.0000
  H   H1478     1.0  0.68925  0.94883  0.80981  1.0000
  H   H1479     1.0  0.71642  0.93599  0.71471  1.0000
  C   C1850     1.0  0.83218  0.55420  0.72271  1.0000
  H   H1480     1.0  0.79412  0.55404  0.85920  1.0000
  H   H1481     1.0  0.77501  0.58715  0.88897  1.0000
  H   H1482     1.0  0.75046  0.60919  0.85331  1.0000
  H   H1483     1.0  0.74512  0.59843  0.78664  1.0000
  H   H1484     1.0  0.76380  0.56496  0.75649  1.0000
  H   H1485     1.0  0.67270  0.91954  0.54966  1.0000
  H   H1486     1.0  0.97852  0.76467  0.62250  1.0000
  C   C1851     1.0  0.75027  0.87952  0.50365  1.0000
  H   H1487     1.0  0.82978  0.61690  0.77116  1.0000
  H   H1488     1.0  0.80751  0.58999  0.79815  1.0000
  H   H1489     1.0  0.96404  0.85561  0.60470  1.0000
  C   C1852     1.0  0.66789  0.57575  0.67069  1.0000
  C   C1853     1.0  0.77869  0.52642  0.71318  1.0000
  Fe  Fe128     1.0  0.75601  0.97771  0.97269  1.0000
  C   C1854     1.0  0.98795  0.94805  0.80947  1.0000
  H   H1490     1.0  0.94018  0.88984  0.59373  1.0000
  C   C1855     1.0  0.68114  0.65834  0.53465  1.0000
  H   H1491     1.0  0.83913  0.54430  0.70167  1.0000
  C   C1856     1.0  0.68073  0.65223  0.91343  1.0000
  H   H1492     1.0  0.76560  0.85684  0.90002  1.0000
  C   C1857     1.0  0.73415  0.52662  0.75810  1.0000
  C   C1858     1.0  0.68750  0.77173  0.92153  1.0000
  C   C1859     1.0  0.72645  0.84868  0.49339  1.0000
  H   H1493     1.0  0.68915  0.51252  0.69240  1.0000
  H   H1494     1.0  0.97592  0.77729  0.52735  1.0000
  C   C1860     1.0  0.72457  0.59277  0.50306  1.0000
  H   H1495     1.0  0.79925  0.81281  0.96695  1.0000
  C   C1861     1.0  0.69732  0.74749  0.91380  1.0000
  H   H1496     1.0  0.72807  0.68226  0.98295  1.0000
  H   H1497     1.0  0.78500  0.89502  0.88209  1.0000
  C   C1862     1.0  0.98271  0.88819  0.59800  1.0000
  H   H1498     1.0  0.68396  0.87934  0.82818  1.0000
  C   C1863     1.0  0.71555  0.92473  0.77196  1.0000
  C   C1864     1.0  0.71608  0.60771  0.65457  1.0000
  C   C1865     1.0  0.68084  0.55497  0.67315  1.0000
  H   H1499     1.0  0.97715  0.93590  0.50096  1.0000
  C   C1866     1.0  0.71116  0.87389  0.78536  1.0000
  H   H1500     1.0  0.71589  0.59733  0.89053  1.0000
  C   C1867     1.0  0.69518  0.96018  0.83313  1.0000
  H   H1501     1.0  0.82899  0.51568  0.81115  1.0000
  C   C1868     1.0  0.77027  0.51177  0.68399  1.0000
  H   H1502     1.0  0.97717  0.58163  0.92129  1.0000
  C   C1869     1.0  0.71035  0.86785  0.74769  1.0000
  H   H1503     1.0  0.94485  0.94202  0.58069  1.0000
  C   C1870     1.0  0.97162  0.93697  0.58374  1.0000
  H   H1504     1.0  0.77651  0.62138  0.97827  1.0000
  H   H1505     1.0  0.68212  0.62931  0.96607  1.0000
  H   H1506     1.0  0.71591  0.69389  0.51303  1.0000
  H   H1507     1.0  0.74249  0.52776  0.81614  1.0000
  H   H1508     1.0  0.66618  0.85032  0.86591  1.0000
  H   H1509     1.0  0.69237  0.55925  0.66092  1.0000
  C   C1871     1.0  0.66457  0.74013  0.93162  1.0000
  C   C1872     1.0  0.73922  0.51408  0.79276  1.0000
  C   C1873     1.0  0.73907  0.61014  0.97550  1.0000
  C   C1874     1.0  0.77167  0.89791  0.87608  1.0000
  C   C1875     1.0  0.76540  0.92316  0.85798  1.0000
  C   C1876     1.0  0.74822  0.92718  0.85009  1.0000
  C   C1877     1.0  0.73715  0.90593  0.86026  1.0000
  C   C1878     1.0  0.73503  0.60194  0.53314  1.0000
  C   C1879     1.0  0.66434  0.52293  0.70825  1.0000
  P   P62       1.0  0.71522  0.91034  0.84631  1.0000
  C   C1880     1.0  0.70836  0.94696  0.85530  1.0000
  C   C1881     1.0  0.71537  0.96171  0.88617  1.0000
  H   H1510     1.0  0.94450  0.98703  0.83209  1.0000
  H   H1511     1.0  0.66789  0.56760  0.57882  1.0000
  H   H1512     1.0  0.79998  0.85435  0.92334  1.0000
  C   C1882     1.0  0.74284  0.62916  0.53215  1.0000
  C   C1883     1.0  0.69620  0.86834  0.93247  1.0000
  C   C1884     1.0  0.70643  0.88459  0.91124  1.0000
  C   C1885     1.0  0.97936  0.75820  0.51236  1.0000
  H   H1513     1.0  0.78752  0.68823  0.49836  1.0000
  H   H1514     1.0  0.77386  0.93974  0.85004  1.0000
  H   H1515     1.0  0.74364  0.94677  0.83564  1.0000
  C   C1886     1.0  0.95187  0.99263  0.95688  1.0000
  C   C1887     1.0  0.67416  0.71558  0.92309  1.0000
  C   C1888     1.0  0.78311  0.51200  0.74682  1.0000
  C   C1889     1.0  0.74990  0.86426  0.98297  1.0000
  H   H1516     1.0  0.67381  0.84349  0.93282  1.0000
  H   H1517     1.0  0.72520  0.95161  0.90443  1.0000
  H   H1518     1.0  0.70866  0.84574  0.73822  1.0000
  H   H1519     1.0  0.71731  0.89480  0.92471  1.0000
  C   C1890     1.0  0.70285  0.68847  0.51291  1.0000
  C   C1891     1.0  0.69161  0.63598  0.63158  1.0000
  C   C1892     1.0  0.80317  0.50666  0.81947  1.0000
  C   C1893     1.0  0.68775  0.87584  0.85706  1.0000
  H   H1520     1.0  0.69278  0.79325  0.92183  1.0000
  H   H1521     1.0  0.94464  0.62530  0.97943  1.0000
  P   P63       1.0  0.67470  0.62838  0.56216  1.0000
  C   C1894     1.0  0.95276  0.89762  0.59262  1.0000
  C   C1895     1.0  0.98524  0.91764  0.58992  1.0000
  C   C1896     1.0  0.70337  0.59957  0.59311  1.0000
  C   C1897     1.0  0.72364  0.89542  0.52537  1.0000
  C   C1898     1.0  0.71203  0.89027  0.72220  1.0000
  C   C1899     1.0  0.81953  0.53880  0.73783  1.0000
  H   H1522     1.0  0.94856  0.97216  0.96909  1.0000
  H   H1523     1.0  0.71821  0.94669  0.78079  1.0000
  H   H1524     1.0  0.98697  0.93973  0.78170  1.0000
  H   H1525     1.0  0.71035  0.85617  0.80482  1.0000
  C   C1900     1.0  0.79862  0.85829  0.95219  1.0000
  S   S253      1.0  0.73255  0.99076  0.60609  1.0000
  H   H1526     1.0  0.76641  0.52320  0.65851  1.0000
  H   H1527     1.0  0.68251  0.65290  0.63605  1.0000
  S   S254      1.0  0.72547  0.52629  0.68367  1.0000
  P   P64       1.0  0.66546  0.67949  0.92529  1.0000
  C   C1901     1.0  0.67174  0.59661  0.53345  1.0000
  H   H1528     1.0  0.72562  0.60215  0.67639  1.0000
  C   C1902     1.0  0.70586  0.61228  0.89646  1.0000
  C   C1903     1.0  0.69917  0.61081  0.93050  1.0000
  C   C1904     1.0  0.68670  0.63065  0.93905  1.0000
  C   C1905     1.0  0.95539  0.92699  0.58522  1.0000
  H   H1529     1.0  0.95331  0.56151  0.95076  1.0000
  C   C1906     1.0  0.97881  0.57503  0.94990  1.0000
  C   C1907     1.0  0.74356  0.88024  0.87767  1.0000
  H   H1530     1.0  0.74615  0.91994  0.53231  1.0000
  C   C1908     1.0  0.69857  0.51065  0.81424  1.0000
  H   H1531     1.0  0.70345  0.58804  0.56735  1.0000
  C   C1909     1.0  0.74958  0.89495  0.98062  1.0000
  H   H1532     1.0  0.73717  0.58800  0.55711  1.0000
  H   H1533     1.0  0.79806  0.90510  0.94618  1.0000
  H   H1534     1.0  0.65963  0.96704  0.56361  1.0000
  C   C1910     1.0  0.71334  0.90254  0.79770  1.0000
  C   C1911     1.0  0.71671  0.86947  0.51109  1.0000
  C   C1912     1.0  0.67119  0.76799  0.93081  1.0000
  C   C1913     1.0  0.68634  0.51269  0.78471  1.0000
  H   H1535     1.0  0.81687  0.51694  0.72838  1.0000
  C   C1914     1.0  0.66845  0.56964  0.54938  1.0000
  C   C1915     1.0  0.98738  0.80811  0.61577  1.0000
  C   C1916     1.0  0.66301  0.97914  0.73571  1.0000
  C   C1917     1.0  0.73033  0.50915  0.72718  1.0000
  H   H1536     1.0  0.66303  0.68373  0.59085  1.0000
  C   C1918     1.0  0.96518  0.56400  0.96662  1.0000
  S   S255      1.0  0.73352  0.50549  0.92893  1.0000
  S   S256      1.0  0.73541  0.94963  0.99228  1.0000
  C   C1919     1.0  0.67327  0.59819  0.49538  1.0000
  C   C1920     1.0  0.76938  0.56683  0.49381  1.0000
