data_image0
_chemical_formula_structural       CS2FeSCFeHSFeS2FeSFeS2CFeS2FeS2FeSFeS3C6H6C4SHC6H4C6H4C6H3C6PC10HC4H2CH11CH3CHCHSHC4H2FeHC2H3CHC2FeSCHC3PC19H19C6PC18H6PH13C3HCHCH2C3HCH2C2HC2HCH2SC2H2C5PCH2CH2C3HC2H4C2HCH3CHC4HCHCH4CHCH3C3HSHSHSHFeSHFeS2FeS2FeSFeS3FeCSFeS2FeS2C3HCH2C4HC7H4C6H4C6H4C6H4C7PC3HC4HC9H8CH2C2H7PC2HCH3C3HCHPHCH2SHCPC6SHCH7CH2CHCFeH2C2HCFeCHFeHC3HC2PC2H2CHC5H2C2HC2H2SC12H2CH4C5H3C3HCSCH2C2H2CHCH2CH2C2HC2H3CHCHCH2C2HFeS2FeS3FeS2FeSHFeSFeCS3HC3HC2H3CHC4HC3HCH2C3H2C6H4C2PC16H15PCH2PHC2HC3HC2H4C2HC2HCHCHC3H2C9PC14H5CH9CH4CH5C5SCH4CH2C3SC4HC2HC2HC2HC2HCHCHC3HC3HCH4CHC2HCHPFeS2FeS3FeS2FeS2FeSFeS3H3SC2HC3H4CH2C2H2CHC4H9C7H4C3FeH2C6PC5HC2HC9H18C2HC3PC3H2C3HCHC8H5C2H3CH8C2H2C2HCSCHCH6CHC3HCSH2CH2C15PC16HCH8FeCHC3HCH3CHC2FeSCH3CH2CHCFeCSFeSHS2HCFeSC2HC7H4C3HC2H3CH5CHC2FeCHC3HPC2HCH4C2HCSCHCSH2C4HCHCH2CHCHC3H2C2HCH2C3HCHC2H4C3HCHCHCHC3HPC6PFeCHC3HCHCHCHC2PHCH2CHCH2FeC3SCSH3CH4C4H2SHCFeSCFeSHCFeSHSCFeHSCHSCSC6H4C2H2C2HCH3C2HC8HCH2CH2CH5C2H3C5H3CH2C2HCHSC2HCH2CHCPH3CSCHC4PH2SHC2HC5H2C4HSHCHC2H2CFeC2H2CH3C5HCHCHCH2CHCHC2H4CHC2FeS2FeSHFeSCSHC2S2FeH2C6H4C4HCH3C4HC3H3SHC5PC3H2C7H4SC2H5CSH3CH6C3HC7H2CHCSCHCPHCHCH2CSC2H2CHCH2CHC3HCH2CHCFeHC2HCFeHC2HC3HC3H2CH2CHCHFeSCFeSC2FeSHSFeS2HFeS2HCHC6H4CHC5H4CPC4HC4HC2HCH2CH2C2H4C2HC6HCHCHCHCHC2H5CH2C2HC3PC4H2C3SC8HSCH4CH3SC2H4C2H2CHC2H2CHCPH3C2HC2HC3HC3PC2H6C2HC2H2CHCHCH2C4HCH3CHC3H2FeS2FeS2FeS2FeH2FeSFeS3C2SC4HCHCHCH3CSCSC2HC2HC3HC2HC6H4CHC2H3FeCHC2H3SH2SC2H2C3HC3HCH2C3HCH2CSH3C2FeC2HCH2C2H2C2H3CH2C2HC2PHCH4C3HC3H4CH2C2SC3H3C3PC18H10CH5CHC2HCHCH3CH2CPC3HC4H3CHCHC3HCHC2SFeS2FeS2FeS2FeSFeS4FeHSCHC6H2SHC6H4C2HC8H4C2H3CPC5HC8H3CHC2PH6C6PC18H20C3H2C2HCHCH3C3HC2H2C2HCHC3HCHCHC2H2C2H2C3HC2HSHCH2PCHC2HCHC2HCHC3FeHC2HCSHC2H5C5HC4HCHC2HC2H2CPH2CHCHC2H4CH3C2HCH2CH3CHCH3SHFeS3FeSFeS3FeS2FeS2FeSFeS3PHSFeS2C6H4C6H4C6H5CH2CH2CHC7H2C6PC13H2CHCH10CHCH2C2H6C7HC5HCH3C2H6C8HPH2CH3PC4H2C2H2C2HCH2C2HC3HCHCFeC2HCH2C3HFeCH3C2H2SHC2PC2FeC4HC2HC2HC3H2C5H3CH3CHCHC3H3CH2CH4C2H2C2HFeCSFeS2FeSFeS3FeS2FeS2FeSFeS3CH3SC7H4C3HC7H4C2HCH2C6H4C6H4C4H2C2H2CFeCH2CH2CH3PC7FeCH3CSHC3H2CPH5CHC2H3C2H2C2HCH2C10PC5HC12H15CSCH2C6PCHCH3C2HC3H2CHSH8CHSCHCH4FeH2C6PC8H3C7H5CHC3H2CSC6HC2HC2HCH3CSCHC2HCHCHC2H2
_chemical_formula_sum              "C1440 S192 Fe96 H1152 P48"
_cell_length_a       59.8482
_cell_length_b       59.5662
_cell_length_c       29.4462
_cell_angle_alpha    89.9803
_cell_angle_beta     89.4231
_cell_angle_gamma    89.252

_space_group_name_H-M_alt    "P 1"
_space_group_IT_number       1

loop_
  _space_group_symop_operation_xyz
  'x, y, z'

loop_
  _atom_site_type_symbol
  _atom_site_label
  _atom_site_symmetry_multiplicity
  _atom_site_fract_x
  _atom_site_fract_y
  _atom_site_fract_z
  _atom_site_occupancy
  C   C1        1.0  0.00887  0.16804  0.11447  1.0000
  S   S1        1.0  0.27496  0.01113  0.87419  1.0000
  S   S2        1.0  0.24307  0.02231  0.75694  1.0000
  Fe  Fe1       1.0  0.24738  0.01353  0.92660  1.0000
  S   S3        1.0  0.24633  0.04750  0.96293  1.0000
  C   C2        1.0  0.03182  0.15394  0.17558  1.0000
  Fe  Fe2       1.0  0.01305  0.23062  0.16304  1.0000
  H   H1        1.0  0.23098  0.02520  0.04647  1.0000
  S   S4        1.0  0.03246  0.21112  0.21636  1.0000
  Fe  Fe3       1.0  0.27907  0.14448  0.53993  1.0000
  S   S5        1.0  0.25826  0.13856  0.60285  1.0000
  S   S6        1.0  0.26972  0.12738  0.47343  1.0000
  Fe  Fe4       1.0  0.26251  0.17537  0.61557  1.0000
  S   S7        1.0  0.23193  0.19476  0.63894  1.0000
  Fe  Fe5       1.0  0.29056  0.13402  0.63964  1.0000
  S   S8        1.0  0.29721  0.10997  0.69876  1.0000
  S   S9        1.0  0.28099  0.18166  0.55042  1.0000
  C   C3        1.0  0.29992  0.08272  0.02558  1.0000
  Fe  Fe6       1.0  0.21081  0.15787  0.23318  1.0000
  S   S10       1.0  0.22581  0.14689  0.16581  1.0000
  S   S11       1.0  0.22887  0.17227  0.29480  1.0000
  Fe  Fe7       1.0  0.16255  0.15751  0.19604  1.0000
  S   S12       1.0  0.17363  0.14619  0.12651  1.0000
  S   S13       1.0  0.12711  0.16077  0.22438  1.0000
  Fe  Fe8       1.0  0.19725  0.12259  0.16207  1.0000
  S   S14       1.0  0.19971  0.08548  0.14323  1.0000
  Fe  Fe9       1.0  0.20122  0.17110  0.13485  1.0000
  S   S15       1.0  0.20917  0.19379  0.07576  1.0000
  S   S16       1.0  0.18403  0.13183  0.23183  1.0000
  S   S17       1.0  0.18840  0.18412  0.20159  1.0000
  C   C4        1.0  0.25817  0.14018  0.42427  1.0000
  C   C5        1.0  0.25519  0.16344  0.42067  1.0000
  C   C6        1.0  0.24659  0.17291  0.38045  1.0000
  C   C7        1.0  0.24028  0.15926  0.34385  1.0000
  C   C8        1.0  0.24300  0.13599  0.34763  1.0000
  C   C9        1.0  0.25199  0.12654  0.38755  1.0000
  H   H2        1.0  0.25950  0.17408  0.44887  1.0000
  H   H3        1.0  0.24457  0.19091  0.37785  1.0000
  H   H4        1.0  0.23831  0.12526  0.31974  1.0000
  H   H5        1.0  0.25422  0.10853  0.38996  1.0000
  H   H6        1.0  0.31340  0.19790  0.94653  1.0000
  H   H7        1.0  0.27378  0.18264  0.89627  1.0000
  C   C10       1.0  0.28015  0.12035  0.98391  1.0000
  C   C11       1.0  0.26137  0.20671  0.01083  1.0000
  C   C12       1.0  0.28001  0.09184  0.04301  1.0000
  C   C13       1.0  0.21540  0.22128  0.09283  1.0000
  S   S18       1.0  0.31166  0.13699  0.57570  1.0000
  H   H8        1.0  0.30704  0.06768  0.04068  1.0000
  C   C14       1.0  0.05966  0.19875  0.21544  1.0000
  C   C15       1.0  0.07598  0.20277  0.18177  1.0000
  C   C16       1.0  0.09723  0.19187  0.18383  1.0000
  C   C17       1.0  0.10190  0.17664  0.21921  1.0000
  C   C18       1.0  0.08557  0.17303  0.25261  1.0000
  C   C19       1.0  0.06485  0.18411  0.25103  1.0000
  H   H9        1.0  0.07228  0.21439  0.15463  1.0000
  H   H10       1.0  0.10972  0.19498  0.15786  1.0000
  H   H11       1.0  0.08892  0.16143  0.28007  1.0000
  H   H12       1.0  0.05252  0.18096  0.27732  1.0000
  C   C20       1.0  0.25828  0.04664  0.74108  1.0000
  C   C21       1.0  0.27718  0.05339  0.76484  1.0000
  C   C22       1.0  0.28901  0.07259  0.75097  1.0000
  C   C23       1.0  0.28198  0.08550  0.71358  1.0000
  C   C24       1.0  0.26302  0.07884  0.68987  1.0000
  C   C25       1.0  0.25135  0.05944  0.70341  1.0000
  H   H13       1.0  0.28283  0.04368  0.79364  1.0000
  H   H14       1.0  0.30376  0.07740  0.76933  1.0000
  H   H15       1.0  0.25746  0.08853  0.66095  1.0000
  H   H16       1.0  0.23683  0.05432  0.68464  1.0000
  C   C26       1.0  0.23153  0.05700  0.01186  1.0000
  C   C27       1.0  0.22598  0.07994  0.01525  1.0000
  C   C28       1.0  0.21634  0.08890  0.05527  1.0000
  C   C29       1.0  0.21185  0.07489  0.09221  1.0000
  C   C30       1.0  0.21669  0.05178  0.08834  1.0000
  C   C31       1.0  0.22664  0.04287  0.04847  1.0000
  H   H17       1.0  0.22958  0.09090  0.98695  1.0000
  H   H18       1.0  0.21248  0.10662  0.05770  1.0000
  H   H19       1.0  0.21317  0.04079  0.11671  1.0000
  C   C32       1.0  0.05775  0.15309  0.92336  1.0000
  C   C33       1.0  0.04131  0.13673  0.92012  1.0000
  C   C34       1.0  0.03412  0.12538  0.95905  1.0000
  C   C35       1.0  0.04326  0.13047  0.00128  1.0000
  C   C36       1.0  0.05962  0.14706  0.00489  1.0000
  C   C37       1.0  0.06696  0.15821  0.96554  1.0000
  P   P1        1.0  0.07078  0.15387  0.05993  1.0000
  C   C38       1.0  0.04745  0.15655  0.09929  1.0000
  C   C39       1.0  0.09065  0.13253  0.07789  1.0000
  C   C40       1.0  0.10482  0.13675  0.11453  1.0000
  C   C41       1.0  0.12028  0.12048  0.12868  1.0000
  C   C42       1.0  0.12214  0.10001  0.10579  1.0000
  C   C43       1.0  0.10826  0.09568  0.06901  1.0000
  C   C44       1.0  0.09253  0.11183  0.05511  1.0000
  C   C45       1.0  0.04980  0.15100  0.14537  1.0000
  C   C46       1.0  0.11762  0.20251  0.03920  1.0000
  C   C47       1.0  0.15620  0.23335  0.26429  1.0000
  H   H20       1.0  0.26734  0.19931  0.29014  1.0000
  C   C48       1.0  0.02677  0.16505  0.08410  1.0000
  C   C49       1.0  0.08456  0.18066  0.05625  1.0000
  C   C50       1.0  0.07233  0.20071  0.06226  1.0000
  C   C51       1.0  0.29068  0.16988  0.01650  1.0000
  H   H21       1.0  0.12662  0.21266  0.26428  1.0000
  H   H22       1.0  0.28994  0.11435  0.80481  1.0000
  C   C52       1.0  0.10732  0.18170  0.04453  1.0000
  H   H23       1.0  0.06314  0.16208  0.89327  1.0000
  H   H24       1.0  0.03397  0.13301  0.88752  1.0000
  H   H25       1.0  0.02124  0.11282  0.95662  1.0000
  H   H26       1.0  0.03737  0.12171  0.03128  1.0000
  H   H27       1.0  0.07946  0.17113  0.96730  1.0000
  H   H28       1.0  0.10389  0.15261  0.13240  1.0000
  H   H29       1.0  0.13084  0.12375  0.15761  1.0000
  H   H30       1.0  0.13433  0.08755  0.11680  1.0000
  H   H31       1.0  0.10963  0.07973  0.05147  1.0000
  H   H32       1.0  0.08200  0.10805  0.02661  1.0000
  H   H33       1.0  0.06556  0.14500  0.15860  1.0000
  C   C53       1.0  0.27562  0.14629  0.89736  1.0000
  H   H34       1.0  0.27775  0.11039  0.88487  1.0000
  H   H35       1.0  0.02458  0.17009  0.04907  1.0000
  H   H36       1.0  0.05481  0.20044  0.07098  1.0000
  C   C54       1.0  0.23455  0.19422  0.80318  1.0000
  H   H37       1.0  0.30200  0.15567  0.01986  1.0000
  C   C55       1.0  0.20294  0.12449  0.92351  1.0000
  H   H38       1.0  0.11710  0.16651  0.03907  1.0000
  S   S19       1.0  0.22047  0.00730  0.87591  1.0000
  H   H39       1.0  0.19500  0.11562  0.89609  1.0000
  C   C56       1.0  0.23657  0.13921  0.95758  1.0000
  C   C57       1.0  0.22376  0.14623  0.99540  1.0000
  C   C58       1.0  0.20072  0.14278  0.99676  1.0000
  C   C59       1.0  0.30077  0.11176  0.96795  1.0000
  H   H40       1.0  0.22413  0.21225  0.16129  1.0000
  H   H41       1.0  0.25001  0.24358  0.75524  1.0000
  Fe  Fe10      1.0  0.31209  0.17404  0.59067  1.0000
  H   H42       1.0  0.24345  0.18740  0.96225  1.0000
  C   C60       1.0  0.08268  0.22148  0.05727  1.0000
  C   C61       1.0  0.31598  0.21143  0.73725  1.0000
  H   H43       1.0  0.00286  0.23682  0.55074  1.0000
  H   H44       1.0  0.23149  0.15424  0.02421  1.0000
  H   H45       1.0  0.19107  0.14839  0.02609  1.0000
  C   C62       1.0  0.18309  0.00132  0.78688  1.0000
  H   H46       1.0  0.17252  0.12891  0.96252  1.0000
  C   C63       1.0  0.27032  0.11074  0.02263  1.0000
  C   C64       1.0  0.17530  0.19845  0.31559  1.0000
  Fe  Fe11      1.0  0.24816  0.00379  0.82425  1.0000
  S   S20       1.0  0.01506  0.22543  0.08783  1.0000
  C   C65       1.0  0.28642  0.12917  0.82520  1.0000
  H   H47       1.0  0.30927  0.11936  0.93937  1.0000
  C   C66       1.0  0.15758  0.01424  0.86281  1.0000
  C   C67       1.0  0.17000  0.03041  0.83907  1.0000
  C   C68       1.0  0.18233  0.02384  0.80028  1.0000
  P   P2        1.0  0.16981  0.05938  0.85760  1.0000
  C   C69       1.0  0.16765  0.06118  0.91897  1.0000
  C   C70       1.0  0.19601  0.07162  0.84018  1.0000
  C   C71       1.0  0.21473  0.06988  0.86827  1.0000
  C   C72       1.0  0.23536  0.07814  0.85390  1.0000
  C   C73       1.0  0.23739  0.08850  0.81153  1.0000
  C   C74       1.0  0.21889  0.09022  0.78316  1.0000
  C   C75       1.0  0.19830  0.08166  0.79719  1.0000
  C   C76       1.0  0.15710  0.07975  0.93997  1.0000
  C   C77       1.0  0.15643  0.08154  0.98739  1.0000
  C   C78       1.0  0.16611  0.06477  0.01420  1.0000
  C   C79       1.0  0.17637  0.04616  0.99364  1.0000
  C   C80       1.0  0.17740  0.04448  0.94634  1.0000
  C   C81       1.0  0.14676  0.07439  0.83187  1.0000
  C   C82       1.0  0.12811  0.06279  0.81603  1.0000
  C   C83       1.0  0.11032  0.07451  0.79613  1.0000
  C   C84       1.0  0.11099  0.09786  0.79198  1.0000
  C   C85       1.0  0.12945  0.10955  0.80781  1.0000
  C   C86       1.0  0.14727  0.09789  0.82771  1.0000
  C   C87       1.0  0.23858  0.22288  0.86092  1.0000
  H   H48       1.0  0.30841  0.20117  0.76318  1.0000
  H   H49       1.0  0.07306  0.23689  0.06215  1.0000
  H   H50       1.0  0.14766  0.01891  0.89234  1.0000
  H   H51       1.0  0.19221  0.03576  0.78126  1.0000
  H   H52       1.0  0.21369  0.06158  0.90082  1.0000
  H   H53       1.0  0.24987  0.07587  0.87529  1.0000
  H   H54       1.0  0.25346  0.09442  0.79988  1.0000
  H   H55       1.0  0.22085  0.09740  0.74954  1.0000
  H   H56       1.0  0.18444  0.08224  0.77389  1.0000
  H   H57       1.0  0.14967  0.09303  0.92001  1.0000
  H   H58       1.0  0.14875  0.09609  0.00353  1.0000
  H   H59       1.0  0.16614  0.06637  0.05093  1.0000
  H   H60       1.0  0.18419  0.03330  0.01439  1.0000
  H   H61       1.0  0.18630  0.03035  0.93133  1.0000
  H   H62       1.0  0.12726  0.04470  0.81882  1.0000
  H   H63       1.0  0.09603  0.06542  0.78374  1.0000
  H   H64       1.0  0.09722  0.10689  0.77639  1.0000
  H   H65       1.0  0.13000  0.12766  0.80448  1.0000
  H   H66       1.0  0.16147  0.10717  0.83979  1.0000
  C   C88       1.0  0.21641  0.21637  0.43798  1.0000
  C   C89       1.0  0.23127  0.22154  0.47261  1.0000
  C   C90       1.0  0.23180  0.20851  0.51199  1.0000
  C   C91       1.0  0.21786  0.18997  0.51647  1.0000
  C   C92       1.0  0.20301  0.18452  0.48170  1.0000
  C   C93       1.0  0.20213  0.19810  0.44270  1.0000
  P   P3        1.0  0.18291  0.16253  0.49031  1.0000
  C   C94       1.0  0.19613  0.13979  0.52151  1.0000
  C   C95       1.0  0.15975  0.17346  0.52382  1.0000
  C   C96       1.0  0.15734  0.19660  0.53202  1.0000
  C   C97       1.0  0.13957  0.20475  0.55878  1.0000
  C   C98       1.0  0.12407  0.18990  0.57737  1.0000
  C   C99       1.0  0.12634  0.16685  0.56930  1.0000
  C   C100      1.0  0.14414  0.15864  0.54273  1.0000
  C   C101      1.0  0.19460  0.13924  0.56921  1.0000
  C   C102      1.0  0.20433  0.12155  0.59360  1.0000
  C   C103      1.0  0.21618  0.10456  0.57076  1.0000
  C   C104      1.0  0.21843  0.10536  0.52356  1.0000
  C   C105      1.0  0.20843  0.12281  0.49900  1.0000
  C   C106      1.0  0.17323  0.15270  0.43574  1.0000
  C   C107      1.0  0.18874  0.14741  0.40124  1.0000
  C   C108      1.0  0.18159  0.14003  0.35882  1.0000
  C   C109      1.0  0.15879  0.13838  0.34999  1.0000
  C   C110      1.0  0.14315  0.14399  0.38376  1.0000
  C   C111      1.0  0.15028  0.15110  0.42649  1.0000
  H   H67       1.0  0.20819  0.23549  0.02724  1.0000
  H   H68       1.0  0.25884  0.23305  0.24417  1.0000
  H   H69       1.0  0.24287  0.21287  0.53943  1.0000
  H   H70       1.0  0.21845  0.18018  0.54744  1.0000
  H   H71       1.0  0.19036  0.19471  0.41600  1.0000
  H   H72       1.0  0.16919  0.20843  0.51823  1.0000
  P   P4        1.0  0.31039  0.24080  0.40550  1.0000
  H   H73       1.0  0.21589  0.22651  0.40747  1.0000
  H   H74       1.0  0.11435  0.15532  0.58377  1.0000
  H   H75       1.0  0.14581  0.14072  0.53691  1.0000
  H   H76       1.0  0.18629  0.15266  0.58782  1.0000
  H   H77       1.0  0.20337  0.12141  0.63035  1.0000
  H   H78       1.0  0.22435  0.09124  0.58972  1.0000
  H   H79       1.0  0.22851  0.09278  0.50595  1.0000
  H   H80       1.0  0.21092  0.12304  0.46270  1.0000
  H   H81       1.0  0.20643  0.14926  0.40699  1.0000
  H   H82       1.0  0.19379  0.13604  0.33247  1.0000
  H   H83       1.0  0.15323  0.13305  0.31676  1.0000
  H   H84       1.0  0.12547  0.14293  0.37659  1.0000
  H   H85       1.0  0.13778  0.15552  0.45172  1.0000
  C   C112      1.0  0.23323  0.20090  0.84867  1.0000
  C   C113      1.0  0.28593  0.21730  0.34037  1.0000
  C   C114      1.0  0.21210  0.23613  0.63720  1.0000
  H   H86       1.0  0.28146  0.22168  0.06261  1.0000
  C   C115      1.0  0.19031  0.13184  0.96095  1.0000
  H   H87       1.0  0.28977  0.20112  0.44602  1.0000
  C   C116      1.0  0.24604  0.23163  0.78186  1.0000
  H   H88       1.0  0.18297  0.18468  0.33391  1.0000
  H   H89       1.0  0.23537  0.12225  0.89256  1.0000
  C   C117      1.0  0.25793  0.18776  0.98400  1.0000
  C   C118      1.0  0.23240  0.22426  0.63665  1.0000
  C   C119      1.0  0.27341  0.21555  0.30075  1.0000
  H   H90       1.0  0.24131  0.20461  0.73436  1.0000
  C   C120      1.0  0.15760  0.22186  0.11118  1.0000
  H   H91       1.0  0.16087  0.20466  0.10085  1.0000
  H   H92       1.0  0.15100  0.21293  0.18042  1.0000
  C   C121      1.0  0.24089  0.20961  0.76981  1.0000
  C   C122      1.0  0.30742  0.19752  0.44113  1.0000
  H   H93       1.0  0.19653  0.22711  0.63861  1.0000
  C   C123      1.0  0.01144  0.16261  0.16025  1.0000
  C   C124      1.0  0.22595  0.12825  0.92168  1.0000
  H   H94       1.0  0.27170  0.08390  0.07162  1.0000
  C   C125      1.0  0.21349  0.23889  0.06153  1.0000
  H   H95       1.0  0.28921  0.20216  0.35953  1.0000
  H   H96       1.0  0.25487  0.11745  0.03673  1.0000
  S   S21       1.0  0.29334  0.17077  0.65690  1.0000
  C   C126      1.0  0.18806  0.21701  0.30359  1.0000
  C   C127      1.0  0.22231  0.22580  0.13712  1.0000
  H   H97       1.0  0.23037  0.17722  0.79357  1.0000
  H   H98       1.0  0.22774  0.18908  0.87433  1.0000
  C   C128      1.0  0.15309  0.19717  0.30191  1.0000
  C   C129      1.0  0.15247  0.22664  0.15656  1.0000
  C   C130      1.0  0.31046  0.09286  0.98846  1.0000
  C   C131      1.0  0.24554  0.23829  0.82766  1.0000
  C   C132      1.0  0.27236  0.16903  0.98711  1.0000
  P   P5        1.0  0.26641  0.14369  0.95591  1.0000
  C   C133      1.0  0.14359  0.21445  0.27609  1.0000
  H   H99       1.0  0.31075  0.23414  0.50477  1.0000
  H   H100      1.0  0.14341  0.18239  0.30976  1.0000
  C   C134      1.0  0.10534  0.22240  0.04583  1.0000
  H   H101      1.0  0.26808  0.22675  0.63352  1.0000
  H   H102      1.0  0.13514  0.20318  0.02990  1.0000
  C   C135      1.0  0.29412  0.18896  0.04316  1.0000
  C   C136      1.0  0.28835  0.15039  0.80553  1.0000
  C   C137      1.0  0.15892  0.23925  0.07942  1.0000
  H   H103      1.0  0.29326  0.15183  0.77003  1.0000
  C   C138      1.0  0.27734  0.16753  0.87711  1.0000
  C   C139      1.0  0.28365  0.16955  0.83146  1.0000
  H   H104      1.0  0.16327  0.23556  0.04441  1.0000
  H   H105      1.0  0.30789  0.18928  0.06678  1.0000
  H   H106      1.0  0.24953  0.22062  0.00986  1.0000
  H   H107      1.0  0.23664  0.22789  0.89606  1.0000
  C   C140      1.0  0.25248  0.23603  0.63482  1.0000
  C   C141      1.0  0.31182  0.23594  0.67234  1.0000
  H   H108      1.0  0.11325  0.23857  0.04203  1.0000
  C   C142      1.0  0.27974  0.12706  0.87068  1.0000
  H   H109      1.0  0.28426  0.22212  0.71000  1.0000
  H   H110      1.0  0.24225  0.23572  0.46923  1.0000
  H   H111      1.0  0.28813  0.24588  0.79006  1.0000
  C   C143      1.0  0.17861  0.23438  0.27794  1.0000
  H   H112      1.0  0.28467  0.18601  0.81618  1.0000
  C   C144      1.0  0.27934  0.20727  0.04067  1.0000
  C   C145      1.0  0.32152  0.19780  0.91348  1.0000
  C   C146      1.0  0.30226  0.22316  0.70701  1.0000
  C   C147      1.0  0.26866  0.23459  0.27477  1.0000
  H   H113      1.0  0.20556  0.21743  0.31269  1.0000
  C   C148      1.0  0.29398  0.23824  0.35436  1.0000
  H   H114      1.0  0.11034  0.19626  0.59815  1.0000
  C   C149      1.0  0.29772  0.24627  0.49651  1.0000
  H   H115      1.0  0.13793  0.22260  0.56530  1.0000
  H   H116      1.0  0.30149  0.24526  0.64890  1.0000
  H   H117      1.0  0.03395  0.15039  0.21137  1.0000
  H   H118      1.0  0.18907  0.24820  0.26792  1.0000
  C   C150      1.0  0.32147  0.21723  0.88691  1.0000
  H   H119      1.0  0.31352  0.23248  0.89943  1.0000
  C   C151      1.0  0.22727  0.24789  0.14999  1.0000
  H   H120      1.0  0.27508  0.24542  0.91484  1.0000
  H   H121      1.0  0.30477  0.16373  0.46694  1.0000
  H   H122      1.0  0.32594  0.08576  0.97511  1.0000
  C   C152      1.0  0.32163  0.21377  0.42254  1.0000
  C   C153      1.0  0.31585  0.17638  0.45328  1.0000
  C   C154      1.0  0.14956  0.24895  0.17079  1.0000
  H   H123      1.0  0.99788  0.16581  0.18414  1.0000
  S   S22       1.0  0.31212  0.35631  0.67463  1.0000
  H   H124      1.0  0.29542  0.27363  0.33746  1.0000
  S   S23       1.0  0.24116  0.46640  0.47471  1.0000
  H   H125      1.0  0.23323  0.30976  0.98270  1.0000
  S   S24       1.0  0.26466  0.46498  0.24958  1.0000
  H   H126      1.0  0.24890  0.40496  0.76525  1.0000
  Fe  Fe12      1.0  0.01608  0.26311  0.08498  1.0000
  S   S25       1.0  0.04235  0.27740  0.03668  1.0000
  H   H127      1.0  0.01091  0.30298  0.22684  1.0000
  Fe  Fe13      1.0  0.19833  0.36960  0.10339  1.0000
  S   S26       1.0  0.17241  0.36528  0.04895  1.0000
  S   S27       1.0  0.19646  0.40143  0.14681  1.0000
  Fe  Fe14      1.0  0.21146  0.31972  0.09861  1.0000
  S   S28       1.0  0.18652  0.31191  0.04492  1.0000
  S   S29       1.0  0.23142  0.29309  0.13541  1.0000
  Fe  Fe15      1.0  0.19869  0.34399  0.01271  1.0000
  S   S30       1.0  0.20156  0.34251  0.93521  1.0000
  Fe  Fe16      1.0  0.16252  0.33358  0.08479  1.0000
  S   S31       1.0  0.12856  0.32476  0.11492  1.0000
  S   S32       1.0  0.22540  0.35052  0.06463  1.0000
  S   S33       1.0  0.18686  0.33915  0.14087  1.0000
  Fe  Fe17      1.0  0.28869  0.36097  0.61541  1.0000
  C   C155      1.0  0.07224  0.35598  0.20144  1.0000
  S   S34       1.0  0.29714  0.38332  0.55439  1.0000
  Fe  Fe18      1.0  0.26067  0.32102  0.64473  1.0000
  S   S35       1.0  0.28184  0.31310  0.70470  1.0000
  S   S36       1.0  0.23038  0.30093  0.62714  1.0000
  Fe  Fe19      1.0  0.28096  0.35024  0.71703  1.0000
  S   S37       1.0  0.27889  0.36310  0.79020  1.0000
  S   S38       1.0  0.25764  0.35810  0.65910  1.0000
  C   C156      1.0  0.10546  0.25466  0.28363  1.0000
  C   C157      1.0  0.23177  0.27152  0.63341  1.0000
  C   C158      1.0  0.00623  0.38954  0.19145  1.0000
  H   H128      1.0  0.15355  0.33851  0.84774  1.0000
  C   C159      1.0  0.00393  0.32325  0.07526  1.0000
  H   H129      1.0  0.19597  0.26861  0.63395  1.0000
  H   H130      1.0  0.26768  0.26890  0.63369  1.0000
  C   C160      1.0  0.22491  0.26556  0.11890  1.0000
  C   C161      1.0  0.21796  0.26099  0.07469  1.0000
  C   C162      1.0  0.15384  0.47157  0.83951  1.0000
  C   C163      1.0  0.21179  0.25962  0.63476  1.0000
  H   H131      1.0  0.21637  0.27443  0.05035  1.0000
  C   C164      1.0  0.24004  0.29080  0.92178  1.0000
  C   C165      1.0  0.22363  0.34806  0.89606  1.0000
  C   C166      1.0  0.24455  0.35562  0.90974  1.0000
  C   C167      1.0  0.26144  0.35972  0.87705  1.0000
  C   C168      1.0  0.25771  0.35614  0.83045  1.0000
  C   C169      1.0  0.23692  0.34822  0.81697  1.0000
  C   C170      1.0  0.21999  0.34434  0.84956  1.0000
  H   H132      1.0  0.24765  0.35848  0.94538  1.0000
  H   H133      1.0  0.27744  0.36593  0.88785  1.0000
  H   H134      1.0  0.23372  0.34564  0.78129  1.0000
  H   H135      1.0  0.20391  0.33848  0.83862  1.0000
  C   C171      1.0  0.06725  0.28884  0.05838  1.0000
  C   C172      1.0  0.08471  0.29497  0.02866  1.0000
  C   C173      1.0  0.10408  0.30536  0.04528  1.0000
  C   C174      1.0  0.10592  0.30986  0.09174  1.0000
  C   C175      1.0  0.08865  0.30328  0.12123  1.0000
  C   C176      1.0  0.06949  0.29283  0.10476  1.0000
  H   H136      1.0  0.08306  0.29200  0.99262  1.0000
  H   H137      1.0  0.11723  0.31041  0.02215  1.0000
  H   H138      1.0  0.08991  0.30650  0.15708  1.0000
  H   H139      1.0  0.05609  0.28861  0.12784  1.0000
  C   C177      1.0  0.24570  0.44642  0.22331  1.0000
  C   C178      1.0  0.22300  0.44623  0.23498  1.0000
  C   C179      1.0  0.20830  0.43211  0.21156  1.0000
  C   C180      1.0  0.21613  0.41774  0.17679  1.0000
  C   C181      1.0  0.23894  0.41749  0.16590  1.0000
  C   C182      1.0  0.25361  0.43181  0.18899  1.0000
  H   H140      1.0  0.21667  0.45733  0.26134  1.0000
  H   H141      1.0  0.19069  0.43250  0.22017  1.0000
  H   H142      1.0  0.24520  0.40667  0.13903  1.0000
  H   H143      1.0  0.27115  0.43182  0.17975  1.0000
  C   C183      1.0  0.25689  0.44316  0.49584  1.0000
  C   C184      1.0  0.24980  0.43266  0.53623  1.0000
  C   C185      1.0  0.26181  0.41430  0.55457  1.0000
  C   C186      1.0  0.28109  0.40618  0.53260  1.0000
  C   C187      1.0  0.28791  0.41635  0.49170  1.0000
  C   C188      1.0  0.27595  0.43475  0.47338  1.0000
  H   H144      1.0  0.23501  0.43893  0.55371  1.0000
  H   H145      1.0  0.25625  0.40659  0.58590  1.0000
  H   H146      1.0  0.30236  0.40976  0.47378  1.0000
  H   H147      1.0  0.28142  0.44240  0.44193  1.0000
  C   C189      1.0  0.31036  0.41841  0.35485  1.0000
  C   C190      1.0  0.23765  0.36373  0.22462  1.0000
  C   C191      1.0  0.24247  0.34076  0.22601  1.0000
  C   C192      1.0  0.24762  0.33047  0.26732  1.0000
  C   C193      1.0  0.24769  0.34313  0.30739  1.0000
  C   C194      1.0  0.24200  0.36610  0.30652  1.0000
  C   C195      1.0  0.23787  0.37647  0.26449  1.0000
  P   P6        1.0  0.24239  0.38277  0.35785  1.0000
  C   C196      1.0  0.26898  0.39675  0.35736  1.0000
  C   C197      1.0  0.22012  0.40350  0.35927  1.0000
  C   C198      1.0  0.20131  0.40164  0.33136  1.0000
  H   H148      1.0  0.27307  0.27364  0.40798  1.0000
  C   C199      1.0  0.31762  0.29409  0.78721  1.0000
  C   C200      1.0  0.03533  0.39175  0.24789  1.0000
  C   C201      1.0  0.06782  0.25582  0.25415  1.0000
  C   C202      1.0  0.28787  0.38664  0.37711  1.0000
  H   H149      1.0  0.06515  0.25921  0.18174  1.0000
  C   C203      1.0  0.15471  0.26139  0.09289  1.0000
  C   C204      1.0  0.29183  0.42818  0.33385  1.0000
  C   C205      1.0  0.27121  0.41745  0.33506  1.0000
  C   C206      1.0  0.23833  0.36623  0.40881  1.0000
  C   C207      1.0  0.24839  0.37257  0.44965  1.0000
  C   C208      1.0  0.24521  0.35992  0.48916  1.0000
  C   C209      1.0  0.23142  0.34119  0.48862  1.0000
  C   C210      1.0  0.22057  0.33528  0.44858  1.0000
  C   C211      1.0  0.22383  0.34787  0.40892  1.0000
  H   H150      1.0  0.23379  0.37169  0.19247  1.0000
  H   H151      1.0  0.24239  0.33101  0.19488  1.0000
  H   H152      1.0  0.25165  0.31270  0.26802  1.0000
  H   H153      1.0  0.25230  0.33499  0.33882  1.0000
  H   H154      1.0  0.23469  0.39441  0.26242  1.0000
  H   H155      1.0  0.19952  0.38758  0.30854  1.0000
  H   H156      1.0  0.99881  0.31641  0.04292  1.0000
  H   H157      1.0  0.10562  0.26083  0.16832  1.0000
  C   C212      1.0  0.01576  0.42551  0.22392  1.0000
  H   H158      1.0  0.23544  0.42325  0.41214  1.0000
  H   H159      1.0  0.28671  0.37042  0.39344  1.0000
  C   C213      1.0  0.02605  0.32966  0.08132  1.0000
  C   C214      1.0  0.29188  0.26326  0.79616  1.0000
  H   H160      1.0  0.29339  0.44414  0.31649  1.0000
  H   H161      1.0  0.25708  0.42539  0.31839  1.0000
  H   H162      1.0  0.25844  0.38749  0.45131  1.0000
  H   H163      1.0  0.25319  0.36489  0.52048  1.0000
  H   H164      1.0  0.22877  0.33162  0.51958  1.0000
  H   H165      1.0  0.20934  0.32116  0.44859  1.0000
  H   H166      1.0  0.21483  0.34346  0.37855  1.0000
  P   P7        1.0  0.25042  0.26733  0.84175  1.0000
  C   C215      1.0  0.24215  0.29550  0.96803  1.0000
  C   C216      1.0  0.22753  0.28234  0.81562  1.0000
  H   H167      1.0  0.17046  0.41712  0.30966  1.0000
  C   C217      1.0  0.13645  0.43354  0.88221  1.0000
  H   H168      1.0  0.25762  0.28593  0.03094  1.0000
  H   H169      1.0  0.03794  0.32793  0.05349  1.0000
  H   H170      1.0  0.13154  0.33172  0.91820  1.0000
  C   C218      1.0  0.16367  0.38767  0.90273  1.0000
  C   C219      1.0  0.14017  0.34744  0.91352  1.0000
  C   C220      1.0  0.23553  0.40712  0.79011  1.0000
  H   H171      1.0  0.13018  0.36048  0.97893  1.0000
  C   C221      1.0  0.15249  0.35131  0.87377  1.0000
  H   H172      1.0  0.17325  0.44938  0.36267  1.0000
  P   P8        1.0  0.17852  0.41376  0.89636  1.0000
  H   H173      1.0  0.25788  0.40715  0.84675  1.0000
  C   C222      1.0  0.19611  0.41021  0.80861  1.0000
  H   H174      1.0  0.12935  0.41903  0.89874  1.0000
  H   H175      1.0  0.25151  0.29071  0.47104  1.0000
  S   S39       1.0  0.01547  0.26816  0.16057  1.0000
  H   H176      1.0  0.20360  0.38885  0.96487  1.0000
  C   C223      1.0  0.21329  0.40808  0.77628  1.0000
  P   P9        1.0  0.02671  0.34881  0.21525  1.0000
  C   C224      1.0  0.15775  0.28132  0.24382  1.0000
  C   C225      1.0  0.17841  0.28649  0.22350  1.0000
  C   C226      1.0  0.18940  0.30619  0.23501  1.0000
  C   C227      1.0  0.17980  0.32108  0.26643  1.0000
  C   C228      1.0  0.15934  0.31602  0.28710  1.0000
  C   C229      1.0  0.14839  0.29613  0.27606  1.0000
  S   S40       1.0  0.28967  0.32425  0.59725  1.0000
  H   H177      1.0  0.09118  0.30317  0.26844  1.0000
  C   C230      1.0  0.09497  0.35068  0.20507  1.0000
  H   H178      1.0  0.21686  0.39890  0.04145  1.0000
  H   H179      1.0  0.14707  0.28352  0.14843  1.0000
  H   H180      1.0  0.18615  0.27532  0.19867  1.0000
  H   H181      1.0  0.20516  0.31007  0.21856  1.0000
  H   H182      1.0  0.18815  0.33664  0.27426  1.0000
  H   H183      1.0  0.15186  0.32761  0.31135  1.0000
  H   H184      1.0  0.13261  0.29249  0.29241  1.0000
  C   C231      1.0  0.10181  0.33179  0.22959  1.0000
  H   H185      1.0  0.10734  0.36072  0.18745  1.0000
  H   H186      1.0  0.17895  0.41096  0.79733  1.0000
  C   C232      1.0  0.20410  0.43270  0.03862  1.0000
  H   H187      1.0  0.20956  0.43674  0.07268  1.0000
  C   C233      1.0  0.27690  0.27731  0.82026  1.0000
  Fe  Fe20      1.0  0.31120  0.31958  0.65854  1.0000
  H   H188      1.0  0.17415  0.37355  0.83792  1.0000
  H   H189      1.0  0.15051  0.39595  0.96959  1.0000
  C   C234      1.0  0.03194  0.41498  0.25074  1.0000
  C   C235      1.0  0.30314  0.30794  0.81243  1.0000
  H   H190      1.0  0.24670  0.29290  0.75684  1.0000
  C   C236      1.0  0.13075  0.46953  0.84536  1.0000
  Fe  Fe21      1.0  0.25658  0.48808  0.30977  1.0000
  C   C237      1.0  0.30842  0.39760  0.37629  1.0000
  H   H191      1.0  0.27304  0.27019  0.26770  1.0000
  Fe  Fe22      1.0  0.24909  0.48811  0.41262  1.0000
  H   H192      1.0  0.20325  0.27320  0.86719  1.0000
  C   C238      1.0  0.31758  0.33436  0.46984  1.0000
  C   C239      1.0  0.05609  0.34226  0.22198  1.0000
  C   C240      1.0  0.06310  0.32324  0.24651  1.0000
  H   H193      1.0  0.18952  0.46530  0.02656  1.0000
  C   C241      1.0  0.01789  0.33898  0.16018  1.0000
  C   C242      1.0  0.08233  0.25403  0.29087  1.0000
  P   P10       1.0  0.14409  0.25537  0.22972  1.0000
  C   C243      1.0  0.25220  0.25973  0.63455  1.0000
  C   C244      1.0  0.18908  0.42163  0.95141  1.0000
  H   H194      1.0  0.11959  0.48267  0.83339  1.0000
  H   H195      1.0  0.05109  0.31211  0.26195  1.0000
  C   C245      1.0  0.20606  0.28178  0.83525  1.0000
  H   H196      1.0  0.25929  0.27986  0.55029  1.0000
  C   C246      1.0  0.18610  0.43639  0.36212  1.0000
  C   C247      1.0  0.27667  0.26845  0.44228  1.0000
  C   C248      1.0  0.16826  0.45462  0.85497  1.0000
  C   C249      1.0  0.12207  0.45054  0.86674  1.0000
  C   C250      1.0  0.22346  0.41005  0.86872  1.0000
  H   H197      1.0  0.16059  0.48631  0.82301  1.0000
  H   H198      1.0  0.22792  0.41040  0.90417  1.0000
  C   C251      1.0  0.22131  0.42157  0.38970  1.0000
  C   C252      1.0  0.20060  0.40568  0.97772  1.0000
  H   H199      1.0  0.20943  0.40698  0.74049  1.0000
  C   C253      1.0  0.26559  0.25922  0.92952  1.0000
  C   C254      1.0  0.26780  0.26407  0.97577  1.0000
  H   H200      1.0  0.05046  0.34161  0.12737  1.0000
  H   H201      1.0  0.30732  0.32536  0.81818  1.0000
  S   S41       1.0  0.27991  0.48552  0.36917  1.0000
  C   C255      1.0  0.31200  0.27178  0.77909  1.0000
  C   C256      1.0  0.25143  0.27237  0.90226  1.0000
  C   C257      1.0  0.19126  0.30322  0.77215  1.0000
  C   C258      1.0  0.21247  0.30335  0.75190  1.0000
  C   C259      1.0  0.23053  0.29291  0.77346  1.0000
  C   C260      1.0  0.18456  0.41824  0.33232  1.0000
  C   C261      1.0  0.15966  0.43543  0.87628  1.0000
  C   C262      1.0  0.26873  0.27206  0.52276  1.0000
  C   C263      1.0  0.15110  0.38369  0.94243  1.0000
  C   C264      1.0  0.20816  0.41127  0.02102  1.0000
  C   C265      1.0  0.20430  0.43786  0.39122  1.0000
  C   C266      1.0  0.24059  0.40833  0.83622  1.0000
  H   H202      1.0  0.32621  0.42698  0.35426  1.0000
  H   H203      1.0  0.04188  0.42484  0.27375  1.0000
  C   C267      1.0  0.20104  0.41107  0.85516  1.0000
  H   H204      1.0  0.18614  0.45653  0.85046  1.0000
  H   H205      1.0  0.17736  0.31144  0.75539  1.0000
  H   H206      1.0  0.21497  0.31153  0.71937  1.0000
  H   H207      1.0  0.15524  0.27488  0.06826  1.0000
  C   C268      1.0  0.16421  0.37132  0.86833  1.0000
  C   C269      1.0  0.19273  0.44873  0.01265  1.0000
  C   C270      1.0  0.08590  0.31813  0.25046  1.0000
  C   C271      1.0  0.25599  0.28214  0.99507  1.0000
  C   C272      1.0  0.31697  0.31583  0.49889  1.0000
  H   H208      1.0  0.22985  0.30191  0.90140  1.0000
  H   H209      1.0  0.20546  0.45184  0.41465  1.0000
  H   H210      1.0  0.06729  0.37044  0.18142  1.0000
  C   C273      1.0  0.03309  0.33737  0.12360  1.0000
  C   C274      1.0  0.13942  0.36366  0.94777  1.0000
  C   C275      1.0  0.18526  0.44327  0.96917  1.0000
  H   H211      1.0  0.27155  0.31080  0.84718  1.0000
  C   C276      1.0  0.26437  0.27823  0.47795  1.0000
  S   S42       1.0  0.22552  0.48897  0.35319  1.0000
  C   C277      1.0  0.28280  0.29965  0.82861  1.0000
  H   H212      1.0  0.11940  0.32734  0.23055  1.0000
  H   H213      1.0  0.17632  0.45592  0.95002  1.0000
  C   C278      1.0  0.01002  0.33558  0.25906  1.0000
  C   C279      1.0  0.00288  0.41279  0.19441  1.0000
  H   H214      1.0  0.17163  0.29231  0.82960  1.0000
  H   H215      1.0  0.04779  0.38381  0.26922  1.0000
  C   C280      1.0  0.15009  0.26625  0.13844  1.0000
  H   H216      1.0  0.30281  0.30475  0.49861  1.0000
  C   C281      1.0  0.18806  0.29243  0.81383  1.0000
  H   H217      1.0  0.10417  0.44897  0.87138  1.0000
  H   H218      1.0  0.32315  0.26134  0.75870  1.0000
  C   C282      1.0  0.02271  0.37889  0.21773  1.0000
  H   H219      1.0  0.30925  0.49031  0.22373  1.0000
  H   H220      1.0  0.30386  0.33760  0.44697  1.0000
  C   C283      1.0  0.11424  0.25700  0.23946  1.0000
  C   C284      1.0  0.00471  0.31280  0.25525  1.0000
  H   H221      1.0  0.01319  0.44353  0.22608  1.0000
  C   C285      1.0  0.07641  0.25851  0.21027  1.0000
  C   C286      1.0  0.00149  0.34797  0.29613  1.0000
  H   H222      1.0  0.32284  0.39007  0.39240  1.0000
  H   H223      1.0  0.00530  0.36554  0.30011  1.0000
  H   H224      1.0  0.23267  0.25131  0.18418  1.0000
  C   C287      1.0  0.09949  0.25918  0.20285  1.0000
  H   H225      1.0  0.27883  0.25403  0.99669  1.0000
  C   C288      1.0  0.28538  0.25608  0.53200  1.0000
  H   H226      1.0  0.04991  0.25447  0.25936  1.0000
  C   C289      1.0  0.29343  0.25234  0.45124  1.0000
  H   H227      1.0  0.11652  0.25267  0.31228  1.0000
  H   H228      1.0  0.07561  0.25149  0.32474  1.0000
  C   C290      1.0  0.27663  0.25548  0.28818  1.0000
  C   C291      1.0  0.28928  0.25732  0.32773  1.0000
  H   H229      1.0  0.28887  0.25133  0.56677  1.0000
  Fe  Fe23      1.0  0.22986  0.52661  0.35478  1.0000
  S   S43       1.0  0.25912  0.52579  0.30611  1.0000
  S   S44       1.0  0.20170  0.55170  0.34054  1.0000
  Fe  Fe24      1.0  0.27974  0.52344  0.36910  1.0000
  S   S45       1.0  0.31315  0.54034  0.38043  1.0000
  S   S46       1.0  0.25065  0.52591  0.41780  1.0000
  S   S47       1.0  0.31587  0.72749  0.41367  1.0000
  Fe  Fe25      1.0  0.17471  0.67888  0.41437  1.0000
  S   S48       1.0  0.17711  0.69166  0.34305  1.0000
  S   S49       1.0  0.18955  0.64596  0.44029  1.0000
  Fe  Fe26      1.0  0.15520  0.72336  0.45045  1.0000
  S   S50       1.0  0.15606  0.73956  0.38104  1.0000
  H   H230      1.0  0.14583  0.59760  0.54636  1.0000
  Fe  Fe27      1.0  0.14284  0.70694  0.35496  1.0000
  S   S51       1.0  0.11964  0.70278  0.29446  1.0000
  Fe  Fe28      1.0  0.18994  0.72319  0.37415  1.0000
  C   C292      1.0  0.15405  0.74257  0.23562  1.0000
  S   S52       1.0  0.13940  0.69165  0.42483  1.0000
  S   S53       1.0  0.19011  0.70959  0.44514  1.0000
  S   S54       1.0  0.02163  0.73836  0.11924  1.0000
  H   H231      1.0  0.05314  0.57248  0.49660  1.0000
  C   C293      1.0  0.09478  0.71825  0.28268  1.0000
  C   C294      1.0  0.08326  0.71376  0.24234  1.0000
  C   C295      1.0  0.06330  0.72538  0.23175  1.0000
  H   H232      1.0  0.31943  0.63044  0.18142  1.0000
  C   C296      1.0  0.29250  0.70497  0.05136  1.0000
  C   C297      1.0  0.07769  0.68701  0.10464  1.0000
  H   H233      1.0  0.08974  0.70110  0.21928  1.0000
  H   H234      1.0  0.05460  0.72164  0.20068  1.0000
  H   H235      1.0  0.31061  0.55588  0.28316  1.0000
  C   C298      1.0  0.26851  0.72674  0.22098  1.0000
  H   H236      1.0  0.23874  0.61113  0.33785  1.0000
  C   C299      1.0  0.17498  0.73365  0.22371  1.0000
  C   C300      1.0  0.08136  0.59440  0.49043  1.0000
  C   C301      1.0  0.28870  0.73167  0.39334  1.0000
  C   C302      1.0  0.30766  0.55536  0.20995  1.0000
  H   H237      1.0  0.23090  0.70939  0.09498  1.0000
  C   C303      1.0  0.24506  0.73773  0.36073  1.0000
  C   C304      1.0  0.24857  0.72738  0.40275  1.0000
  C   C305      1.0  0.27032  0.72501  0.41970  1.0000
  H   H238      1.0  0.30380  0.54832  0.13815  1.0000
  C   C306      1.0  0.32043  0.73935  0.75283  1.0000
  H   H239      1.0  0.23460  0.72129  0.42233  1.0000
  H   H240      1.0  0.27173  0.63525  0.32350  1.0000
  C   C307      1.0  0.31046  0.72222  0.97084  1.0000
  C   C308      1.0  0.31508  0.58651  0.35850  1.0000
  C   C309      1.0  0.27220  0.59750  0.14023  1.0000
  H   H241      1.0  0.29749  0.58596  0.35089  1.0000
  H   H242      1.0  0.31280  0.51483  0.29127  1.0000
  C   C310      1.0  0.20040  0.57861  0.36623  1.0000
  C   C311      1.0  0.21020  0.58263  0.40827  1.0000
  C   C312      1.0  0.20682  0.60342  0.43018  1.0000
  C   C313      1.0  0.19411  0.62061  0.40983  1.0000
  C   C314      1.0  0.18517  0.61700  0.36678  1.0000
  C   C315      1.0  0.18801  0.59595  0.34544  1.0000
  H   H243      1.0  0.21954  0.56936  0.42482  1.0000
  H   H244      1.0  0.21384  0.60607  0.46341  1.0000
  H   H245      1.0  0.17560  0.63017  0.35043  1.0000
  H   H246      1.0  0.18036  0.59298  0.31289  1.0000
  C   C316      1.0  0.07028  0.60849  0.57850  1.0000
  C   C317      1.0  0.13743  0.59895  0.47508  1.0000
  P   P11       1.0  0.11799  0.62225  0.48187  1.0000
  C   C318      1.0  0.12942  0.64582  0.51206  1.0000
  C   C319      1.0  0.10984  0.63359  0.42755  1.0000
  C   C320      1.0  0.12634  0.63903  0.39536  1.0000
  C   C321      1.0  0.12043  0.64883  0.35396  1.0000
  C   C322      1.0  0.09802  0.65361  0.34472  1.0000
  C   C323      1.0  0.08150  0.64860  0.37687  1.0000
  C   C324      1.0  0.08735  0.63870  0.41827  1.0000
  C   C325      1.0  0.15194  0.64616  0.52490  1.0000
  C   C326      1.0  0.16062  0.66505  0.54634  1.0000
  C   C327      1.0  0.14692  0.68373  0.55508  1.0000
  C   C328      1.0  0.12456  0.68366  0.54203  1.0000
  C   C329      1.0  0.11583  0.66482  0.52047  1.0000
  C   C330      1.0  0.09414  0.61095  0.51147  1.0000
  C   C331      1.0  0.31924  0.63706  0.46198  1.0000
  C   C332      1.0  0.08867  0.61773  0.55593  1.0000
  C   C333      1.0  0.06299  0.58518  0.51310  1.0000
  H   H247      1.0  0.13132  0.59385  0.40321  1.0000
  H   H248      1.0  0.14382  0.63621  0.40288  1.0000
  H   H249      1.0  0.13326  0.65346  0.32957  1.0000
  H   H250      1.0  0.09357  0.66180  0.31310  1.0000
  H   H251      1.0  0.06422  0.65287  0.36996  1.0000
  H   H252      1.0  0.07436  0.63560  0.44318  1.0000
  H   H253      1.0  0.16315  0.63233  0.51695  1.0000
  H   H254      1.0  0.17816  0.66539  0.55498  1.0000
  H   H255      1.0  0.15368  0.69851  0.57103  1.0000
  H   H256      1.0  0.11424  0.69855  0.54743  1.0000
  H   H257      1.0  0.09863  0.66529  0.50944  1.0000
  H   H258      1.0  0.18447  0.73075  0.54868  1.0000
  H   H259      1.0  0.09862  0.62999  0.57346  1.0000
  H   H260      1.0  0.05456  0.70885  0.06984  1.0000
  H   H261      1.0  0.10377  0.66950  0.14063  1.0000
  P   P12       1.0  0.30412  0.58548  0.20510  1.0000
  C   C334      1.0  0.25108  0.60651  0.31216  1.0000
  H   H262      1.0  0.12823  0.70222  0.14477  1.0000
  H   H263      1.0  0.27551  0.60838  0.02683  1.0000
  P   P13       1.0  0.26499  0.74243  0.06780  1.0000
  H   H264      1.0  0.20122  0.73873  0.62397  1.0000
  C   C335      1.0  0.11235  0.70396  0.12784  1.0000
  C   C336      1.0  0.24862  0.58677  0.28728  1.0000
  H   H265      1.0  0.17171  0.56513  0.53795  1.0000
  C   C337      1.0  0.08435  0.72626  0.08880  1.0000
  C   C338      1.0  0.20484  0.71206  0.04569  1.0000
  C   C339      1.0  0.30615  0.54137  0.17169  1.0000
  H   H266      1.0  0.18175  0.71786  0.99091  1.0000
  C   C340      1.0  0.07070  0.70746  0.08604  1.0000
  C   C341      1.0  0.26340  0.74561  0.33577  1.0000
  H   H267      1.0  0.31383  0.67617  0.03882  1.0000
  H   H268      1.0  0.20584  0.74572  0.95222  1.0000
  H   H269      1.0  0.06687  0.67259  0.10315  1.0000
  H   H270      1.0  0.27290  0.71710  0.45233  1.0000
  C   C342      1.0  0.26951  0.62014  0.30397  1.0000
  C   C343      1.0  0.28784  0.72551  0.19413  1.0000
  H   H271      1.0  0.26918  0.72203  0.25642  1.0000
  C   C344      1.0  0.15438  0.56940  0.42873  1.0000
  C   C345      1.0  0.26470  0.58045  0.25485  1.0000
  H   H272      1.0  0.26256  0.56495  0.23625  1.0000
  C   C346      1.0  0.28091  0.60413  0.06082  1.0000
  H   H273      1.0  0.08564  0.58866  0.45647  1.0000
  C   C347      1.0  0.22534  0.71792  0.06459  1.0000
  H   H274      1.0  0.28530  0.69775  0.08182  1.0000
  C   C348      1.0  0.30347  0.59955  0.06912  1.0000
  C   C349      1.0  0.24843  0.73439  0.20228  1.0000
  C   C350      1.0  0.16283  0.57154  0.50872  1.0000
  H   H275      1.0  0.30344  0.73356  0.75716  1.0000
  H   H276      1.0  0.23434  0.57618  0.29338  1.0000
  C   C351      1.0  0.09849  0.68527  0.12556  1.0000
  C   C352      1.0  0.16595  0.56130  0.46640  1.0000
  C   C353      1.0  0.29485  0.59295  0.14884  1.0000
  C   C354      1.0  0.26043  0.68369  0.58540  1.0000
  C   C355      1.0  0.23944  0.69349  0.57799  1.0000
  C   C356      1.0  0.22916  0.69101  0.53597  1.0000
  C   C357      1.0  0.23988  0.67891  0.50114  1.0000
  C   C358      1.0  0.26114  0.66926  0.50801  1.0000
  C   C359      1.0  0.27117  0.67149  0.55072  1.0000
  P   P14       1.0  0.27475  0.65241  0.46430  1.0000
  C   C360      1.0  0.30467  0.65549  0.46858  1.0000
  C   C361      1.0  0.26753  0.62330  0.47161  1.0000
  C   C362      1.0  0.27116  0.60806  0.43584  1.0000
  C   C363      1.0  0.26715  0.58521  0.44213  1.0000
  C   C364      1.0  0.25911  0.57747  0.48392  1.0000
  C   C365      1.0  0.25494  0.59258  0.51935  1.0000
  C   C366      1.0  0.25918  0.61543  0.51334  1.0000
  C   C367      1.0  0.31360  0.67654  0.47891  1.0000
  C   C368      1.0  0.26554  0.66152  0.40897  1.0000
  C   C369      1.0  0.24433  0.65542  0.39399  1.0000
  C   C370      1.0  0.23587  0.66393  0.35333  1.0000
  C   C371      1.0  0.24890  0.67813  0.32652  1.0000
  C   C372      1.0  0.27055  0.68337  0.34001  1.0000
  C   C373      1.0  0.27887  0.67514  0.38116  1.0000
  H   H277      1.0  0.26825  0.68528  0.61824  1.0000
  H   H278      1.0  0.23094  0.70274  0.60494  1.0000
  H   H279      1.0  0.21270  0.69823  0.53054  1.0000
  H   H280      1.0  0.23130  0.67699  0.46926  1.0000
  H   H281      1.0  0.28719  0.66356  0.55740  1.0000
  C   C374      1.0  0.31043  0.59395  0.11294  1.0000
  H   H282      1.0  0.25611  0.55974  0.48889  1.0000
  H   H283      1.0  0.24855  0.58653  0.55158  1.0000
  H   H284      1.0  0.25602  0.62678  0.54137  1.0000
  H   H285      1.0  0.30278  0.69114  0.48278  1.0000
  H   H286      1.0  0.23416  0.64444  0.41449  1.0000
  H   H287      1.0  0.21912  0.65963  0.34302  1.0000
  H   H288      1.0  0.24217  0.68516  0.29551  1.0000
  H   H289      1.0  0.28067  0.69440  0.31936  1.0000
  H   H290      1.0  0.29542  0.68000  0.39152  1.0000
  C   C375      1.0  0.16459  0.73449  0.14433  1.0000
  H   H291      1.0  0.06608  0.61385  0.61274  1.0000
  H   H292      1.0  0.27769  0.61376  0.40349  1.0000
  H   H293      1.0  0.31865  0.62206  0.34273  1.0000
  H   H294      1.0  0.16866  0.73054  0.10933  1.0000
  C   C376      1.0  0.31122  0.52220  0.25774  1.0000
  H   H295      1.0  0.31702  0.72874  0.93912  1.0000
  H   H296      1.0  0.30356  0.72024  0.20902  1.0000
  H   H297      1.0  0.24778  0.60652  0.08991  1.0000
  H   H298      1.0  0.31310  0.62068  0.45305  1.0000
  H   H299      1.0  0.25126  0.74300  0.66875  1.0000
  C   C377      1.0  0.14836  0.59007  0.51321  1.0000
  C   C378      1.0  0.28340  0.59393  0.24689  1.0000
  C   C379      1.0  0.14012  0.58807  0.43298  1.0000
  C   C380      1.0  0.15375  0.74850  0.56354  1.0000
  C   C381      1.0  0.28548  0.61406  0.27116  1.0000
  S   S55       1.0  0.14058  0.74259  0.51113  1.0000
  C   C382      1.0  0.08614  0.73457  0.31239  1.0000
  H   H300      1.0  0.29963  0.62488  0.26590  1.0000
  H   H301      1.0  0.15687  0.56141  0.39592  1.0000
  H   H302      1.0  0.25979  0.59672  0.16713  1.0000
  H   H303      1.0  0.27048  0.57345  0.41469  1.0000
  C   C383      1.0  0.31758  0.70123  0.98664  1.0000
  H   H304      1.0  0.04319  0.58510  0.57465  1.0000
  H   H305      1.0  0.19460  0.69945  0.06190  1.0000
  C   C384      1.0  0.26530  0.60309  0.09635  1.0000
  C   C385      1.0  0.05741  0.59227  0.55707  1.0000
  C   C386      1.0  0.10539  0.72464  0.10937  1.0000
  S   S56       1.0  0.21810  0.74112  0.33835  1.0000
  C   C387      1.0  0.19766  0.72229  0.00555  1.0000
  C   C388      1.0  0.31010  0.54554  0.25300  1.0000
  C   C389      1.0  0.28603  0.72653  0.03677  1.0000
  C   C390      1.0  0.21116  0.73804  0.98382  1.0000
  H   H306      1.0  0.30221  0.73022  0.12800  1.0000
  C   C391      1.0  0.30851  0.69255  0.02678  1.0000
  C   C392      1.0  0.17525  0.74055  0.57361  1.0000
  H   H307      1.0  0.23187  0.74593  0.14209  1.0000
  C   C393      1.0  0.24747  0.73981  0.15605  1.0000
  C   C394      1.0  0.05462  0.74167  0.26149  1.0000
  H   H308      1.0  0.17743  0.54717  0.46254  1.0000
  C   C395      1.0  0.32610  0.56682  0.37316  1.0000
  C   C396      1.0  0.06610  0.74611  0.30191  1.0000
  H   H309      1.0  0.09477  0.73816  0.34361  1.0000
  C   C397      1.0  0.28523  0.74198  0.35132  1.0000
  C   C398      1.0  0.32706  0.60687  0.35366  1.0000
  H   H310      1.0  0.23368  0.73615  0.22383  1.0000
  C   C399      1.0  0.18024  0.72953  0.17806  1.0000
  H   H311      1.0  0.19626  0.72210  0.16901  1.0000
  C   C400      1.0  0.14364  0.74392  0.15600  1.0000
  H   H312      1.0  0.14965  0.74501  0.27113  1.0000
  C   C401      1.0  0.23161  0.74391  0.00266  1.0000
  C   C402      1.0  0.29467  0.73479  0.99561  1.0000
  C   C403      1.0  0.23856  0.73443  0.04389  1.0000
  H   H313      1.0  0.18690  0.72955  0.25012  1.0000
  C   C404      1.0  0.28695  0.73100  0.14804  1.0000
  C   C405      1.0  0.26653  0.73718  0.12817  1.0000
  C   C406      1.0  0.30933  0.50842  0.21969  1.0000
  H   H314      1.0  0.10994  0.73891  0.01833  1.0000
  C   C407      1.0  0.30691  0.51799  0.17666  1.0000
  H   H315      1.0  0.30512  0.50722  0.14732  1.0000
  H   H316      1.0  0.29936  0.74751  0.33119  1.0000
  H   H317      1.0  0.31558  0.60025  0.04155  1.0000
  H   H318      1.0  0.07846  0.74209  0.07488  1.0000
  C   C408      1.0  0.18472  0.74516  0.61623  1.0000
  H   H319      1.0  0.32991  0.69163  0.96743  1.0000
  C   C409      1.0  0.13842  0.74763  0.20204  1.0000
  C   C410      1.0  0.12557  0.74779  0.01773  1.0000
  H   H320      1.0  0.12689  0.74792  0.94451  1.0000
  C   C411      1.0  0.32983  0.60003  0.21632  1.0000
  H   H321      1.0  0.32795  0.59029  0.11887  1.0000
  P   P15       1.0  0.12286  0.74913  0.11283  1.0000
  Fe  Fe29      1.0  0.22567  0.97046  0.88955  1.0000
  S   S57       1.0  0.25051  0.97684  0.94533  1.0000
  S   S58       1.0  0.19732  0.94613  0.90414  1.0000
  Fe  Fe30      1.0  0.27580  0.97384  0.88849  1.0000
  S   S59       1.0  0.31002  0.95705  0.89633  1.0000
  S   S60       1.0  0.25113  0.96610  0.83355  1.0000
  S   S61       1.0  0.30010  0.75844  0.86791  1.0000
  Fe  Fe31      1.0  0.18025  0.79627  0.85868  1.0000
  S   S62       1.0  0.19227  0.80930  0.79174  1.0000
  S   S63       1.0  0.20320  0.79398  0.91840  1.0000
  Fe  Fe32      1.0  0.13218  0.79370  0.82944  1.0000
  S   S64       1.0  0.14015  0.80714  0.75931  1.0000
  S   S65       1.0  0.09684  0.78297  0.84790  1.0000
  Fe  Fe33      1.0  0.16983  0.78362  0.76047  1.0000
  S   S66       1.0  0.18533  0.76282  0.70261  1.0000
  Fe  Fe34      1.0  0.16210  0.83182  0.79548  1.0000
  S   S67       1.0  0.16766  0.86763  0.77174  1.0000
  S   S68       1.0  0.16050  0.76843  0.82823  1.0000
  S   S69       1.0  0.15143  0.82049  0.86493  1.0000
  H   H322      1.0  0.30096  0.87416  0.89285  1.0000
  H   H323      1.0  0.12228  0.79712  0.08704  1.0000
  H   H324      1.0  0.24150  0.82185  0.04823  1.0000
  S   S70       1.0  0.01528  0.79185  0.14372  1.0000
  C   C412      1.0  0.08571  0.78273  0.90400  1.0000
  C   C413      1.0  0.09789  0.79052  0.94094  1.0000
  H   H325      1.0  0.23459  0.78150  0.05944  1.0000
  C   C414      1.0  0.06659  0.78243  0.99246  1.0000
  C   C415      1.0  0.05439  0.77466  0.95555  1.0000
  C   C416      1.0  0.06393  0.77483  0.91154  1.0000
  H   H326      1.0  0.11461  0.79674  0.93562  1.0000
  H   H327      1.0  0.04364  0.90361  0.06033  1.0000
  H   H328      1.0  0.03759  0.76863  0.96084  1.0000
  H   H329      1.0  0.28746  0.77525  0.56913  1.0000
  C   C417      1.0  0.13930  0.94437  0.96025  1.0000
  H   H330      1.0  0.14697  0.96042  0.95334  1.0000
  H   H331      1.0  0.05437  0.76882  0.88313  1.0000
  C   C418      1.0  0.08781  0.76969  0.16061  1.0000
  C   C419      1.0  0.19163  0.77629  0.48855  1.0000
  H   H332      1.0  0.28033  0.83594  0.04459  1.0000
  H   H333      1.0  0.12547  0.76768  0.58873  1.0000
  C   C420      1.0  0.27333  0.76921  0.88100  1.0000
  H   H334      1.0  0.28919  0.75089  0.98237  1.0000
  C   C421      1.0  0.23361  0.77136  0.86450  1.0000
  C   C422      1.0  0.23019  0.78533  0.90217  1.0000
  C   C423      1.0  0.24836  0.79160  0.92859  1.0000
  C   C424      1.0  0.26989  0.78358  0.91801  1.0000
  H   H335      1.0  0.09811  0.79597  0.01327  1.0000
  H   H336      1.0  0.30506  0.75319  0.50621  1.0000
  H   H337      1.0  0.24574  0.80250  0.95754  1.0000
  H   H338      1.0  0.28365  0.78808  0.93932  1.0000
  H   H339      1.0  0.06049  0.78508  0.19763  1.0000
  H   H340      1.0  0.07972  0.83947  0.94043  1.0000
  H   H341      1.0  0.25771  0.75185  0.82585  1.0000
  H   H342      1.0  0.30660  0.78582  0.78018  1.0000
  H   H343      1.0  0.12904  0.88575  0.88917  1.0000
  C   C425      1.0  0.30493  0.77041  0.57086  1.0000
  C   C426      1.0  0.19103  0.92362  0.86715  1.0000
  C   C427      1.0  0.17995  0.90478  0.88464  1.0000
  C   C428      1.0  0.17403  0.88689  0.85609  1.0000
  C   C429      1.0  0.17796  0.88824  0.80933  1.0000
  C   C430      1.0  0.18910  0.90703  0.79175  1.0000
  C   C431      1.0  0.19605  0.92442  0.82065  1.0000
  H   H344      1.0  0.17627  0.90383  0.92057  1.0000
  H   H345      1.0  0.16597  0.87229  0.87007  1.0000
  H   H346      1.0  0.19229  0.90820  0.75562  1.0000
  H   H347      1.0  0.20469  0.93875  0.80678  1.0000
  C   C432      1.0  0.31249  0.88792  0.89409  1.0000
  C   C433      1.0  0.07780  0.80908  0.15576  1.0000
  C   C434      1.0  0.09531  0.81236  0.12479  1.0000
  Fe  Fe35      1.0  0.01297  0.75900  0.18059  1.0000
  H   H348      1.0  0.06683  0.82292  0.16529  1.0000
  H   H349      1.0  0.09787  0.82881  0.11039  1.0000
  C   C435      1.0  0.22339  0.85478  0.88573  1.0000
  C   C436      1.0  0.22317  0.87396  0.91297  1.0000
  C   C437      1.0  0.23492  0.89294  0.89921  1.0000
  C   C438      1.0  0.24702  0.89273  0.85836  1.0000
  C   C439      1.0  0.24775  0.87336  0.83119  1.0000
  C   C440      1.0  0.23562  0.85444  0.84506  1.0000
  P   P16       1.0  0.26459  0.87210  0.77981  1.0000
  C   C441      1.0  0.28520  0.89403  0.77907  1.0000
  C   C442      1.0  0.27853  0.84506  0.77907  1.0000
  C   C443      1.0  0.28609  0.83557  0.81982  1.0000
  C   C444      1.0  0.25547  0.81025  0.05184  1.0000
  C   C445      1.0  0.29617  0.81435  0.81993  1.0000
  H   H350      1.0  0.07337  0.82638  0.86298  1.0000
  C   C446      1.0  0.28181  0.83325  0.73829  1.0000
  C   C447      1.0  0.30800  0.88895  0.78439  1.0000
  H   H351      1.0  0.16208  0.76925  0.94029  1.0000
  C   C448      1.0  0.24654  0.76054  0.67202  1.0000
  C   C449      1.0  0.29427  0.93357  0.77205  1.0000
  C   C450      1.0  0.27849  0.91646  0.77218  1.0000
  C   C451      1.0  0.24746  0.87525  0.72998  1.0000
  C   C452      1.0  0.22531  0.86781  0.72991  1.0000
  C   C453      1.0  0.21220  0.87054  0.69120  1.0000
  C   C454      1.0  0.22100  0.88082  0.65248  1.0000
  C   C455      1.0  0.24311  0.88801  0.65201  1.0000
  C   C456      1.0  0.25637  0.88506  0.69042  1.0000
  H   H352      1.0  0.21402  0.84016  0.89601  1.0000
  H   H353      1.0  0.21349  0.87433  0.94422  1.0000
  H   H354      1.0  0.23430  0.90806  0.91976  1.0000
  H   H355      1.0  0.25582  0.90772  0.84866  1.0000
  H   H356      1.0  0.23574  0.83928  0.82472  1.0000
  H   H357      1.0  0.28410  0.84447  0.85169  1.0000
  H   H358      1.0  0.27925  0.80437  0.47821  1.0000
  H   H359      1.0  0.27649  0.84046  0.70656  1.0000
  H   H360      1.0  0.31373  0.87196  0.79079  1.0000
  H   H361      1.0  0.18040  0.78165  0.01062  1.0000
  H   H362      1.0  0.14229  0.77589  0.66362  1.0000
  H   H363      1.0  0.28895  0.95095  0.76854  1.0000
  H   H364      1.0  0.26097  0.92080  0.76810  1.0000
  H   H365      1.0  0.21788  0.86026  0.75979  1.0000
  H   H366      1.0  0.19498  0.86510  0.69171  1.0000
  H   H367      1.0  0.21056  0.88352  0.62314  1.0000
  H   H368      1.0  0.24986  0.89613  0.62206  1.0000
  H   H369      1.0  0.27347  0.89076  0.68941  1.0000
  C   C457      1.0  0.24681  0.77082  0.71466  1.0000
  C   C458      1.0  0.10540  0.77277  0.12946  1.0000
  H   H370      1.0  0.09491  0.84202  0.79848  1.0000
  C   C459      1.0  0.18334  0.82003  0.63777  1.0000
  C   C460      1.0  0.19790  0.82708  0.60307  1.0000
  C   C461      1.0  0.31297  0.81467  0.49132  1.0000
  P   P17       1.0  0.22288  0.81094  0.58947  1.0000
  C   C462      1.0  0.23208  0.79504  0.63847  1.0000
  C   C463      1.0  0.21741  0.79279  0.54186  1.0000
  C   C464      1.0  0.19546  0.78864  0.52807  1.0000
  H   H371      1.0  0.21957  0.76641  0.84407  1.0000
  H   H372      1.0  0.23946  0.80084  0.75278  1.0000
  C   C465      1.0  0.30269  0.78913  0.43140  1.0000
  C   C466      1.0  0.23536  0.78379  0.51645  1.0000
  C   C467      1.0  0.23920  0.77257  0.63403  1.0000
  H   H373      1.0  0.29012  0.77950  0.41403  1.0000
  C   C468      1.0  0.32660  0.75141  0.71400  1.0000
  H   H374      1.0  0.31229  0.80949  0.05331  1.0000
  C   C469      1.0  0.23228  0.80516  0.68161  1.0000
  C   C470      1.0  0.24464  0.83012  0.57224  1.0000
  C   C471      1.0  0.26083  0.83721  0.60309  1.0000
  C   C472      1.0  0.27724  0.85242  0.58967  1.0000
  C   C473      1.0  0.27760  0.86074  0.54531  1.0000
  C   C474      1.0  0.26174  0.85359  0.51415  1.0000
  C   C475      1.0  0.24535  0.83833  0.52748  1.0000
  C   C476      1.0  0.29187  0.81190  0.73856  1.0000
  H   H375      1.0  0.29407  0.80264  0.70725  1.0000
  H   H376      1.0  0.20653  0.75848  0.43203  1.0000
  H   H377      1.0  0.18697  0.80511  0.65743  1.0000
  H   H378      1.0  0.07798  0.90719  0.01416  1.0000
  H   H379      1.0  0.18121  0.79481  0.54758  1.0000
  C   C477      1.0  0.16370  0.83215  0.64727  1.0000
  C   C478      1.0  0.23147  0.77149  0.47699  1.0000
  H   H380      1.0  0.16766  0.87242  0.56603  1.0000
  H   H381      1.0  0.25236  0.78649  0.52697  1.0000
  H   H382      1.0  0.23847  0.76401  0.60173  1.0000
  C   C479      1.0  0.19189  0.84583  0.57668  1.0000
  H   H383      1.0  0.22637  0.82228  0.68618  1.0000
  H   H384      1.0  0.16334  0.77334  0.08576  1.0000
  H   H385      1.0  0.31413  0.75456  0.68850  1.0000
  H   H386      1.0  0.26069  0.83130  0.63765  1.0000
  H   H387      1.0  0.28943  0.85805  0.61400  1.0000
  H   H388      1.0  0.29009  0.87281  0.53508  1.0000
  H   H389      1.0  0.26196  0.86005  0.47971  1.0000
  H   H390      1.0  0.23305  0.83316  0.50294  1.0000
  C   C480      1.0  0.17288  0.75783  0.64912  1.0000
  C   C481      1.0  0.16511  0.77215  0.01294  1.0000
  H   H391      1.0  0.20224  0.85117  0.54856  1.0000
  H   H392      1.0  0.15265  0.82670  0.67426  1.0000
  C   C482      1.0  0.15552  0.76720  0.05528  1.0000
  C   C483      1.0  0.26971  0.77212  0.06110  1.0000
  H   H393      1.0  0.12257  0.87197  0.81187  1.0000
  C   C484      1.0  0.27732  0.81821  0.04980  1.0000
  S   S71       1.0  0.05542  0.78333  0.04847  1.0000
  C   C485      1.0  0.11882  0.93903  0.94086  1.0000
  H   H394      1.0  0.24536  0.76490  0.45705  1.0000
  C   C486      1.0  0.07415  0.78776  0.17385  1.0000
  H   H395      1.0  0.03094  0.86605  0.08566  1.0000
  H   H396      1.0  0.16645  0.93279  0.00173  1.0000
  H   H397      1.0  0.30170  0.80714  0.85168  1.0000
  H   H398      1.0  0.30968  0.78608  0.63556  1.0000
  H   H399      1.0  0.28642  0.91348  0.90130  1.0000
  H   H400      1.0  0.05300  0.83199  0.06492  1.0000
  C   C487      1.0  0.23972  0.79311  0.71943  1.0000
  H   H401      1.0  0.30583  0.76907  0.06400  1.0000
  C   C488      1.0  0.08841  0.79021  0.98491  1.0000
  C   C489      1.0  0.29893  0.80240  0.77947  1.0000
  C   C490      1.0  0.31686  0.92841  0.77821  1.0000
  H   H402      1.0  0.14295  0.86049  0.62953  1.0000
  C   C491      1.0  0.14208  0.76142  0.59619  1.0000
  S   S72       1.0  0.02924  0.75641  0.25027  1.0000
  H   H403      1.0  0.17250  0.96768  0.80212  1.0000
  H   H404      1.0  0.15033  0.89559  0.01554  1.0000
  C   C492      1.0  0.32375  0.90609  0.78377  1.0000
  H   H405      1.0  0.11044  0.95107  0.91912  1.0000
  H   H406      1.0  0.09407  0.91366  0.93164  1.0000
  C   C493      1.0  0.10910  0.79430  0.11164  1.0000
  C   C494      1.0  0.29660  0.80297  0.46787  1.0000
  C   C495      1.0  0.29534  0.80329  0.05452  1.0000
  C   C496      1.0  0.20960  0.76786  0.46286  1.0000
  C   C497      1.0  0.15820  0.85116  0.62185  1.0000
  C   C498      1.0  0.31887  0.92841  0.89639  1.0000
  C   C499      1.0  0.29160  0.78035  0.06038  1.0000
  C   C500      1.0  0.30416  0.91025  0.89809  1.0000
  C   C501      1.0  0.25164  0.78731  0.05782  1.0000
  C   C502      1.0  0.14980  0.83863  0.06791  1.0000
  C   C503      1.0  0.16674  0.82986  0.03983  1.0000
  C   C504      1.0  0.16651  0.83424  0.99323  1.0000
  C   C505      1.0  0.14927  0.84722  0.97460  1.0000
  C   C506      1.0  0.13186  0.85554  0.00226  1.0000
  C   C507      1.0  0.13254  0.85164  0.04930  1.0000
  P   P18       1.0  0.11044  0.87347  0.97836  1.0000
  C   C508      1.0  0.10473  0.86398  0.92120  1.0000
  C   C509      1.0  0.08531  0.87145  0.01282  1.0000
  C   C510      1.0  0.07812  0.85035  0.02806  1.0000
  C   C511      1.0  0.05859  0.84844  0.05410  1.0000
  C   C512      1.0  0.04616  0.86763  0.06567  1.0000
  C   C513      1.0  0.05330  0.88875  0.05125  1.0000
  C   C514      1.0  0.07280  0.89069  0.02491  1.0000
  C   C515      1.0  0.11662  0.87299  0.88416  1.0000
  C   C516      1.0  0.11295  0.86526  0.84006  1.0000
  C   C517      1.0  0.09736  0.84849  0.83245  1.0000
  C   C518      1.0  0.08525  0.83963  0.86888  1.0000
  C   C519      1.0  0.08898  0.84718  0.91308  1.0000
  C   C520      1.0  0.12075  0.90186  0.97502  1.0000
  C   C521      1.0  0.14109  0.90758  0.99522  1.0000
  C   C522      1.0  0.15030  0.92874  0.98770  1.0000
  C   C523      1.0  0.17219  0.85791  0.58630  1.0000
  H   H407      1.0  0.17464  0.77316  0.47792  1.0000
  C   C524      1.0  0.10956  0.91787  0.94820  1.0000
  H   H408      1.0  0.15013  0.83551  0.10416  1.0000
  H   H409      1.0  0.18018  0.81988  0.05417  1.0000
  H   H410      1.0  0.17976  0.82770  0.97140  1.0000
  H   H411      1.0  0.14971  0.85102  0.93874  1.0000
  H   H412      1.0  0.11992  0.85886  0.07167  1.0000
  H   H413      1.0  0.08749  0.83525  0.01946  1.0000
  H   H414      1.0  0.14978  0.97905  0.86891  1.0000
  H   H415      1.0  0.00100  0.78809  0.29785  1.0000
  Fe  Fe36      1.0  0.02280  0.77123  0.08119  1.0000
  C   C525      1.0  0.31759  0.77644  0.60856  1.0000
  H   H416      1.0  0.30835  0.82481  0.52048  1.0000
  C   C526      1.0  0.15158  0.76612  0.63871  1.0000
  C   C527      1.0  0.15489  0.76506  0.97312  1.0000
  C   C528      1.0  0.25516  0.76311  0.85426  1.0000
  H   H417      1.0  0.25185  0.76133  0.74434  1.0000
  C   C529      1.0  0.17133  0.98523  0.81164  1.0000
  H   H418      1.0  0.99917  0.82185  0.24894  1.0000
  H   H419      1.0  0.08453  0.75327  0.17451  1.0000
  H   H420      1.0  0.24203  0.75582  0.98493  1.0000
  C   C530      1.0  0.31477  0.75798  0.53554  1.0000
  H   H421      1.0  0.05947  0.75858  0.32529  1.0000
  C   C531      1.0  0.13581  0.75464  0.05809  1.0000
  C   C532      1.0  0.32507  0.78743  0.41750  1.0000
  Fe  Fe37      1.0  0.32849  0.77804  0.89722  1.0000
  S   S73       1.0  0.32567  0.80701  0.94566  1.0000
  C   C533      1.0  0.15849  0.99170  0.84941  1.0000
  H   H422      1.0  0.12211  0.75386  0.21253  1.0000
  H   H423      1.0  0.32892  0.94179  0.78020  1.0000
  H   H424      1.0  0.26069  0.75422  0.30391  1.0000
  C   C534      1.0  0.13515  0.75288  0.97553  1.0000
  H   H425      1.0  0.19353  0.99628  0.75823  1.0000
  H   H426      1.0  0.32952  0.77606  0.39001  1.0000
  C   C535      1.0  0.63942  0.24134  0.71100  1.0000
  H   H427      1.0  0.38748  0.22131  0.46160  1.0000
  C   C536      1.0  0.63696  0.15012  0.68571  1.0000
  Fe  Fe38      1.0  0.63649  0.21601  0.98016  1.0000
  C   C537      1.0  0.61937  0.24472  0.13383  1.0000
  S   S74       1.0  0.62264  0.22245  0.05184  1.0000
  Fe  Fe39      1.0  0.62452  0.20281  0.88229  1.0000
  S   S75       1.0  0.60021  0.19328  0.82611  1.0000
  H   H428      1.0  0.62634  0.15853  0.75405  1.0000
  S   S76       1.0  0.62690  0.18309  0.94768  1.0000
  S   S77       1.0  0.63177  0.23606  0.91540  1.0000
  H   H429      1.0  0.64475  0.18780  0.60065  1.0000
  C   C538      1.0  0.38442  0.13535  0.75564  1.0000
  Fe  Fe40      1.0  0.46400  0.22290  0.63237  1.0000
  S   S78       1.0  0.44172  0.19248  0.64263  1.0000
  C   C539      1.0  0.41597  0.18579  0.34509  1.0000
  C   C540      1.0  0.48188  0.19352  0.49545  1.0000
  H   H430      1.0  0.64671  0.14710  0.61535  1.0000
  C   C541      1.0  0.55751  0.24542  0.79703  1.0000
  C   C542      1.0  0.41319  0.19435  0.62714  1.0000
  C   C543      1.0  0.39961  0.17524  0.62946  1.0000
  C   C544      1.0  0.37702  0.17634  0.61604  1.0000
  C   C545      1.0  0.36784  0.19663  0.60050  1.0000
  C   C546      1.0  0.38128  0.21576  0.59978  1.0000
  C   C547      1.0  0.40384  0.21463  0.61244  1.0000
  H   H431      1.0  0.40665  0.15948  0.64115  1.0000
  H   H432      1.0  0.36687  0.16146  0.61700  1.0000
  H   H433      1.0  0.37410  0.23168  0.59009  1.0000
  H   H434      1.0  0.41398  0.22948  0.61087  1.0000
  C   C548      1.0  0.57970  0.21092  0.80048  1.0000
  C   C549      1.0  0.56940  0.20383  0.76026  1.0000
  C   C550      1.0  0.55307  0.21735  0.73874  1.0000
  H   H435      1.0  0.37777  0.22592  0.31621  1.0000
  C   C551      1.0  0.37034  0.12571  0.72366  1.0000
  C   C552      1.0  0.54697  0.23824  0.75715  1.0000
  H   H436      1.0  0.57419  0.18784  0.74555  1.0000
  H   H437      1.0  0.54532  0.21169  0.70783  1.0000
  H   H438      1.0  0.57801  0.14132  0.67993  1.0000
  C   C553      1.0  0.59753  0.11557  0.88421  1.0000
  H   H439      1.0  0.58123  0.23744  0.84985  1.0000
  H   H440      1.0  0.64355  0.17960  0.08709  1.0000
  H   H441      1.0  0.47809  0.16844  0.54766  1.0000
  H   H442      1.0  0.63808  0.13225  0.69216  1.0000
  H   H443      1.0  0.58171  0.16067  0.94890  1.0000
  C   C554      1.0  0.35291  0.18757  0.42978  1.0000
  H   H444      1.0  0.54160  0.15523  0.71042  1.0000
  C   C555      1.0  0.61194  0.03932  0.82576  1.0000
  C   C556      1.0  0.46966  0.18050  0.52602  1.0000
  Fe  Fe41      1.0  0.50260  0.24951  0.67359  1.0000
  C   C557      1.0  0.34445  0.20859  0.41675  1.0000
  H   H445      1.0  0.37056  0.18370  0.42588  1.0000
  C   C558      1.0  0.60551  0.23241  0.63837  1.0000
  C   C559      1.0  0.62321  0.24283  0.74576  1.0000
  C   C560      1.0  0.63487  0.19661  0.66954  1.0000
  H   H446      1.0  0.35579  0.22074  0.40266  1.0000
  P   P19       1.0  0.63346  0.22651  0.65869  1.0000
  C   C561      1.0  0.55284  0.14571  0.73199  1.0000
  C   C562      1.0  0.54687  0.14140  0.77710  1.0000
  H   H447      1.0  0.39851  0.12581  0.76858  1.0000
  C   C563      1.0  0.47100  0.20946  0.46837  1.0000
  H   H448      1.0  0.43704  0.17311  0.55291  1.0000
  H   H449      1.0  0.54985  0.23433  0.42949  1.0000
  H   H450      1.0  0.41775  0.20182  0.50756  1.0000
  H   H451      1.0  0.64986  0.12019  0.92247  1.0000
  C   C564      1.0  0.63056  0.16483  0.72056  1.0000
  C   C565      1.0  0.43562  0.19965  0.50332  1.0000
  H   H452      1.0  0.44064  0.18885  0.39691  1.0000
  C   C566      1.0  0.64195  0.15852  0.64253  1.0000
  S   S79       1.0  0.50162  0.21954  0.62740  1.0000
  C   C567      1.0  0.56152  0.12952  0.80532  1.0000
  H   H453      1.0  0.53097  0.14753  0.79035  1.0000
  C   C568      1.0  0.64155  0.10175  0.77526  1.0000
  S   S80       1.0  0.52062  0.23854  0.50699  1.0000
  H   H454      1.0  0.43416  0.21563  0.72499  1.0000
  H   H455      1.0  0.62301  0.15338  0.03839  1.0000
  C   C569      1.0  0.59115  0.13768  0.89546  1.0000
  C   C570      1.0  0.42691  0.19718  0.37977  1.0000
  C   C571      1.0  0.58980  0.12781  0.97522  1.0000
  C   C572      1.0  0.58810  0.12612  0.74311  1.0000
  H   H456      1.0  0.49990  0.19158  0.49317  1.0000
  C   C573      1.0  0.40231  0.22933  0.36883  1.0000
  H   H457      1.0  0.58937  0.15038  0.86933  1.0000
  C   C574      1.0  0.57670  0.06939  0.80866  1.0000
  H   H458      1.0  0.56706  0.21136  0.56509  1.0000
  H   H459      1.0  0.59922  0.09372  0.99131  1.0000
  C   C575      1.0  0.44781  0.21304  0.47289  1.0000
  H   H460      1.0  0.38976  0.18723  0.29551  1.0000
  C   C576      1.0  0.57428  0.22213  0.59060  1.0000
  H   H461      1.0  0.63172  0.06826  0.83797  1.0000
  C   C577      1.0  0.62944  0.18792  0.71253  1.0000
  C   C578      1.0  0.58253  0.12227  0.78883  1.0000
  C   C579      1.0  0.64091  0.18165  0.63442  1.0000
  H   H462      1.0  0.39685  0.24616  0.37785  1.0000
  H   H463      1.0  0.48091  0.21905  0.44455  1.0000
  C   C580      1.0  0.64102  0.13279  0.82847  1.0000
  C   C581      1.0  0.56144  0.23962  0.60911  1.0000
  H   H464      1.0  0.42127  0.16890  0.33591  1.0000
  C   C582      1.0  0.41196  0.24724  0.47212  1.0000
  H   H465      1.0  0.58671  0.13255  0.01027  1.0000
  H   H466      1.0  0.62430  0.19872  0.74023  1.0000
  C   C583      1.0  0.65414  0.23306  0.61562  1.0000
  C   C584      1.0  0.63010  0.11466  0.80827  1.0000
  C   C585      1.0  0.65186  0.16450  0.07452  1.0000
  H   H467      1.0  0.55703  0.03991  0.79703  1.0000
  C   C586      1.0  0.60057  0.09981  0.91920  1.0000
  H   H468      1.0  0.60577  0.20469  0.59064  1.0000
  C   C587      1.0  0.33861  0.17148  0.44807  1.0000
  C   C588      1.0  0.44650  0.18327  0.52924  1.0000
  H   H469      1.0  0.60380  0.12005  0.72922  1.0000
  H   H470      1.0  0.62565  0.02776  0.83277  1.0000
  H   H471      1.0  0.63344  0.08795  0.75847  1.0000
  H   H472      1.0  0.34144  0.13063  0.68161  1.0000
  C   C589      1.0  0.61534  0.06243  0.82867  1.0000
  C   C590      1.0  0.59621  0.21848  0.60516  1.0000
  C   C591      1.0  0.40077  0.20773  0.74704  1.0000
  H   H473      1.0  0.33188  0.16309  0.91770  1.0000
  C   C592      1.0  0.33202  0.17824  0.89732  1.0000
  H   H474      1.0  0.55643  0.12621  0.84003  1.0000
  C   C593      1.0  0.59677  0.10595  0.96451  1.0000
  H   H475      1.0  0.63262  0.14333  0.85344  1.0000
  C   C594      1.0  0.34874  0.22514  0.69779  1.0000
  H   H476      1.0  0.39912  0.19467  0.72178  1.0000
  C   C595      1.0  0.34833  0.16007  0.72133  1.0000
  C   C596      1.0  0.38566  0.23067  0.80819  1.0000
  C   C597      1.0  0.38318  0.21286  0.77739  1.0000
  H   H477      1.0  0.34509  0.15520  0.45842  1.0000
  P   P20       1.0  0.35698  0.19817  0.77334  1.0000
  C   C598      1.0  0.58694  0.14363  0.94068  1.0000
  C   C599      1.0  0.36226  0.16984  0.75366  1.0000
  C   C600      1.0  0.38038  0.15733  0.77070  1.0000
  C   C601      1.0  0.64021  0.14968  0.04705  1.0000
  C   C602      1.0  0.35233  0.13808  0.70653  1.0000
  C   C603      1.0  0.59096  0.03120  0.81415  1.0000
  P   P21       1.0  0.43346  0.23353  0.43805  1.0000
  Fe  Fe42      1.0  0.49926  0.24486  0.57057  1.0000
  C   C604      1.0  0.39096  0.23722  0.47751  1.0000
  H   H478      1.0  0.64863  0.07962  0.90279  1.0000
  C   C605      1.0  0.57334  0.04622  0.80569  1.0000
  C   C606      1.0  0.42004  0.21899  0.39212  1.0000
  C   C607      1.0  0.34297  0.19771  0.82812  1.0000
  H   H479      1.0  0.39144  0.16459  0.79544  1.0000
  C   C608      1.0  0.39823  0.19613  0.32230  1.0000
  H   H480      1.0  0.60593  0.08278  0.91179  1.0000
  C   C609      1.0  0.42305  0.23727  0.77933  1.0000
  H   H481      1.0  0.56276  0.08072  0.80253  1.0000
  C   C610      1.0  0.33202  0.21716  0.84435  1.0000
  H   H482      1.0  0.37337  0.10868  0.71198  1.0000
  C   C611      1.0  0.59783  0.07770  0.81958  1.0000
  C   C612      1.0  0.57340  0.13795  0.71492  1.0000
  P   P22       1.0  0.60195  0.10760  0.82547  1.0000
  H   H483      1.0  0.36666  0.22583  0.69294  1.0000
  C   C613      1.0  0.33933  0.21277  0.73346  1.0000
  H   H484      1.0  0.33448  0.16937  0.70710  1.0000
  H   H485      1.0  0.37234  0.23551  0.83124  1.0000
  C   C614      1.0  0.42066  0.21975  0.74840  1.0000
  H   H486      1.0  0.65789  0.20947  0.14889  1.0000
  C   C615      1.0  0.57363  0.23181  0.81876  1.0000
  H   H487      1.0  0.34216  0.24573  0.63914  1.0000
  H   H488      1.0  0.60825  0.23134  0.14358  1.0000
  Fe  Fe43      1.0  0.66330  0.17856  0.93108  1.0000
  C   C616      1.0  0.65094  0.13046  0.02991  1.0000
  C   C617      1.0  0.39148  0.21793  0.33402  1.0000
  C   C618      1.0  0.37454  0.24714  0.50527  1.0000
  S   S81       1.0  0.34018  0.19898  0.57957  1.0000
  C   C619      1.0  0.40554  0.24277  0.80916  1.0000
  S   S82       1.0  0.46152  0.24550  0.57156  1.0000
  H   H489      1.0  0.58836  0.01326  0.81196  1.0000
  H   H490      1.0  0.60681  0.23574  0.74130  1.0000
  H   H491      1.0  0.64209  0.11923  0.00771  1.0000
  C   C620      1.0  0.34271  0.17815  0.85480  1.0000
  H   H492      1.0  0.61344  0.24384  0.44745  1.0000
  H   H493      1.0  0.54438  0.24231  0.59813  1.0000
  H   H494      1.0  0.35870  0.23880  0.51058  1.0000
  H   H495      1.0  0.35066  0.16279  0.84302  1.0000
  C   C621      1.0  0.33496  0.23655  0.66728  1.0000
  C   C622      1.0  0.64880  0.24703  0.57879  1.0000
  C   C623      1.0  0.62879  0.24482  0.08978  1.0000
  C   C624      1.0  0.66334  0.13714  0.81755  1.0000
  H   H496      1.0  0.33193  0.23240  0.82428  1.0000
  H   H497      1.0  0.58473  0.24529  0.50867  1.0000
  S   S83       1.0  0.66047  0.19578  0.86387  1.0000
  H   H498      1.0  0.43842  0.24673  0.77974  1.0000
  C   C625      1.0  0.66390  0.10610  0.76469  1.0000
  Fe  Fe44      1.0  0.63936  0.30741  0.26771  1.0000
  S   S84       1.0  0.63365  0.28282  0.32533  1.0000
  C   C626      1.0  0.64310  0.26228  0.07767  1.0000
  Fe  Fe45      1.0  0.64279  0.34817  0.33202  1.0000
  S   S85       1.0  0.63761  0.32627  0.39247  1.0000
  H   H499      1.0  0.65068  0.38945  0.53613  1.0000
  C   C627      1.0  0.55019  0.25168  0.44024  1.0000
  Fe  Fe46      1.0  0.61028  0.30949  0.35457  1.0000
  S   S86       1.0  0.57778  0.31043  0.39647  1.0000
  H   H500      1.0  0.59639  0.33674  0.46994  1.0000
  S   S87       1.0  0.61415  0.33286  0.29458  1.0000
  C   C628      1.0  0.65154  0.30893  0.68553  1.0000
  Fe  Fe47      1.0  0.46454  0.27348  0.62220  1.0000
  H   H501      1.0  0.65067  0.43165  0.37188  1.0000
  S   S88       1.0  0.44283  0.30504  0.61749  1.0000
  C   C629      1.0  0.34316  0.26118  0.35187  1.0000
  H   H502      1.0  0.44004  0.25340  0.34660  1.0000
  S   S89       1.0  0.50211  0.27468  0.61635  1.0000
  C   C630      1.0  0.60788  0.34837  0.48530  1.0000
  S   S90       1.0  0.33910  0.29330  0.65862  1.0000
  C   C631      1.0  0.41440  0.30223  0.63330  1.0000
  C   C632      1.0  0.40558  0.28109  0.64220  1.0000
  C   C633      1.0  0.38261  0.27877  0.65089  1.0000
  C   C634      1.0  0.36814  0.29753  0.65095  1.0000
  C   C635      1.0  0.37706  0.31883  0.64373  1.0000
  C   C636      1.0  0.40011  0.32116  0.63474  1.0000
  H   H503      1.0  0.41644  0.26645  0.64170  1.0000
  H   H504      1.0  0.37613  0.26225  0.65722  1.0000
  H   H505      1.0  0.36613  0.33340  0.64461  1.0000
  H   H506      1.0  0.40688  0.33766  0.62893  1.0000
  C   C637      1.0  0.56347  0.28974  0.42857  1.0000
  C   C638      1.0  0.56333  0.26713  0.41574  1.0000
  H   H507      1.0  0.63638  0.30878  0.48644  1.0000
  H   H508      1.0  0.36684  0.27394  0.55227  1.0000
  C   C639      1.0  0.53790  0.28106  0.49165  1.0000
  C   C640      1.0  0.55052  0.29660  0.46635  1.0000
  H   H509      1.0  0.51472  0.32870  0.61778  1.0000
  C   C641      1.0  0.35224  0.32675  0.53111  1.0000
  H   H510      1.0  0.44506  0.31685  0.51577  1.0000
  H   H511      1.0  0.63911  0.27578  0.43636  1.0000
  H   H512      1.0  0.63658  0.35813  0.58268  1.0000
  C   C642      1.0  0.62432  0.26169  0.16557  1.0000
  C   C643      1.0  0.63865  0.27913  0.15346  1.0000
  H   H513      1.0  0.36153  0.44735  0.41417  1.0000
  C   C644      1.0  0.40101  0.34319  0.43508  1.0000
  C   C645      1.0  0.46920  0.26321  0.44335  1.0000
  C   C646      1.0  0.65724  0.29954  0.64343  1.0000
  C   C647      1.0  0.39997  0.27686  0.52401  1.0000
  C   C648      1.0  0.64368  0.30351  0.60578  1.0000
  C   C649      1.0  0.39960  0.34747  0.48193  1.0000
  C   C650      1.0  0.56940  0.31229  0.61843  1.0000
  C   C651      1.0  0.61235  0.25824  0.46989  1.0000
  H   H514      1.0  0.54095  0.30470  0.66123  1.0000
  C   C652      1.0  0.43463  0.32082  0.44621  1.0000
  H   H515      1.0  0.42163  0.39511  0.62871  1.0000
  H   H516      1.0  0.62817  0.33003  0.72238  1.0000
  C   C653      1.0  0.41532  0.33739  0.51087  1.0000
  H   H517      1.0  0.56025  0.26673  0.65706  1.0000
  H   H518      1.0  0.60434  0.33747  0.65601  1.0000
  C   C654      1.0  0.62665  0.27630  0.46340  1.0000
  H   H519      1.0  0.33566  0.36338  0.44878  1.0000
  H   H520      1.0  0.49668  0.29552  0.36621  1.0000
  H   H521      1.0  0.63872  0.38804  0.22496  1.0000
  H   H522      1.0  0.58102  0.27849  0.55769  1.0000
  H   H523      1.0  0.63344  0.42474  0.26315  1.0000
  C   C655      1.0  0.36893  0.28903  0.37925  1.0000
  C   C656      1.0  0.35930  0.28760  0.42253  1.0000
  H   H524      1.0  0.55293  0.26153  0.81158  1.0000
  H   H525      1.0  0.61568  0.25361  0.81411  1.0000
  H   H526      1.0  0.34043  0.39728  0.50957  1.0000
  C   C657      1.0  0.59623  0.25903  0.50450  1.0000
  C   C658      1.0  0.62413  0.31665  0.61008  1.0000
  C   C659      1.0  0.59411  0.27803  0.53216  1.0000
  C   C660      1.0  0.38724  0.39796  0.44246  1.0000
  C   C661      1.0  0.41861  0.33010  0.41727  1.0000
  H   H527      1.0  0.61702  0.26131  0.19931  1.0000
  H   H528      1.0  0.38272  0.30029  0.37321  1.0000
  H   H529      1.0  0.36571  0.29766  0.45007  1.0000
  C   C662      1.0  0.60836  0.29631  0.52576  1.0000
  H   H530      1.0  0.33732  0.25082  0.32428  1.0000
  H   H531      1.0  0.47043  0.25835  0.47866  1.0000
  C   C663      1.0  0.53740  0.25854  0.47828  1.0000
  C   C664      1.0  0.61893  0.32665  0.65215  1.0000
  H   H532      1.0  0.46761  0.27989  0.31614  1.0000
  C   C665      1.0  0.53981  0.33952  0.56973  1.0000
  H   H533      1.0  0.49762  0.28487  0.44739  1.0000
  S   S91       1.0  0.52682  0.25633  0.73146  1.0000
  C   C666      1.0  0.61525  0.34507  0.52997  1.0000
  C   C667      1.0  0.62489  0.29513  0.49160  1.0000
  H   H534      1.0  0.41993  0.32723  0.38101  1.0000
  C   C668      1.0  0.43291  0.32437  0.49300  1.0000
  H   H535      1.0  0.61025  0.36856  0.42467  1.0000
  H   H536      1.0  0.41404  0.33923  0.54734  1.0000
  C   C669      1.0  0.48478  0.27823  0.42569  1.0000
  H   H537      1.0  0.43267  0.27461  0.49452  1.0000
  C   C670      1.0  0.57733  0.32436  0.58068  1.0000
  P   P23       1.0  0.37650  0.36395  0.50463  1.0000
  H   H538      1.0  0.39020  0.39583  0.68433  1.0000
  H   H539      1.0  0.40269  0.38892  0.43565  1.0000
  H   H540      1.0  0.59949  0.26213  0.67976  1.0000
  C   C671      1.0  0.46784  0.27541  0.35181  1.0000
  S   S92       1.0  0.46510  0.25099  0.68337  1.0000
  C   C672      1.0  0.35280  0.34562  0.50263  1.0000
  H   H541      1.0  0.52824  0.34979  0.55041  1.0000
  C   C673      1.0  0.63128  0.38103  0.47764  1.0000
  C   C674      1.0  0.38349  0.41851  0.42056  1.0000
  C   C675      1.0  0.53218  0.32763  0.60761  1.0000
  C   C676      1.0  0.61572  0.36638  0.45947  1.0000
  P   P24       1.0  0.60608  0.32081  0.56182  1.0000
  H   H542      1.0  0.52816  0.28663  0.52077  1.0000
  H   H543      1.0  0.39571  0.42484  0.39653  1.0000
  S   S93       1.0  0.64389  0.38550  0.34884  1.0000
  H   H544      1.0  0.34650  0.36910  0.58394  1.0000
  C   C677      1.0  0.45219  0.26034  0.36936  1.0000
  C   C678      1.0  0.63056  0.36019  0.54841  1.0000
  H   H545      1.0  0.40371  0.29176  0.54339  1.0000
  C   C679      1.0  0.37146  0.38972  0.47374  1.0000
  C   C680      1.0  0.34884  0.42348  0.46256  1.0000
  C   C681      1.0  0.40531  0.38929  0.61881  1.0000
  C   C682      1.0  0.36311  0.37434  0.59334  1.0000
  C   C683      1.0  0.41640  0.26703  0.49608  1.0000
  H   H546      1.0  0.35270  0.38329  0.66129  1.0000
  H   H547      1.0  0.41569  0.38166  0.55056  1.0000
  C   C684      1.0  0.63859  0.37804  0.52220  1.0000
  C   C685      1.0  0.36087  0.27583  0.34392  1.0000
  C   C686      1.0  0.64938  0.26148  0.79467  1.0000
  C   C687      1.0  0.36650  0.38251  0.63724  1.0000
  H   H548      1.0  0.55021  0.31410  0.47597  1.0000
  S   S94       1.0  0.64583  0.30094  0.19189  1.0000
  H   H549      1.0  0.44831  0.31076  0.43250  1.0000
  C   C688      1.0  0.64786  0.27935  0.10925  1.0000
  H   H550      1.0  0.36555  0.32359  0.55495  1.0000
  C   C689      1.0  0.48420  0.28425  0.37992  1.0000
  C   C690      1.0  0.36428  0.43124  0.43053  1.0000
  H   H551      1.0  0.65889  0.29275  0.09949  1.0000
  H   H552      1.0  0.38854  0.35007  0.41236  1.0000
  C   C691      1.0  0.65196  0.40030  0.22366  1.0000
  Fe  Fe48      1.0  0.66114  0.30192  0.35931  1.0000
  C   C692      1.0  0.40193  0.38142  0.57470  1.0000
  C   C693      1.0  0.54699  0.31408  0.63205  1.0000
  H   H553      1.0  0.63781  0.39452  0.45677  1.0000
  H   H554      1.0  0.65336  0.26875  0.82733  1.0000
  C   C694      1.0  0.35240  0.40284  0.48415  1.0000
  H   H555      1.0  0.58050  0.30132  0.63720  1.0000
  H   H556      1.0  0.56760  0.34704  0.52646  1.0000
  H   H557      1.0  0.36839  0.27690  0.31036  1.0000
  C   C695      1.0  0.38762  0.38973  0.65014  1.0000
  C   C696      1.0  0.38097  0.37328  0.56205  1.0000
  C   C697      1.0  0.56227  0.33792  0.55628  1.0000
  C   C698      1.0  0.34150  0.27308  0.43051  1.0000
  C   C699      1.0  0.63248  0.32260  0.68980  1.0000
  H   H558      1.0  0.64854  0.29637  0.57337  1.0000
  C   C700      1.0  0.64892  0.42104  0.24507  1.0000
  H   H559      1.0  0.57291  0.26168  0.38632  1.0000
  C   C701      1.0  0.37910  0.26690  0.52877  1.0000
  H   H560      1.0  0.66110  0.26275  0.51740  1.0000
  C   C702      1.0  0.33429  0.31202  0.52952  1.0000
  H   H561      1.0  0.65051  0.26260  0.04405  1.0000
  H   H562      1.0  0.33428  0.43370  0.47127  1.0000
  C   C703      1.0  0.45280  0.25399  0.41535  1.0000
  H   H563      1.0  0.63219  0.25419  0.57548  1.0000
  C   C704      1.0  0.57058  0.25367  0.64173  1.0000
  H   H564      1.0  0.33293  0.30080  0.77294  1.0000
  C   C705      1.0  0.33553  0.34913  0.47140  1.0000
  C   C706      1.0  0.62816  0.25291  0.78724  1.0000
  H   H565      1.0  0.40734  0.25658  0.83270  1.0000
  H   H566      1.0  0.33449  0.27202  0.46445  1.0000
  H   H567      1.0  0.66403  0.45246  0.26235  1.0000
  H   H568      1.0  0.66198  0.30577  0.71478  1.0000
  C   C707      1.0  0.33314  0.25989  0.39514  1.0000
  H   H569      1.0  0.33344  0.29807  0.55315  1.0000
  C   C708      1.0  0.66069  0.25035  0.71865  1.0000
  C   C709      1.0  0.59273  0.25057  0.65534  1.0000
  Fe  Fe49      1.0  0.36194  0.66800  0.33779  1.0000
  S   S95       1.0  0.36850  0.69385  0.39141  1.0000
  S   S96       1.0  0.36715  0.63138  0.35667  1.0000
  Fe  Fe50      1.0  0.35511  0.70369  0.26411  1.0000
  S   S97       1.0  0.36042  0.73226  0.31261  1.0000
  H   H570      1.0  0.57356  0.72114  0.50427  1.0000
  Fe  Fe51      1.0  0.38922  0.71161  0.33972  1.0000
  S   S98       1.0  0.42142  0.72988  0.35589  1.0000
  C   C710      1.0  0.46806  0.67249  0.71554  1.0000
  S   S99       1.0  0.38541  0.68431  0.28770  1.0000
  H   H571      1.0  0.51393  0.69866  0.92903  1.0000
  C   C711      1.0  0.34974  0.72598  0.10447  1.0000
  C   C712      1.0  0.34892  0.56770  0.38260  1.0000
  S   S100      1.0  0.56081  0.71148  0.68188  1.0000
  S   S101      1.0  0.47526  0.71621  0.54024  1.0000
  Fe  Fe52      1.0  0.53749  0.73528  0.64431  1.0000
  H   H572      1.0  0.35348  0.62548  0.45997  1.0000
  H   H573      1.0  0.41228  0.73212  0.53023  1.0000
  C   C713      1.0  0.58897  0.70995  0.66294  1.0000
  C   C714      1.0  0.59592  0.72144  0.62401  1.0000
  C   C715      1.0  0.61852  0.72085  0.61057  1.0000
  C   C716      1.0  0.63435  0.70842  0.63525  1.0000
  C   C717      1.0  0.62739  0.69656  0.67379  1.0000
  C   C718      1.0  0.60476  0.69741  0.68766  1.0000
  H   H574      1.0  0.58394  0.73101  0.60451  1.0000
  H   H575      1.0  0.62378  0.73016  0.58090  1.0000
  H   H576      1.0  0.63943  0.68682  0.69294  1.0000
  H   H577      1.0  0.59950  0.68840  0.71774  1.0000
  C   C719      1.0  0.43593  0.72616  0.40772  1.0000
  C   C720      1.0  0.43334  0.70684  0.43415  1.0000
  C   C721      1.0  0.44548  0.70417  0.47459  1.0000
  C   C722      1.0  0.46028  0.72077  0.48922  1.0000
  H   H578      1.0  0.52100  0.68285  0.54087  1.0000
  C   C723      1.0  0.48801  0.68345  0.70568  1.0000
  H   H579      1.0  0.42218  0.69382  0.42315  1.0000
  H   H580      1.0  0.44349  0.68906  0.49452  1.0000
  H   H581      1.0  0.43900  0.73326  0.90674  1.0000
  C   C724      1.0  0.41026  0.73158  0.21486  1.0000
  C   C725      1.0  0.40748  0.74626  0.98075  1.0000
  C   C726      1.0  0.46280  0.72060  0.95534  1.0000
  C   C727      1.0  0.49033  0.71140  0.87951  1.0000
  H   H582      1.0  0.49418  0.68415  0.67096  1.0000
  C   C728      1.0  0.53812  0.67855  0.54964  1.0000
  C   C729      1.0  0.49768  0.70626  0.92354  1.0000
  C   C730      1.0  0.36075  0.58764  0.37737  1.0000
  H   H583      1.0  0.38265  0.63384  0.24799  1.0000
  H   H584      1.0  0.37844  0.58773  0.38463  1.0000
  H   H585      1.0  0.35763  0.55271  0.39392  1.0000
  S   S102      1.0  0.50004  0.73377  0.65145  1.0000
  H   H586      1.0  0.43476  0.73628  0.78890  1.0000
  C   C731      1.0  0.57336  0.66164  0.34515  1.0000
  C   C732      1.0  0.56775  0.64846  0.38274  1.0000
  C   C733      1.0  0.57570  0.65397  0.42576  1.0000
  C   C734      1.0  0.58917  0.67287  0.43154  1.0000
  C   C735      1.0  0.54726  0.64945  0.84596  1.0000
  P   P25       1.0  0.59964  0.67961  0.48711  1.0000
  C   C736      1.0  0.57752  0.67560  0.52861  1.0000
  C   C737      1.0  0.62391  0.66226  0.49965  1.0000
  C   C738      1.0  0.63806  0.66824  0.53522  1.0000
  H   H587      1.0  0.37166  0.74970  0.41602  1.0000
  H   H588      1.0  0.46561  0.72254  0.23315  1.0000
  C   C739      1.0  0.35766  0.74333  0.78260  1.0000
  C   C740      1.0  0.62916  0.64304  0.47376  1.0000
  C   C741      1.0  0.59501  0.68586  0.39353  1.0000
  C   C742      1.0  0.53060  0.68689  0.84498  1.0000
  C   C743      1.0  0.54321  0.67212  0.59398  1.0000
  C   C744      1.0  0.56530  0.66721  0.60565  1.0000
  C   C745      1.0  0.58243  0.66906  0.57327  1.0000
  H   H589      1.0  0.46849  0.74910  0.16913  1.0000
  H   H590      1.0  0.37847  0.59481  0.27498  1.0000
  H   H591      1.0  0.54652  0.63179  0.83734  1.0000
  H   H592      1.0  0.48963  0.70674  0.99510  1.0000
  S   S103      1.0  0.33134  0.68533  0.31096  1.0000
  C   C746      1.0  0.39108  0.73854  0.47281  1.0000
  C   C747      1.0  0.52956  0.66391  0.83465  1.0000
  H   H593      1.0  0.56710  0.65740  0.31187  1.0000
  H   H594      1.0  0.55715  0.63400  0.37859  1.0000
  H   H595      1.0  0.57127  0.64354  0.45458  1.0000
  H   H596      1.0  0.35316  0.65160  0.20088  1.0000
  H   H597      1.0  0.63439  0.68300  0.55542  1.0000
  C   C748      1.0  0.34675  0.59012  0.24260  1.0000
  S   S104      1.0  0.34886  0.70495  0.18767  1.0000
  H   H598      1.0  0.54966  0.71605  0.78170  1.0000
  H   H599      1.0  0.61866  0.63794  0.44606  1.0000
  H   H600      1.0  0.64194  0.70317  0.47116  1.0000
  C   C749      1.0  0.51926  0.73165  0.80831  1.0000
  H   H601      1.0  0.53014  0.67149  0.61964  1.0000
  H   H602      1.0  0.56928  0.66289  0.64044  1.0000
  H   H603      1.0  0.59943  0.66597  0.58383  1.0000
  H   H604      1.0  0.34341  0.69541  0.49052  1.0000
  H   H605      1.0  0.39188  0.72048  0.02078  1.0000
  H   H606      1.0  0.38979  0.72097  0.46394  1.0000
  C   C750      1.0  0.36820  0.62429  0.23808  1.0000
  C   C751      1.0  0.35100  0.66054  0.47735  1.0000
  C   C752      1.0  0.55517  0.68025  0.51704  1.0000
  H   H607      1.0  0.55090  0.68590  0.48323  1.0000
  C   C753      1.0  0.58703  0.68029  0.35053  1.0000
  C   C754      1.0  0.49997  0.69370  0.74040  1.0000
  C   C755      1.0  0.59074  0.72552  0.49771  1.0000
  C   C756      1.0  0.36587  0.60221  0.25320  1.0000
  C   C757      1.0  0.56699  0.68055  0.87905  1.0000
  C   C758      1.0  0.35008  0.60735  0.36288  1.0000
  C   C759      1.0  0.47222  0.68148  0.79523  1.0000
  H   H608      1.0  0.39401  0.72664  0.22774  1.0000
  H   H609      1.0  0.36893  0.66251  0.47966  1.0000
  C   C760      1.0  0.48393  0.71084  0.96126  1.0000
  H   H610      1.0  0.51525  0.65709  0.81748  1.0000
  C   C761      1.0  0.45212  0.74426  0.18112  1.0000
  S   S105      1.0  0.53698  0.73804  0.56840  1.0000
  C   C762      1.0  0.40365  0.74481  0.51034  1.0000
  H   H611      1.0  0.45213  0.72414  0.98449  1.0000
  C   C763      1.0  0.49199  0.69308  0.78540  1.0000
  P   P26       1.0  0.50789  0.70576  0.83029  1.0000
  H   H612      1.0  0.57980  0.64658  0.87629  1.0000
  C   C764      1.0  0.46021  0.67143  0.76033  1.0000
  H   H613      1.0  0.34816  0.70927  0.09058  1.0000
  C   C765      1.0  0.62911  0.71553  0.47919  1.0000
  H   H614      1.0  0.55033  0.71267  0.87658  1.0000
  H   H615      1.0  0.44483  0.66275  0.76800  1.0000
  C   C766      1.0  0.56601  0.65778  0.86797  1.0000
  S   S106      1.0  0.66239  0.70781  0.61550  1.0000
  C   C767      1.0  0.35037  0.72889  0.15187  1.0000
  C   C768      1.0  0.66215  0.63618  0.51918  1.0000
  H   H616      1.0  0.46606  0.68003  0.82977  1.0000
  H   H617      1.0  0.45875  0.66477  0.68842  1.0000
  C   C769      1.0  0.41174  0.74683  0.17899  1.0000
  H   H618      1.0  0.59137  0.69049  0.32137  1.0000
  C   C770      1.0  0.60706  0.70896  0.48837  1.0000
  H   H619      1.0  0.51546  0.70201  0.73192  1.0000
  H   H620      1.0  0.60557  0.70035  0.39700  1.0000
  C   C771      1.0  0.54931  0.69505  0.86786  1.0000
  H   H621      1.0  0.58157  0.68699  0.89599  1.0000
  C   C772      1.0  0.46902  0.72105  0.87400  1.0000
  C   C773      1.0  0.35153  0.63428  0.21178  1.0000
  C   C774      1.0  0.45536  0.72569  0.91167  1.0000
  H   H622      1.0  0.34512  0.57336  0.25617  1.0000
  C   C775      1.0  0.65704  0.65527  0.54500  1.0000
  H   H623      1.0  0.46292  0.72502  0.84046  1.0000
  H   H624      1.0  0.33097  0.72643  0.81761  1.0000
  C   C776      1.0  0.63485  0.73820  0.48111  1.0000
  H   H625      1.0  0.42856  0.71126  0.26268  1.0000
  C   C777      1.0  0.45060  0.72919  0.21751  1.0000
  Fe  Fe53      1.0  0.49940  0.73957  0.57579  1.0000
  H   H626      1.0  0.40570  0.73450  0.09327  1.0000
  C   C778      1.0  0.41023  0.74333  0.06256  1.0000
  C   C779      1.0  0.42970  0.72282  0.23429  1.0000
  H   H627      1.0  0.35082  0.74201  0.03846  1.0000
  C   C780      1.0  0.41803  0.74838  0.64239  1.0000
  Fe  Fe54      1.0  0.33944  0.71241  0.36134  1.0000
  H   H628      1.0  0.34481  0.74214  0.51016  1.0000
  C   C781      1.0  0.46277  0.74019  0.46298  1.0000
  C   C782      1.0  0.64822  0.63009  0.48353  1.0000
  H   H629      1.0  0.36954  0.74061  0.80967  1.0000
  C   C783      1.0  0.35126  0.74451  0.07482  1.0000
  C   C784      1.0  0.33595  0.73530  0.78705  1.0000
  C   C785      1.0  0.33665  0.67901  0.48354  1.0000
  H   H630      1.0  0.42505  0.73158  0.63909  1.0000
  C   C786      1.0  0.59652  0.74815  0.49944  1.0000
  C   C787      1.0  0.40236  0.73517  0.02125  1.0000
  C   C788      1.0  0.34230  0.63963  0.46632  1.0000
  H   H631      1.0  0.63313  0.74632  0.72931  1.0000
  H   H632      1.0  0.38421  0.73711  0.64859  1.0000
  C   C789      1.0  0.54025  0.73154  0.78653  1.0000
  H   H633      1.0  0.40121  0.74005  0.94876  1.0000
  H   H634      1.0  0.65216  0.61524  0.46359  1.0000
  C   C790      1.0  0.45074  0.74278  0.42227  1.0000
  H   H635      1.0  0.65195  0.74309  0.47500  1.0000
  C   C791      1.0  0.33245  0.62220  0.20080  1.0000
  H   H636      1.0  0.46342  0.74811  0.73233  1.0000
  Fe  Fe55      1.0  0.35558  0.79092  0.97919  1.0000
  S   S107      1.0  0.35649  0.76077  0.93367  1.0000
  C   C792      1.0  0.37972  0.78356  0.26793  1.0000
  Fe  Fe56      1.0  0.35044  0.82373  0.89966  1.0000
  S   S108      1.0  0.35124  0.79559  0.84856  1.0000
  C   C793      1.0  0.43222  0.76680  0.64252  1.0000
  C   C794      1.0  0.35010  0.90189  0.88837  1.0000
  Fe  Fe57      1.0  0.37945  0.78080  0.88827  1.0000
  S   S109      1.0  0.40761  0.76053  0.85377  1.0000
  H   H637      1.0  0.34501  0.84015  0.76973  1.0000
  S   S110      1.0  0.38071  0.81011  0.93667  1.0000
  Fe  Fe58      1.0  0.50046  0.77117  0.65777  1.0000
  S   S111      1.0  0.49790  0.77719  0.58242  1.0000
  S   S112      1.0  0.47914  0.79285  0.70593  1.0000
  H   H638      1.0  0.52390  0.79938  0.08399  1.0000
  Fe  Fe59      1.0  0.53570  0.77525  0.58164  1.0000
  S   S113      1.0  0.55799  0.80010  0.54477  1.0000
  S   S114      1.0  0.53811  0.77236  0.65719  1.0000
  H   H639      1.0  0.39388  0.80876  0.65673  1.0000
  C   C795      1.0  0.42041  0.76559  0.98145  1.0000
  H   H640      1.0  0.40422  0.82718  0.23153  1.0000
  C   C796      1.0  0.58623  0.80193  0.56169  1.0000
  C   C797      1.0  0.59588  0.78544  0.58926  1.0000
  C   C798      1.0  0.61863  0.78647  0.60037  1.0000
  C   C799      1.0  0.63184  0.80433  0.58531  1.0000
  C   C800      1.0  0.62214  0.82116  0.55852  1.0000
  C   C801      1.0  0.59945  0.81980  0.54631  1.0000
  H   H641      1.0  0.58592  0.77159  0.60119  1.0000
  H   H642      1.0  0.62610  0.77324  0.62059  1.0000
  H   H643      1.0  0.63214  0.83507  0.54690  1.0000
  H   H644      1.0  0.59210  0.83268  0.52505  1.0000
  C   C802      1.0  0.42594  0.76992  0.81002  1.0000
  H   H645      1.0  0.41070  0.76754  0.28758  1.0000
  C   C803      1.0  0.45412  0.76060  0.75165  1.0000
  C   C804      1.0  0.45834  0.78341  0.74479  1.0000
  C   C805      1.0  0.44591  0.79939  0.76998  1.0000
  C   C806      1.0  0.42976  0.79272  0.80232  1.0000
  C   C807      1.0  0.42335  0.78848  0.64746  1.0000
  H   H646      1.0  0.58694  0.89312  0.84841  1.0000
  H   H647      1.0  0.44896  0.81708  0.76481  1.0000
  H   H648      1.0  0.42065  0.80522  0.82201  1.0000
  H   H649      1.0  0.54348  0.78662  0.75766  1.0000
  C   C808      1.0  0.35365  0.76616  0.09231  1.0000
  P   P27       1.0  0.35607  0.77722  0.66157  1.0000
  C   C809      1.0  0.64897  0.87173  0.80464  1.0000
  C   C810      1.0  0.36060  0.79513  0.28303  1.0000
  C   C811      1.0  0.38313  0.77773  0.45610  1.0000
  C   C812      1.0  0.34016  0.76978  0.61168  1.0000
  H   H650      1.0  0.34282  0.80900  0.34031  1.0000
  C   C813      1.0  0.41699  0.79753  0.13526  1.0000
  C   C814      1.0  0.58841  0.87524  0.84185  1.0000
  C   C815      1.0  0.39277  0.78099  0.34538  1.0000
  C   C816      1.0  0.38581  0.77340  0.65183  1.0000
  H   H651      1.0  0.64022  0.83162  0.69291  1.0000
  C   C817      1.0  0.34986  0.81282  0.72249  1.0000
  C   C818      1.0  0.61862  0.75449  0.49188  1.0000
  H   H652      1.0  0.39607  0.80128  0.50523  1.0000
  C   C819      1.0  0.59170  0.82915  0.82484  1.0000
  H   H653      1.0  0.34118  0.90215  0.79003  1.0000
  H   H654      1.0  0.45949  0.81372  0.14286  1.0000
  C   C820      1.0  0.58992  0.83702  0.86949  1.0000
  H   H655      1.0  0.65147  0.77723  0.77090  1.0000
  H   H656      1.0  0.36779  0.89905  0.88260  1.0000
  C   C821      1.0  0.38230  0.86629  0.42482  1.0000
  C   C822      1.0  0.50701  0.75191  0.81113  1.0000
  H   H657      1.0  0.65634  0.78204  0.33953  1.0000
  H   H658      1.0  0.33710  0.85673  0.62871  1.0000
  H   H659      1.0  0.35195  0.75311  0.20575  1.0000
  H   H660      1.0  0.65807  0.85096  0.30818  1.0000
  C   C823      1.0  0.34018  0.85086  0.70049  1.0000
  C   C824      1.0  0.64544  0.86274  0.65923  1.0000
  H   H661      1.0  0.35535  0.78586  0.15354  1.0000
  C   C825      1.0  0.40346  0.80947  0.10476  1.0000
  C   C826      1.0  0.39010  0.82743  0.11996  1.0000
  C   C827      1.0  0.39037  0.83383  0.16557  1.0000
  C   C828      1.0  0.58835  0.86006  0.87801  1.0000
  C   C829      1.0  0.38095  0.75490  0.44556  1.0000
  C   C830      1.0  0.42836  0.77378  0.02266  1.0000
  H   H662      1.0  0.35359  0.84544  0.41767  1.0000
  C   C831      1.0  0.40025  0.79183  0.65196  1.0000
  H   H663      1.0  0.40553  0.77554  0.36897  1.0000
  C   C832      1.0  0.62554  0.76296  0.73037  1.0000
  H   H664      1.0  0.58385  0.76075  0.50746  1.0000
  C   C833      1.0  0.41730  0.80416  0.18107  1.0000
  H   H665      1.0  0.49848  0.82444  0.12840  1.0000
  C   C834      1.0  0.41796  0.84698  0.43118  1.0000
  H   H666      1.0  0.59233  0.81120  0.81899  1.0000
  C   C835      1.0  0.64842  0.81309  0.43510  1.0000
  C   C836      1.0  0.34978  0.80604  0.67682  1.0000
  H   H667      1.0  0.49047  0.75261  0.82606  1.0000
  H   H668      1.0  0.38193  0.77981  0.23216  1.0000
  H   H669      1.0  0.56502  0.75093  0.75134  1.0000
  H   H670      1.0  0.40264  0.80472  0.06938  1.0000
  H   H671      1.0  0.37919  0.83605  0.09626  1.0000
  C   C837      1.0  0.40551  0.86696  0.42942  1.0000
  H   H672      1.0  0.62312  0.77200  0.49498  1.0000
  H   H673      1.0  0.64289  0.85285  0.86580  1.0000
  C   C838      1.0  0.61400  0.88849  0.65603  1.0000
  C   C839      1.0  0.63626  0.88327  0.64555  1.0000
  H   H674      1.0  0.66265  0.85867  0.65096  1.0000
  C   C840      1.0  0.63259  0.84750  0.68385  1.0000
  C   C841      1.0  0.61035  0.85282  0.69565  1.0000
  C   C842      1.0  0.60106  0.87333  0.68090  1.0000
  P   P28       1.0  0.59389  0.83409  0.73049  1.0000
  C   C843      1.0  0.60625  0.80622  0.73032  1.0000
  C   C844      1.0  0.59228  0.84432  0.78827  1.0000
  C   C845      1.0  0.43261  0.75312  0.16144  1.0000
  C   C846      1.0  0.47029  0.80246  0.12361  1.0000
  H   H675      1.0  0.50629  0.82982  0.65732  1.0000
  H   H676      1.0  0.64649  0.89506  0.62675  1.0000
  C   C847      1.0  0.59028  0.86743  0.79715  1.0000
  C   C848      1.0  0.59595  0.78856  0.70745  1.0000
  C   C849      1.0  0.35375  0.76913  0.13972  1.0000
  S   S115      1.0  0.34599  0.85783  0.86569  1.0000
  C   C850      1.0  0.47681  0.76794  0.08164  1.0000
  C   C851      1.0  0.62622  0.80194  0.75378  1.0000
  C   C852      1.0  0.56605  0.83329  0.70754  1.0000
  C   C853      1.0  0.56300  0.83338  0.66032  1.0000
  C   C854      1.0  0.54148  0.83253  0.64238  1.0000
  C   C855      1.0  0.52292  0.83117  0.67132  1.0000
  C   C856      1.0  0.52581  0.83099  0.71832  1.0000
  C   C857      1.0  0.54728  0.83217  0.73648  1.0000
  H   H677      1.0  0.60682  0.90431  0.64484  1.0000
  S   S116      1.0  0.66039  0.80433  0.60015  1.0000
  C   C858      1.0  0.34524  0.82205  0.64297  1.0000
  H   H678      1.0  0.43808  0.78900  0.02260  1.0000
  H   H679      1.0  0.58379  0.87763  0.68852  1.0000
  H   H680      1.0  0.41389  0.88297  0.43092  1.0000
  H   H681      1.0  0.37985  0.84766  0.17719  1.0000
  C   C859      1.0  0.53691  0.77146  0.77256  1.0000
  H   H682      1.0  0.43458  0.80262  0.64896  1.0000
  H   H683      1.0  0.59013  0.87951  0.76977  1.0000
  H   H684      1.0  0.58077  0.79130  0.68858  1.0000
  S   S117      1.0  0.35683  0.78996  0.05663  1.0000
  C   C860      1.0  0.35751  0.79961  0.32936  1.0000
  C   C861      1.0  0.65871  0.79552  0.36344  1.0000
  H   H685      1.0  0.63450  0.81536  0.77153  1.0000
  H   H686      1.0  0.57722  0.83381  0.63725  1.0000
  H   H687      1.0  0.53922  0.83245  0.60591  1.0000
  H   H688      1.0  0.54911  0.83182  0.77297  1.0000
  C   C862      1.0  0.33534  0.81316  0.47724  1.0000
  C   C863      1.0  0.34497  0.83510  0.73425  1.0000
  H   H689      1.0  0.59756  0.75365  0.68949  1.0000
  H   H690      1.0  0.35340  0.93779  0.89185  1.0000
  C   C864      1.0  0.34142  0.80014  0.43922  1.0000
  H   H691      1.0  0.41521  0.77230  0.55074  1.0000
  C   C865      1.0  0.39591  0.77669  0.29904  1.0000
  C   C866      1.0  0.38381  0.82548  0.42621  1.0000
  H   H692      1.0  0.63866  0.81326  0.46633  1.0000
  H   H693      1.0  0.34570  0.81734  0.60745  1.0000
  C   C867      1.0  0.34038  0.84436  0.65484  1.0000
  H   H694      1.0  0.34789  0.82216  0.49591  1.0000
  C   C868      1.0  0.43795  0.75394  0.78397  1.0000
  P   P29       1.0  0.37022  0.79877  0.42051  1.0000
  H   H695      1.0  0.63414  0.88215  0.80833  1.0000
  H   H696      1.0  0.58953  0.82522  0.89750  1.0000
  H   H697      1.0  0.34812  0.80051  0.25877  1.0000
  C   C869      1.0  0.65405  0.85534  0.83711  1.0000
  C   C870      1.0  0.46232  0.78205  0.10674  1.0000
  H   H698      1.0  0.63420  0.78248  0.41044  1.0000
  C   C871      1.0  0.40406  0.82227  0.19610  1.0000
  C   C872      1.0  0.49894  0.77418  0.07349  1.0000
  H   H699      1.0  0.45018  0.76427  0.63963  1.0000
  C   C873      1.0  0.64604  0.79571  0.40371  1.0000
  C   C874      1.0  0.37149  0.84563  0.42267  1.0000
  C   C875      1.0  0.49244  0.80863  0.11543  1.0000
  H   H700      1.0  0.35376  0.80104  0.74927  1.0000
  C   C876      1.0  0.37333  0.79203  0.36101  1.0000
  C   C877      1.0  0.39479  0.78387  0.49531  1.0000
  C   C878      1.0  0.63585  0.78040  0.75361  1.0000
  P   P30       1.0  0.43377  0.77379  0.11655  1.0000
  C   C879      1.0  0.40721  0.82631  0.42892  1.0000
  C   C880      1.0  0.34187  0.92396  0.89299  1.0000
  H   H701      1.0  0.41719  0.81098  0.42905  1.0000
  H   H702      1.0  0.51132  0.82955  0.74049  1.0000
  H   H703      1.0  0.43601  0.84748  0.43383  1.0000
  H   H704      1.0  0.37272  0.88181  0.42236  1.0000
  H   H705      1.0  0.58684  0.86617  0.91261  1.0000
  H   H706      1.0  0.42766  0.79525  0.20526  1.0000
  C   C881      1.0  0.40539  0.76747  0.52173  1.0000
  C   C882      1.0  0.51583  0.77170  0.79325  1.0000
  H   H707      1.0  0.50596  0.78710  0.79417  1.0000
  C   C883      1.0  0.60551  0.76705  0.70776  1.0000
  C   C884      1.0  0.50676  0.79452  0.09038  1.0000
  H   H708      1.0  0.33662  0.86816  0.70983  1.0000
  H   H709      1.0  0.65387  0.79224  0.15819  1.0000
  C   C885      1.0  0.34845  0.75952  0.70912  1.0000
  H   H710      1.0  0.65943  0.88765  0.74221  1.0000
  C   C886      1.0  0.33556  0.88369  0.88812  1.0000
  H   H711      1.0  0.42397  0.77438  0.94995  1.0000
  C   C887      1.0  0.42343  0.76267  0.06362  1.0000
  H   H712      1.0  0.38063  0.76225  0.74235  1.0000
  H   H713      1.0  0.45293  0.75774  0.40197  1.0000
  C   C888      1.0  0.36388  0.75552  0.74405  1.0000
  C   C889      1.0  0.54908  0.75138  0.76909  1.0000
  C   C890      1.0  0.33727  0.75169  0.53784  1.0000
  C   C891      1.0  0.34994  0.75751  0.57568  1.0000
  H   H714      1.0  0.39661  0.75375  0.16466  1.0000
  C   C892      1.0  0.35193  0.75062  0.16939  1.0000
  H   H715      1.0  0.65858  0.88946  0.27764  1.0000
  H   H716      1.0  0.36726  0.75230  0.57645  1.0000
  H   H717      1.0  0.47412  0.75308  0.47381  1.0000
  C   C893      1.0  0.39494  0.75162  0.64746  1.0000
  H   H718      1.0  0.51002  0.76326  0.05396  1.0000
  C   C894      1.0  0.66175  0.78616  0.18887  1.0000
  C   C895      1.0  0.66325  0.87495  0.76753  1.0000
  C   C896      1.0  0.66346  0.83033  0.42621  1.0000
  H   H719      1.0  0.47096  0.75212  0.06837  1.0000
  H   H720      1.0  0.66026  0.75137  0.16924  1.0000
  Fe  Fe60      1.0  0.71528  0.02558  0.88378  1.0000
  S   S118      1.0  0.74408  0.03114  0.83546  1.0000
  S   S119      1.0  0.68315  0.04662  0.88320  1.0000
  Fe  Fe61      1.0  0.76533  0.02693  0.89729  1.0000
  S   S120      1.0  0.79255  0.05125  0.91844  1.0000
  S   S121      1.0  0.73634  0.02299  0.94619  1.0000
  Fe  Fe62      1.0  0.83983  0.16851  0.81574  1.0000
  S   S122      1.0  0.84592  0.18738  0.88029  1.0000
  S   S123      1.0  0.83661  0.13058  0.80537  1.0000
  Fe  Fe63      1.0  0.83945  0.21185  0.75739  1.0000
  H   H721      1.0  0.67376  0.20520  0.74082  1.0000
  H   H722      1.0  0.69920  0.24697  0.52381  1.0000
  Fe  Fe64      1.0  0.87026  0.20825  0.84069  1.0000
  S   S124      1.0  0.90444  0.22086  0.86267  1.0000
  Fe  Fe65      1.0  0.82005  0.21169  0.85396  1.0000
  S   S125      1.0  0.79394  0.22102  0.90671  1.0000
  S   S126      1.0  0.86653  0.18736  0.77751  1.0000
  S   S127      1.0  0.81254  0.19169  0.79176  1.0000
  C   C897      1.0  0.72548  0.16664  0.76246  1.0000
  C   C898      1.0  0.70549  0.10839  0.91796  1.0000
  S   S128      1.0  0.97529  0.23111  0.16410  1.0000
  C   C899      1.0  0.91692  0.21748  0.91694  1.0000
  C   C900      1.0  0.90989  0.20097  0.94741  1.0000
  C   C901      1.0  0.92118  0.19765  0.98879  1.0000
  C   C902      1.0  0.93934  0.21114  0.00076  1.0000
  H   H723      1.0  0.74941  0.12018  0.69251  1.0000
  C   C903      1.0  0.93508  0.23098  0.92885  1.0000
  H   H724      1.0  0.83437  0.20216  0.98572  1.0000
  C   C904      1.0  0.87192  0.21713  0.52299  1.0000
  H   H725      1.0  0.75595  0.06969  0.96672  1.0000
  C   C905      1.0  0.76636  0.22582  0.88847  1.0000
  H   H726      1.0  0.69454  0.12894  0.24129  1.0000
  H   H727      1.0  0.99320  0.17526  0.10275  1.0000
  H   H728      1.0  0.89625  0.19031  0.93812  1.0000
  C   C906      1.0  0.69164  0.17510  0.72059  1.0000
  S   S129      1.0  0.68795  0.14962  0.93885  1.0000
  C   C907      1.0  0.70411  0.20079  0.77824  1.0000
  S   S130      1.0  0.69399  0.24919  0.86838  1.0000
  C   C908      1.0  0.74892  0.21594  0.91284  1.0000
  C   C909      1.0  0.73853  0.11538  0.14728  1.0000
  H   H729      1.0  0.82519  0.12078  0.01496  1.0000
  C   C910      1.0  0.74790  0.16865  0.09383  1.0000
  C   C911      1.0  0.73174  0.07660  0.01956  1.0000
  H   H730      1.0  0.88677  0.22009  0.58851  1.0000
  C   C912      1.0  0.72873  0.16318  0.06921  1.0000
  C   C913      1.0  0.68437  0.07508  0.90017  1.0000
  C   C914      1.0  0.90712  0.15425  0.10065  1.0000
  H   H731      1.0  0.79298  0.14643  0.02193  1.0000
  C   C915      1.0  0.70485  0.08549  0.90676  1.0000
  C   C916      1.0  0.68576  0.12113  0.92305  1.0000
  H   H732      1.0  0.72026  0.07595  0.90277  1.0000
  C   C917      1.0  0.80097  0.07487  0.88592  1.0000
  C   C918      1.0  0.80287  0.07384  0.83859  1.0000
  C   C919      1.0  0.81317  0.09140  0.81439  1.0000
  C   C920      1.0  0.82104  0.11052  0.83693  1.0000
  C   C921      1.0  0.81812  0.11203  0.88408  1.0000
  C   C922      1.0  0.80841  0.09418  0.90842  1.0000
  H   H733      1.0  0.79742  0.05902  0.82084  1.0000
  H   H734      1.0  0.81552  0.08991  0.77804  1.0000
  H   H735      1.0  0.82426  0.12641  0.90214  1.0000
  H   H736      1.0  0.80736  0.09498  0.94507  1.0000
  C   C923      1.0  0.72110  0.17797  0.03543  1.0000
  H   H737      1.0  0.79212  0.15086  0.82123  1.0000
  C   C924      1.0  0.78450  0.15813  0.89070  1.0000
  C   C925      1.0  0.76776  0.16100  0.92349  1.0000
  H   H738      1.0  0.80184  0.16032  0.89963  1.0000
  H   H739      1.0  0.77198  0.16556  0.95773  1.0000
  H   H740      1.0  0.67972  0.17059  0.69501  1.0000
  Fe  Fe66      1.0  0.66806  0.22714  0.90175  1.0000
  C   C926      1.0  0.92061  0.13619  0.11406  1.0000
  H   H741      1.0  0.93584  0.24645  0.50399  1.0000
  C   C927      1.0  0.74277  0.11028  0.72026  1.0000
  C   C928      1.0  0.75432  0.10489  0.98301  1.0000
  H   H742      1.0  0.68809  0.14172  0.16316  1.0000
  H   H743      1.0  0.96009  0.23845  0.97920  1.0000
  H   H744      1.0  0.67298  0.09550  0.74074  1.0000
  S   S131      1.0  0.83769  0.21834  0.68081  1.0000
  H   H745      1.0  0.83621  0.22499  0.58506  1.0000
  H   H746      1.0  0.68313  0.17185  0.10582  1.0000
  S   S132      1.0  0.84469  0.23410  0.81829  1.0000
  C   C929      1.0  0.89389  0.24063  0.73307  1.0000
  C   C930      1.0  0.67588  0.22398  0.61875  1.0000
  H   H747      1.0  0.82240  0.13395  0.70216  1.0000
  H   H748      1.0  0.82297  0.17043  0.66127  1.0000
  C   C931      1.0  0.73227  0.10602  0.79945  1.0000
  C   C932      1.0  0.77178  0.15493  0.73700  1.0000
  C   C933      1.0  0.86855  0.22707  0.48059  1.0000
  H   H749      1.0  0.73879  0.23990  0.18059  1.0000
  C   C934      1.0  0.68327  0.22095  0.10235  1.0000
  C   C935      1.0  0.83474  0.24141  0.60045  1.0000
  C   C936      1.0  0.94608  0.22802  0.97070  1.0000
  H   H750      1.0  0.76677  0.10938  0.95769  1.0000
  C   C937      1.0  0.74819  0.08248  0.98793  1.0000
  H   H751      1.0  0.76535  0.24006  0.24414  1.0000
  H   H752      1.0  0.72214  0.15311  0.85832  1.0000
  C   C938      1.0  0.80812  0.14530  0.70433  1.0000
  C   C939      1.0  0.72161  0.23874  0.87293  1.0000
  C   C940      1.0  0.74203  0.10810  0.19184  1.0000
  H   H753      1.0  0.79015  0.12412  0.75048  1.0000
  C   C941      1.0  0.69993  0.23670  0.09430  1.0000
  H   H754      1.0  0.72889  0.10729  0.26021  1.0000
  H   H755      1.0  0.67204  0.15048  0.83470  1.0000
  C   C942      1.0  0.70327  0.13247  0.17047  1.0000
  S   S133      1.0  0.67309  0.20977  0.96852  1.0000
  H   H756      1.0  0.90887  0.17050  0.11682  1.0000
  H   H757      1.0  0.73069  0.11241  0.83367  1.0000
  H   H758      1.0  0.70666  0.17394  0.01521  1.0000
  C   C943      1.0  0.72269  0.18696  0.78629  1.0000
  C   C944      1.0  0.72620  0.11301  0.22570  1.0000
  Fe  Fe67      1.0  0.97755  0.22949  0.08756  1.0000
  C   C945      1.0  0.68841  0.19471  0.74595  1.0000
  C   C946      1.0  0.91292  0.23327  0.66156  1.0000
  H   H759      1.0  0.93257  0.13837  0.14106  1.0000
  C   C947      1.0  0.71910  0.12763  0.13618  1.0000
  H   H760      1.0  0.71229  0.14600  0.70874  1.0000
  H   H761      1.0  0.92975  0.10162  0.10191  1.0000
  C   C948      1.0  0.70685  0.12520  0.21502  1.0000
  C   C949      1.0  0.67426  0.16015  0.08474  1.0000
  H   H762      1.0  0.75276  0.20412  0.93943  1.0000
  H   H763      1.0  0.70175  0.21615  0.79751  1.0000
  C   C950      1.0  0.76137  0.24173  0.85493  1.0000
  C   C951      1.0  0.72733  0.11575  0.04153  1.0000
  H   H764      1.0  0.68153  0.11171  0.02430  1.0000
  H   H765      1.0  0.79736  0.18732  0.00684  1.0000
  H   H766      1.0  0.70887  0.22213  0.58862  1.0000
  C   C952      1.0  0.73902  0.24845  0.84770  1.0000
  H   H767      1.0  0.68037  0.21314  0.64685  1.0000
  H   H768      1.0  0.88328  0.14970  0.83185  1.0000
  C   C953      1.0  0.74084  0.11938  0.76419  1.0000
  C   C954      1.0  0.77887  0.15312  0.84594  1.0000
  H   H769      1.0  0.75897  0.18789  0.71819  1.0000
  C   C955      1.0  0.96993  0.24089  0.52282  1.0000
  C   C956      1.0  0.88474  0.22796  0.55566  1.0000
  P   P31       1.0  0.71477  0.13678  0.07830  1.0000
  H   H770      1.0  0.86428  0.20120  0.53095  1.0000
  C   C957      1.0  0.74388  0.12150  0.00956  1.0000
  H   H771      1.0  0.88990  0.23570  0.76763  1.0000
  H   H772      1.0  0.74868  0.13874  0.00476  1.0000
  H   H773      1.0  0.91596  0.18445  0.01151  1.0000
  H   H774      1.0  0.75699  0.09855  0.20008  1.0000
  C   C958      1.0  0.68667  0.24303  0.54943  1.0000
  C   C959      1.0  0.73623  0.08821  0.71183  1.0000
  C   C960      1.0  0.72145  0.09313  0.04653  1.0000
  H   H775      1.0  0.85842  0.21883  0.45545  1.0000
  C   C961      1.0  0.89428  0.24887  0.54610  1.0000
  C   C962      1.0  0.71016  0.16116  0.72858  1.0000
  C   C963      1.0  0.67587  0.23740  0.17607  1.0000
  H   H776      1.0  0.70892  0.23579  0.06255  1.0000
  H   H777      1.0  0.73473  0.19214  0.81139  1.0000
  H   H778      1.0  0.91410  0.21127  0.71986  1.0000
  H   H779      1.0  0.73245  0.16158  0.93704  1.0000
  C   C964      1.0  0.74540  0.15889  0.91168  1.0000
  H   H780      1.0  0.75102  0.11139  0.12152  1.0000
  H   H781      1.0  0.71344  0.21384  0.92290  1.0000
  C   C965      1.0  0.72749  0.07515  0.74703  1.0000
  C   C966      1.0  0.67342  0.12615  0.03976  1.0000
  S   S134      1.0  0.95378  0.20540  0.05220  1.0000
  C   C967      1.0  0.73221  0.19805  0.02699  1.0000
  C   C968      1.0  0.75127  0.20338  0.05146  1.0000
  C   C969      1.0  0.75912  0.18869  0.08490  1.0000
  H   H782      1.0  0.72602  0.20947  0.00126  1.0000
  H   H783      1.0  0.76000  0.21883  0.04420  1.0000
  H   H784      1.0  0.77397  0.19279  0.10379  1.0000
  C   C970      1.0  0.90404  0.11296  0.05618  1.0000
  C   C971      1.0  0.89014  0.13095  0.04294  1.0000
  C   C972      1.0  0.89190  0.15166  0.06537  1.0000
  P   P32       1.0  0.87315  0.12844  0.99277  1.0000
  C   C973      1.0  0.88949  0.13719  0.94401  1.0000
  C   C974      1.0  0.86381  0.09977  0.98719  1.0000
  C   C975      1.0  0.86288  0.08926  0.94453  1.0000
  C   C976      1.0  0.85384  0.06783  0.94046  1.0000
  C   C977      1.0  0.84572  0.05668  0.97880  1.0000
  C   C978      1.0  0.84709  0.06673  0.02152  1.0000
  C   C979      1.0  0.85615  0.08815  0.02577  1.0000
  C   C980      1.0  0.91236  0.14193  0.94798  1.0000
  C   C981      1.0  0.92448  0.14983  0.91049  1.0000
  C   C982      1.0  0.91400  0.15276  0.86869  1.0000
  C   C983      1.0  0.89143  0.14764  0.86429  1.0000
  C   C984      1.0  0.87915  0.14029  0.90189  1.0000
  C   C985      1.0  0.84888  0.14685  0.99772  1.0000
  C   C986      1.0  0.85109  0.16994  0.98966  1.0000
  C   C987      1.0  0.83258  0.18442  0.99322  1.0000
  C   C988      1.0  0.81168  0.17601  0.00500  1.0000
  C   C989      1.0  0.80924  0.15304  0.01320  1.0000
  C   C990      1.0  0.82770  0.13848  0.00931  1.0000
  H   H785      1.0  0.90369  0.09710  0.03825  1.0000
  H   H786      1.0  0.88213  0.16612  0.05500  1.0000
  H   H787      1.0  0.86841  0.09762  0.91397  1.0000
  H   H788      1.0  0.85221  0.06026  0.90719  1.0000
  H   H789      1.0  0.83787  0.04047  0.97513  1.0000
  H   H790      1.0  0.84062  0.05809  0.05114  1.0000
  H   H791      1.0  0.85653  0.09596  0.05897  1.0000
  H   H792      1.0  0.92084  0.14028  0.98007  1.0000
  H   H793      1.0  0.94183  0.15439  0.91423  1.0000
  H   H794      1.0  0.92322  0.15941  0.83994  1.0000
  C   C991      1.0  0.80846  0.16583  0.68140  1.0000
  H   H795      1.0  0.86152  0.13714  0.89796  1.0000
  H   H796      1.0  0.86710  0.17681  0.98018  1.0000
  H   H797      1.0  0.73810  0.08114  0.67809  1.0000
  H   H798      1.0  0.82028  0.01689  0.82142  1.0000
  H   H799      1.0  0.72142  0.11633  0.92225  1.0000
  C   C992      1.0  0.69208  0.22903  0.58587  1.0000
  H   H800      1.0  0.71848  0.07398  0.81782  1.0000
  C   C993      1.0  0.73966  0.15423  0.86686  1.0000
  C   C994      1.0  0.77227  0.17559  0.71392  1.0000
  H   H801      1.0  0.79127  0.19714  0.66939  1.0000
  C   C995      1.0  0.75639  0.15168  0.83338  1.0000
  H   H802      1.0  0.67904  0.20912  0.07601  1.0000
  C   C996      1.0  0.79051  0.18091  0.68601  1.0000
  H   H803      1.0  0.75435  0.15745  0.11959  1.0000
  H   H804      1.0  0.72256  0.05798  0.74074  1.0000
  H   H805      1.0  0.70885  0.08828  0.07118  1.0000
  C   C997      1.0  0.72537  0.08413  0.79066  1.0000
  H   H806      1.0  0.72688  0.05920  0.02286  1.0000
  H   H807      1.0  0.69224  0.12662  0.77918  1.0000
  C   C998      1.0  0.78984  0.13983  0.73191  1.0000
  P   P33       1.0  0.74882  0.14810  0.77460  1.0000
  C   C999      1.0  0.72663  0.22178  0.90406  1.0000
  C   C1000     1.0  0.68531  0.14103  0.06720  1.0000
  C   C1001     1.0  0.91902  0.11552  0.09195  1.0000
  H   H808      1.0  0.92347  0.22231  0.64103  1.0000
  C   C1002     1.0  0.67133  0.22119  0.14332  1.0000
  C   C1003     1.0  0.90766  0.22691  0.70610  1.0000
  C   C1004     1.0  0.83463  0.24324  0.64806  1.0000
  C   C1005     1.0  0.67481  0.12365  0.78620  1.0000
  H   H809      1.0  0.94074  0.24376  0.90547  1.0000
  H   H810      1.0  0.83262  0.00202  0.89565  1.0000
  H   H811      1.0  0.97497  0.23557  0.48899  1.0000
  C   C1006     1.0  0.87819  0.24773  0.47063  1.0000
  H   H812      1.0  0.66606  0.23815  0.20719  1.0000
  C   C1007     1.0  0.98563  0.24162  0.55758  1.0000
  H   H813      1.0  0.77480  0.24978  0.83650  1.0000
  C   C1008     1.0  0.94766  0.24704  0.53153  1.0000
  C   C1009     1.0  0.66519  0.11067  0.91758  1.0000
  C   C1010     1.0  0.66453  0.08770  0.90623  1.0000
  H   H814      1.0  0.99126  0.24924  0.62806  1.0000
  C   C1011     1.0  0.97910  0.24860  0.60110  1.0000
  H   H815      1.0  0.67371  0.24951  0.69310  1.0000
  C   C1012     1.0  0.66507  0.25196  0.54586  1.0000
  C   C1013     1.0  0.78427  0.48723  0.71441  1.0000
  S   S135      1.0  0.81337  0.48771  0.41238  1.0000
  Fe  Fe68      1.0  0.73646  0.48306  0.34796  1.0000
  S   S136      1.0  0.72654  0.44951  0.31785  1.0000
  S   S137      1.0  0.74853  0.48534  0.41968  1.0000
  Fe  Fe69      1.0  0.83404  0.31097  0.48227  1.0000
  S   S138      1.0  0.83421  0.28685  0.42323  1.0000
  S   S139      1.0  0.82776  0.30656  0.55861  1.0000
  Fe  Fe70      1.0  0.84349  0.35170  0.42097  1.0000
  S   S140      1.0  0.84471  0.33079  0.35737  1.0000
  S   S141      1.0  0.85386  0.38828  0.42588  1.0000
  Fe  Fe71      1.0  0.81449  0.31376  0.38715  1.0000
  S   S142      1.0  0.78631  0.30730  0.33819  1.0000
  Fe  Fe72      1.0  0.86450  0.30544  0.39699  1.0000
  S   S143      1.0  0.89539  0.28564  0.37208  1.0000
  S   S144      1.0  0.81191  0.33659  0.44756  1.0000
  S   S145      1.0  0.86572  0.32751  0.45895  1.0000
  S   S146      1.0  0.68745  0.28828  0.40679  1.0000
  Fe  Fe73      1.0  0.97780  0.26839  0.15573  1.0000
  H   H816      1.0  0.93969  0.34035  0.58849  1.0000
  S   S147      1.0  0.95454  0.29433  0.19043  1.0000
  C   C1014     1.0  0.70650  0.40847  0.32267  1.0000
  H   H817      1.0  0.77278  0.27028  0.09245  1.0000
  C   C1015     1.0  0.91061  0.28775  0.31988  1.0000
  C   C1016     1.0  0.90762  0.30572  0.28981  1.0000
  C   C1017     1.0  0.92106  0.30728  0.25021  1.0000
  C   C1018     1.0  0.93726  0.29072  0.23953  1.0000
  C   C1019     1.0  0.93985  0.27246  0.26899  1.0000
  C   C1020     1.0  0.90939  0.29231  0.58232  1.0000
  H   H818      1.0  0.89527  0.31861  0.29753  1.0000
  H   H819      1.0  0.91899  0.32145  0.22770  1.0000
  S   S148      1.0  0.66840  0.32492  0.30084  1.0000
  H   H820      1.0  0.70187  0.36929  0.24378  1.0000
  C   C1021     1.0  0.75900  0.30235  0.35868  1.0000
  C   C1022     1.0  0.75407  0.30118  0.40518  1.0000
  C   C1023     1.0  0.73208  0.29674  0.41994  1.0000
  C   C1024     1.0  0.71493  0.29395  0.38831  1.0000
  C   C1025     1.0  0.71986  0.29549  0.34195  1.0000
  C   C1026     1.0  0.74183  0.29940  0.32725  1.0000
  H   H821      1.0  0.76720  0.30338  0.42971  1.0000
  H   H822      1.0  0.72835  0.29564  0.45588  1.0000
  H   H823      1.0  0.70685  0.29299  0.31734  1.0000
  H   H824      1.0  0.74545  0.29994  0.29130  1.0000
  C   C1027     1.0  0.83041  0.28184  0.59211  1.0000
  C   C1028     1.0  0.76851  0.37971  0.49654  1.0000
  H   H825      1.0  0.78142  0.30856  0.21513  1.0000
  C   C1029     1.0  0.68840  0.39393  0.32936  1.0000
  C   C1030     1.0  0.70986  0.30175  0.11740  1.0000
  C   C1031     1.0  0.82268  0.45933  0.41641  1.0000
  C   C1032     1.0  0.84448  0.45548  0.43149  1.0000
  C   C1033     1.0  0.85334  0.43365  0.43424  1.0000
  C   C1034     1.0  0.84060  0.41507  0.42230  1.0000
  C   C1035     1.0  0.81861  0.41865  0.40734  1.0000
  C   C1036     1.0  0.80961  0.44081  0.40447  1.0000
  H   H826      1.0  0.85474  0.46956  0.44074  1.0000
  H   H827      1.0  0.87032  0.43116  0.44567  1.0000
  H   H828      1.0  0.80872  0.40441  0.39784  1.0000
  H   H829      1.0  0.79276  0.44363  0.39277  1.0000
  C   C1037     1.0  0.70456  0.43141  0.33355  1.0000
  C   C1038     1.0  0.68459  0.43956  0.35269  1.0000
  H   H830      1.0  0.72193  0.40200  0.30809  1.0000
  H   H831      1.0  0.68282  0.45721  0.36071  1.0000
  H   H832      1.0  0.69996  0.44339  0.22576  1.0000
  C   C1039     1.0  0.76690  0.35946  0.52081  1.0000
  P   P34       1.0  0.74654  0.38918  0.45911  1.0000
  C   C1040     1.0  0.72302  0.37054  0.46026  1.0000
  C   C1041     1.0  0.73518  0.41636  0.47500  1.0000
  C   C1042     1.0  0.71576  0.42431  0.45364  1.0000
  C   C1043     1.0  0.71523  0.36061  0.42028  1.0000
  C   C1044     1.0  0.69646  0.34692  0.42174  1.0000
  H   H833      1.0  0.83327  0.25886  0.53599  1.0000
  C   C1045     1.0  0.69279  0.35314  0.50267  1.0000
  C   C1046     1.0  0.71139  0.36710  0.50128  1.0000
  C   C1047     1.0  0.75909  0.38973  0.40320  1.0000
  C   C1048     1.0  0.76997  0.37040  0.38636  1.0000
  C   C1049     1.0  0.78125  0.37095  0.34459  1.0000
  C   C1050     1.0  0.78143  0.39071  0.31900  1.0000
  C   C1051     1.0  0.77036  0.40991  0.33524  1.0000
  C   C1052     1.0  0.75932  0.40950  0.37731  1.0000
  H   H834      1.0  0.78375  0.33595  0.56513  1.0000
  H   H835      1.0  0.75235  0.34901  0.51822  1.0000
  H   H836      1.0  0.70785  0.41440  0.42759  1.0000
  C   C1053     1.0  0.73087  0.38110  0.20640  1.0000
  H   H837      1.0  0.72335  0.36346  0.38785  1.0000
  C   C1054     1.0  0.92679  0.27115  0.30912  1.0000
  C   C1055     1.0  0.77515  0.27428  0.23339  1.0000
  P   P35       1.0  0.91225  0.26214  0.58679  1.0000
  H   H838      1.0  0.71683  0.37512  0.53219  1.0000
  H   H839      1.0  0.76995  0.35494  0.40580  1.0000
  H   H840      1.0  0.79002  0.35608  0.33250  1.0000
  H   H841      1.0  0.79030  0.39121  0.28689  1.0000
  H   H842      1.0  0.77061  0.42535  0.31580  1.0000
  H   H843      1.0  0.75133  0.42475  0.38959  1.0000
  C   C1056     1.0  0.90919  0.41399  0.14733  1.0000
  C   C1057     1.0  0.90299  0.40460  0.10591  1.0000
  C   C1058     1.0  0.88684  0.38785  0.10495  1.0000
  C   C1059     1.0  0.87698  0.38039  0.14540  1.0000
  C   C1060     1.0  0.88356  0.38936  0.18722  1.0000
  C   C1061     1.0  0.89943  0.40650  0.18785  1.0000
  P   P36       1.0  0.87081  0.38044  0.23983  1.0000
  C   C1062     1.0  0.85250  0.40321  0.25770  1.0000
  C   C1063     1.0  0.85586  0.35459  0.23289  1.0000
  C   C1064     1.0  0.83432  0.35205  0.25132  1.0000
  C   C1065     1.0  0.82379  0.33127  0.24926  1.0000
  C   C1066     1.0  0.83481  0.31278  0.22974  1.0000
  C   C1067     1.0  0.85634  0.31512  0.21174  1.0000
  C   C1068     1.0  0.86684  0.33593  0.21333  1.0000
  C   C1069     1.0  0.85808  0.41717  0.29419  1.0000
  C   C1070     1.0  0.84397  0.43506  0.30669  1.0000
  C   C1071     1.0  0.82424  0.43922  0.28303  1.0000
  C   C1072     1.0  0.81883  0.42576  0.24596  1.0000
  C   C1073     1.0  0.83300  0.40793  0.23307  1.0000
  C   C1074     1.0  0.89192  0.37320  0.28080  1.0000
  C   C1075     1.0  0.91371  0.36725  0.26669  1.0000
  C   C1076     1.0  0.92924  0.35925  0.29820  1.0000
  C   C1077     1.0  0.92308  0.35695  0.34388  1.0000
  C   C1078     1.0  0.90143  0.36276  0.35808  1.0000
  C   C1079     1.0  0.88588  0.37066  0.32660  1.0000
  H   H844      1.0  0.92150  0.42717  0.14804  1.0000
  H   H845      1.0  0.91058  0.41038  0.07452  1.0000
  H   H846      1.0  0.88194  0.38068  0.07278  1.0000
  H   H847      1.0  0.86426  0.36768  0.14378  1.0000
  H   H848      1.0  0.90423  0.41404  0.21974  1.0000
  H   H849      1.0  0.82606  0.36565  0.26941  1.0000
  H   H850      1.0  0.80756  0.32919  0.26505  1.0000
  H   H851      1.0  0.82697  0.29648  0.22996  1.0000
  H   H852      1.0  0.86523  0.30064  0.19790  1.0000
  H   H853      1.0  0.88379  0.33727  0.20050  1.0000
  H   H854      1.0  0.87328  0.41446  0.31313  1.0000
  H   H855      1.0  0.84828  0.44569  0.33508  1.0000
  H   H856      1.0  0.81329  0.45298  0.29346  1.0000
  H   H857      1.0  0.80371  0.42923  0.22718  1.0000
  H   H858      1.0  0.82877  0.39779  0.20396  1.0000
  H   H859      1.0  0.91852  0.36783  0.23120  1.0000
  H   H860      1.0  0.94573  0.35390  0.28680  1.0000
  H   H861      1.0  0.93483  0.35007  0.36808  1.0000
  H   H862      1.0  0.89642  0.36064  0.39332  1.0000
  H   H863      1.0  0.86894  0.37427  0.33787  1.0000
  C   C1080     1.0  0.89021  0.26697  0.67077  1.0000
  C   C1081     1.0  0.78473  0.35189  0.54742  1.0000
  C   C1082     1.0  0.73973  0.26633  0.98030  1.0000
  H   H864      1.0  0.68992  0.37639  0.32039  1.0000
  H   H865      1.0  0.69468  0.26645  0.19283  1.0000
  C   C1083     1.0  0.90433  0.33916  0.57616  1.0000
  C   C1084     1.0  0.98749  0.33774  0.32820  1.0000
  H   H866      1.0  0.98069  0.34739  0.35641  1.0000
  C   C1085     1.0  0.74505  0.42955  0.50870  1.0000
  H   H867      1.0  0.75984  0.42385  0.52621  1.0000
  C   C1086     1.0  0.83294  0.26057  0.57256  1.0000
  H   H868      1.0  0.72242  0.34050  0.28635  1.0000
  H   H869      1.0  0.68154  0.41536  0.11058  1.0000
  H   H870      1.0  0.67435  0.37891  0.18599  1.0000
  C   C1087     1.0  0.66638  0.42505  0.35883  1.0000
  C   C1088     1.0  0.73582  0.45054  0.52009  1.0000
  C   C1089     1.0  0.90450  0.25354  0.64372  1.0000
  H   H871      1.0  0.75448  0.30910  0.15209  1.0000
  C   C1090     1.0  0.77209  0.29366  0.20731  1.0000
  C   C1091     1.0  0.70656  0.44526  0.46520  1.0000
  H   H872      1.0  0.73976  0.37174  0.11288  1.0000
  H   H873      1.0  0.74376  0.46088  0.54534  1.0000
  C   C1092     1.0  0.70269  0.31238  0.07737  1.0000
  C   C1093     1.0  0.78851  0.39177  0.49816  1.0000
  H   H874      1.0  0.79044  0.40696  0.47840  1.0000
  C   C1094     1.0  0.73971  0.27078  0.06250  1.0000
  H   H875      1.0  0.68251  0.33886  0.04855  1.0000
  C   C1095     1.0  0.88585  0.32536  0.57115  1.0000
  C   C1096     1.0  0.82995  0.28369  0.63979  1.0000
  C   C1097     1.0  0.68996  0.41035  0.20270  1.0000
  H   H876      1.0  0.74481  0.42279  0.24421  1.0000
  C   C1098     1.0  0.80444  0.36417  0.54921  1.0000
  H   H877      1.0  0.76711  0.45721  0.24593  1.0000
  C   C1099     1.0  0.92537  0.32963  0.58450  1.0000
  H   H878      1.0  0.72592  0.43772  0.10628  1.0000
  C   C1100     1.0  0.80638  0.38404  0.52435  1.0000
  C   C1101     1.0  0.73118  0.35076  0.26166  1.0000
  H   H879      1.0  0.73324  0.36155  0.03324  1.0000
  H   H880      1.0  0.81850  0.35774  0.56843  1.0000
  C   C1102     1.0  0.76302  0.26494  0.97982  1.0000
  C   C1103     1.0  0.71661  0.45841  0.49830  1.0000
  H   H881      1.0  0.81812  0.47580  0.72523  1.0000
  H   H882      1.0  0.82199  0.39308  0.52410  1.0000
  C   C1104     1.0  0.66565  0.26018  0.76045  1.0000
  C   C1105     1.0  0.88502  0.26054  0.71530  1.0000
  C   C1106     1.0  0.68541  0.34298  0.46292  1.0000
  H   H883      1.0  0.78331  0.35880  0.21835  1.0000
  C   C1107     1.0  0.74812  0.46089  0.13763  1.0000
  C   C1108     1.0  0.75977  0.46649  0.17686  1.0000
  H   H884      1.0  0.70868  0.30345  0.19108  1.0000
  S   S149      1.0  0.97856  0.26692  0.07886  1.0000
  H   H885      1.0  0.94430  0.29931  0.59442  1.0000
  C   C1109     1.0  0.72561  0.37910  0.09562  1.0000
  H   H886      1.0  0.97151  0.31982  0.10680  1.0000
  H   H887      1.0  0.78665  0.27431  0.26167  1.0000
  P   P37       1.0  0.71636  0.40307  0.17555  1.0000
  C   C1110     1.0  0.75871  0.45255  0.21495  1.0000
  H   H888      1.0  0.69183  0.45144  0.44788  1.0000
  C   C1111     1.0  0.92791  0.30629  0.58774  1.0000
  C   C1112     1.0  0.71108  0.39426  0.11797  1.0000
  H   H889      1.0  0.82798  0.30007  0.65527  1.0000
  C   C1113     1.0  0.71954  0.36723  0.23733  1.0000
  H   H890      1.0  0.76314  0.33527  0.27433  1.0000
  C   C1114     1.0  0.72200  0.37330  0.05028  1.0000
  C   C1115     1.0  0.74599  0.43305  0.21391  1.0000
  H   H891      1.0  0.76308  0.38831  0.17593  1.0000
  C   C1116     1.0  0.75396  0.37781  0.19953  1.0000
  H   H892      1.0  0.70696  0.30583  0.04434  1.0000
  C   C1117     1.0  0.76550  0.36113  0.22347  1.0000
  C   C1118     1.0  0.95685  0.25479  0.60992  1.0000
  C   C1119     1.0  0.73402  0.42743  0.17489  1.0000
  Fe  Fe74      1.0  0.77940  0.49935  0.38800  1.0000
  H   H893      1.0  0.70980  0.47491  0.50628  1.0000
  C   C1120     1.0  0.70380  0.31132  0.15949  1.0000
  C   C1121     1.0  0.73520  0.44147  0.13662  1.0000
  H   H894      1.0  0.87384  0.27082  0.73594  1.0000
  C   C1122     1.0  0.75413  0.34776  0.25481  1.0000
  S   S150      1.0  0.76820  0.49598  0.31589  1.0000
  H   H895      1.0  0.90230  0.35722  0.57350  1.0000
  C   C1123     1.0  0.76320  0.26927  0.06160  1.0000
  C   C1124     1.0  0.68253  0.34045  0.12144  1.0000
  H   H896      1.0  0.67503  0.40451  0.03107  1.0000
  H   H897      1.0  0.74876  0.47188  0.10832  1.0000
  H   H898      1.0  0.68228  0.26638  0.76695  1.0000
  H   H899      1.0  0.99028  0.42094  0.17373  1.0000
  H   H900      1.0  0.83182  0.26617  0.70425  1.0000
  C   C1125     1.0  0.83212  0.26451  0.66768  1.0000
  C   C1126     1.0  0.69283  0.40340  0.09430  1.0000
  C   C1127     1.0  0.99550  0.33313  0.15336  1.0000
  C   C1128     1.0  0.70379  0.38245  0.02701  1.0000
  C   C1129     1.0  0.75675  0.29390  0.17181  1.0000
  H   H901      1.0  0.71000  0.26965  0.02079  1.0000
  C   C1130     1.0  0.66619  0.43660  0.24477  1.0000
  C   C1131     1.0  0.68887  0.33145  0.07949  1.0000
  C   C1132     1.0  0.77475  0.26628  0.02043  1.0000
  C   C1133     1.0  0.98863  0.32512  0.11120  1.0000
  H   H902      1.0  0.89858  0.27449  0.49432  1.0000
  C   C1134     1.0  0.74438  0.27464  0.16202  1.0000
  H   H903      1.0  0.77695  0.47391  0.73451  1.0000
  C   C1135     1.0  0.68668  0.43127  0.22396  1.0000
  C   C1136     1.0  0.74786  0.25507  0.18780  1.0000
  H   H904      1.0  0.69057  0.33916  0.39092  1.0000
  C   C1137     1.0  0.98185  0.31516  0.32340  1.0000
  C   C1138     1.0  0.72810  0.26905  0.02135  1.0000
  H   H905      1.0  0.87392  0.29160  0.56975  1.0000
  H   H906      1.0  0.70097  0.37787  0.99192  1.0000
  C   C1139     1.0  0.89107  0.25859  0.50309  1.0000
  P   P38       1.0  0.72471  0.27502  0.11582  1.0000
  H   H907      1.0  0.67116  0.33198  0.46390  1.0000
  H   H908      1.0  0.76928  0.48186  0.17812  1.0000
  C   C1140     1.0  0.80747  0.48828  0.70922  1.0000
  H   H909      1.0  0.68408  0.35017  0.53445  1.0000
  C   C1141     1.0  0.67227  0.39510  0.20205  1.0000
  H   H910      1.0  0.98332  0.33433  0.18073  1.0000
  C   C1142     1.0  0.69031  0.33063  0.16140  1.0000
  C   C1143     1.0  0.68917  0.39742  0.04909  1.0000
  H   H911      1.0  0.95216  0.25952  0.26126  1.0000
  H   H912      1.0  0.79284  0.26498  0.01980  1.0000
  H   H913      1.0  0.86947  0.33266  0.56479  1.0000
  H   H914      1.0  0.77202  0.26272  0.94792  1.0000
  C   C1144     1.0  0.88839  0.30205  0.57396  1.0000
  H   H915      1.0  0.68467  0.33701  0.19406  1.0000
  H   H916      1.0  0.88282  0.28228  0.65767  1.0000
  H   H917      1.0  0.97046  0.30734  0.34735  1.0000
  C   C1145     1.0  0.76306  0.25501  0.22360  1.0000
  C   C1146     1.0  0.69206  0.25361  0.16754  1.0000
  H   H918      1.0  0.73064  0.26524  0.94873  1.0000
  C   C1147     1.0  0.94092  0.25391  0.57526  1.0000
  H   H919      1.0  0.67105  0.35463  0.12290  1.0000
  H   H920      1.0  0.98610  0.28524  0.28294  1.0000
  C   C1148     1.0  0.70422  0.25348  0.12645  1.0000
  H   H921      1.0  0.95208  0.26034  0.64374  1.0000
  H   H922      1.0  0.67219  0.28919  0.63990  1.0000
  H   H923      1.0  0.92922  0.25713  0.33198  1.0000
  C   C1149     1.0  0.66804  0.40232  0.34615  1.0000
  H   H924      1.0  0.73529  0.26157  0.82343  1.0000
  C   C1150     1.0  0.99067  0.30267  0.28718  1.0000
  H   H925      1.0  0.87573  0.25536  0.43760  1.0000
  H   H926      1.0  0.99599  0.37999  0.16856  1.0000
  H   H927      1.0  0.69440  0.67557  0.35606  1.0000
  S   S151      1.0  0.96474  0.70785  0.08801  1.0000
  H   H928      1.0  0.93102  0.67368  0.08243  1.0000
  Fe  Fe75      1.0  0.71599  0.66317  0.72177  1.0000
  S   S152      1.0  0.74760  0.66040  0.68062  1.0000
  S   S153      1.0  0.71359  0.65101  0.79494  1.0000
  S   S154      1.0  0.72152  0.68851  0.60194  1.0000
  Fe  Fe76      1.0  0.72571  0.65223  0.62130  1.0000
  S   S155      1.0  0.73924  0.63109  0.56217  1.0000
  Fe  Fe77      1.0  0.74077  0.69649  0.66404  1.0000
  S   S156      1.0  0.77077  0.71848  0.66836  1.0000
  S   S157      1.0  0.69408  0.65176  0.66362  1.0000
  S   S158      1.0  0.71043  0.70000  0.70853  1.0000
  Fe  Fe78      1.0  0.83073  0.68860  0.07583  1.0000
  S   S159      1.0  0.81305  0.67716  0.13920  1.0000
  S   S160      1.0  0.85845  0.71451  0.07738  1.0000
  Fe  Fe79      1.0  0.79627  0.66653  0.01354  1.0000
  S   S161      1.0  0.77591  0.65311  0.07234  1.0000
  S   S162      1.0  0.79285  0.66404  0.93631  1.0000
  Fe  Fe80      1.0  0.78142  0.68699  0.10426  1.0000
  S   S163      1.0  0.75373  0.70316  0.14612  1.0000
  Fe  Fe81      1.0  0.80884  0.64405  0.10419  1.0000
  S   S164      1.0  0.81694  0.61257  0.14549  1.0000
  S   S165      1.0  0.79900  0.70119  0.04338  1.0000
  S   S166      1.0  0.82922  0.65472  0.04280  1.0000
  P   P39       1.0  0.75433  0.74317  0.45219  1.0000
  H   H929      1.0  0.68561  0.69748  0.49414  1.0000
  S   S167      1.0  0.71483  0.53614  0.47736  1.0000
  Fe  Fe82      1.0  0.75339  0.53077  0.32397  1.0000
  S   S168      1.0  0.74880  0.56018  0.27475  1.0000
  S   S169      1.0  0.76762  0.53550  0.39370  1.0000
  C   C1151     1.0  0.76816  0.57441  0.23920  1.0000
  C   C1152     1.0  0.76040  0.59236  0.21227  1.0000
  C   C1153     1.0  0.77506  0.60416  0.18333  1.0000
  C   C1154     1.0  0.79773  0.59816  0.18111  1.0000
  C   C1155     1.0  0.80552  0.58030  0.20828  1.0000
  C   C1156     1.0  0.79085  0.56850  0.23725  1.0000
  H   H930      1.0  0.74289  0.59708  0.21351  1.0000
  H   H931      1.0  0.76882  0.61781  0.16257  1.0000
  H   H932      1.0  0.82302  0.57554  0.20680  1.0000
  H   H933      1.0  0.79707  0.55475  0.25776  1.0000
  C   C1157     1.0  0.73083  0.60533  0.53801  1.0000
  C   C1158     1.0  0.71366  0.59240  0.55652  1.0000
  C   C1159     1.0  0.70873  0.57134  0.53737  1.0000
  C   C1160     1.0  0.72085  0.56309  0.49953  1.0000
  C   C1161     1.0  0.73735  0.57650  0.48005  1.0000
  C   C1162     1.0  0.74225  0.59749  0.49911  1.0000
  H   H934      1.0  0.70449  0.59839  0.58606  1.0000
  H   H935      1.0  0.69568  0.56125  0.55231  1.0000
  H   H936      1.0  0.74651  0.57063  0.45048  1.0000
  H   H937      1.0  0.75533  0.60750  0.48407  1.0000
  C   C1163     1.0  0.73550  0.65534  0.83430  1.0000
  C   C1164     1.0  0.75692  0.66143  0.81984  1.0000
  C   C1165     1.0  0.77416  0.66386  0.85166  1.0000
  C   C1166     1.0  0.77016  0.66082  0.89841  1.0000
  C   C1167     1.0  0.74865  0.65508  0.91304  1.0000
  C   C1168     1.0  0.73149  0.65214  0.88105  1.0000
  H   H938      1.0  0.76032  0.66391  0.78408  1.0000
  H   H939      1.0  0.79078  0.66801  0.84003  1.0000
  H   H940      1.0  0.74537  0.65253  0.94885  1.0000
  H   H941      1.0  0.71502  0.64733  0.89260  1.0000
  H   H942      1.0  0.91016  0.70976  0.16659  1.0000
  C   C1169     1.0  0.75136  0.73265  0.14690  1.0000
  H   H943      1.0  0.75281  0.61812  0.75488  1.0000
  H   H944      1.0  0.72480  0.53852  0.70386  1.0000
  C   C1170     1.0  0.73914  0.66000  0.29349  1.0000
  H   H945      1.0  0.71838  0.67331  0.18951  1.0000
  H   H946      1.0  0.69852  0.56184  0.30693  1.0000
  C   C1171     1.0  0.71132  0.65519  0.40655  1.0000
  H   H947      1.0  0.83492  0.50624  0.67921  1.0000
  C   C1172     1.0  0.93524  0.70957  0.08293  1.0000
  C   C1173     1.0  0.92417  0.73034  0.08118  1.0000
  C   C1174     1.0  0.90073  0.73141  0.07812  1.0000
  C   C1175     1.0  0.88799  0.71176  0.07779  1.0000
  C   C1176     1.0  0.89901  0.69090  0.07907  1.0000
  C   C1177     1.0  0.92258  0.68983  0.08131  1.0000
  C   C1178     1.0  0.81639  0.73630  0.26885  1.0000
  H   H948      1.0  0.83688  0.69118  0.94782  1.0000
  H   H949      1.0  0.88942  0.67563  0.07857  1.0000
  C   C1179     1.0  0.79261  0.65151  0.25077  1.0000
  C   C1180     1.0  0.79851  0.63274  0.27663  1.0000
  C   C1181     1.0  0.81685  0.63357  0.30540  1.0000
  C   C1182     1.0  0.82911  0.65328  0.30886  1.0000
  C   C1183     1.0  0.82284  0.67248  0.28409  1.0000
  C   C1184     1.0  0.80447  0.67148  0.25494  1.0000
  P   P40       1.0  0.84055  0.69673  0.28517  1.0000
  C   C1185     1.0  0.84258  0.70854  0.34162  1.0000
  C   C1186     1.0  0.86726  0.68653  0.26361  1.0000
  C   C1187     1.0  0.88715  0.69037  0.28712  1.0000
  C   C1188     1.0  0.90755  0.68197  0.27024  1.0000
  C   C1189     1.0  0.90824  0.66958  0.22992  1.0000
  C   C1190     1.0  0.88849  0.66527  0.20685  1.0000
  C   C1191     1.0  0.86807  0.67341  0.22390  1.0000
  C   C1192     1.0  0.85453  0.72846  0.34772  1.0000
  C   C1193     1.0  0.81693  0.50543  0.68331  1.0000
  C   C1194     1.0  0.89328  0.73575  0.20462  1.0000
  C   C1195     1.0  0.83079  0.71024  0.42090  1.0000
  C   C1196     1.0  0.83054  0.69960  0.37850  1.0000
  C   C1197     1.0  0.82981  0.71914  0.24959  1.0000
  H   H950      1.0  0.68820  0.73718  0.55444  1.0000
  H   H951      1.0  0.85446  0.73546  0.71063  1.0000
  C   C1198     1.0  0.68689  0.58129  0.41325  1.0000
  H   H952      1.0  0.89240  0.74760  0.07657  1.0000
  C   C1199     1.0  0.83577  0.72058  0.20345  1.0000
  H   H953      1.0  0.77938  0.65021  0.22608  1.0000
  H   H954      1.0  0.78936  0.61726  0.27317  1.0000
  H   H955      1.0  0.82200  0.61860  0.32359  1.0000
  H   H956      1.0  0.84389  0.65335  0.32980  1.0000
  H   H957      1.0  0.79976  0.68573  0.23410  1.0000
  H   H958      1.0  0.88706  0.69959  0.31858  1.0000
  H   H959      1.0  0.92293  0.68529  0.28800  1.0000
  H   H960      1.0  0.92408  0.66345  0.21631  1.0000
  H   H961      1.0  0.88896  0.65564  0.17556  1.0000
  H   H962      1.0  0.85292  0.66946  0.20582  1.0000
  C   C1200     1.0  0.80322  0.52152  0.66254  1.0000
  H   H963      1.0  0.75259  0.50207  0.69808  1.0000
  C   C1201     1.0  0.73771  0.66977  0.25035  1.0000
  H   H964      1.0  0.82145  0.70333  0.44929  1.0000
  H   H965      1.0  0.82059  0.68471  0.37461  1.0000
  C   C1202     1.0  0.77049  0.50328  0.69365  1.0000
  C   C1203     1.0  0.71945  0.53192  0.67150  1.0000
  H   H966      1.0  0.79655  0.51997  0.49251  1.0000
  H   H967      1.0  0.84295  0.73823  0.45947  1.0000
  H   H968      1.0  0.84586  0.70776  0.18695  1.0000
  H   H969      1.0  0.75822  0.66167  0.40763  1.0000
  H   H970      1.0  0.75118  0.67993  0.23714  1.0000
  H   H971      1.0  0.86330  0.73607  0.31930  1.0000
  C   C1204     1.0  0.79531  0.61803  0.40894  1.0000
  C   C1205     1.0  0.76500  0.72076  0.48754  1.0000
  C   C1206     1.0  0.75361  0.73408  0.39341  1.0000
  C   C1207     1.0  0.76923  0.71803  0.37737  1.0000
  C   C1208     1.0  0.77007  0.71223  0.33135  1.0000
  C   C1209     1.0  0.75563  0.72267  0.30069  1.0000
  C   C1210     1.0  0.71908  0.66610  0.22335  1.0000
  H   H972      1.0  0.71705  0.73169  0.16935  1.0000
  C   C1211     1.0  0.77874  0.72537  0.52469  1.0000
  C   C1212     1.0  0.78560  0.70803  0.55360  1.0000
  C   C1213     1.0  0.77864  0.68606  0.54597  1.0000
  C   C1214     1.0  0.76497  0.68135  0.50910  1.0000
  C   C1215     1.0  0.75800  0.69864  0.48020  1.0000
  H   H973      1.0  0.78942  0.58518  0.38087  1.0000
  C   C1216     1.0  0.68714  0.56685  0.37592  1.0000
  H   H974      1.0  0.78116  0.71036  0.40016  1.0000
  H   H975      1.0  0.78224  0.69998  0.31920  1.0000
  H   H976      1.0  0.75671  0.71873  0.26469  1.0000
  C   C1217     1.0  0.74347  0.58217  0.66740  1.0000
  C   C1218     1.0  0.68888  0.68863  0.42316  1.0000
  H   H977      1.0  0.73203  0.57998  0.63959  1.0000
  H   H978      1.0  0.79560  0.71177  0.58309  1.0000
  H   H979      1.0  0.78324  0.67279  0.56948  1.0000
  H   H980      1.0  0.75916  0.66439  0.50405  1.0000
  H   H981      1.0  0.74654  0.69492  0.45310  1.0000
  H   H982      1.0  0.79640  0.65215  0.43287  1.0000
  C   C1219     1.0  0.81379  0.69739  0.73157  1.0000
  C   C1220     1.0  0.83189  0.70762  0.70999  1.0000
  C   C1221     1.0  0.84027  0.72768  0.72707  1.0000
  C   C1222     1.0  0.83034  0.73767  0.76538  1.0000
  C   C1223     1.0  0.81170  0.72785  0.78636  1.0000
  C   C1224     1.0  0.80382  0.70735  0.76981  1.0000
  C   C1225     1.0  0.74070  0.60072  0.69607  1.0000
  C   C1226     1.0  0.74574  0.71340  0.90293  1.0000
  H   H983      1.0  0.95044  0.74469  0.26175  1.0000
  P   P41       1.0  0.79960  0.74059  0.83661  1.0000
  H   H984      1.0  0.77847  0.72371  0.92134  1.0000
  H   H985      1.0  0.74186  0.70721  0.93670  1.0000
  C   C1227     1.0  0.78258  0.60188  0.38703  1.0000
  H   H986      1.0  0.69743  0.61258  0.44030  1.0000
  H   H987      1.0  0.71685  0.59834  0.30135  1.0000
  H   H988      1.0  0.77328  0.58366  0.59194  1.0000
  P   P42       1.0  0.76240  0.54139  0.64014  1.0000
  C   C1228     1.0  0.73550  0.71856  0.82434  1.0000
  C   C1229     1.0  0.75650  0.72760  0.81496  1.0000
  C   C1230     1.0  0.82940  0.73929  0.17784  1.0000
  C   C1231     1.0  0.69795  0.67329  0.39172  1.0000
  H   H989      1.0  0.68883  0.63375  0.29564  1.0000
  H   H990      1.0  0.71430  0.70333  0.87488  1.0000
  C   C1232     1.0  0.71556  0.65286  0.45308  1.0000
  C   C1233     1.0  0.81918  0.73475  0.88150  1.0000
  H   H991      1.0  0.80713  0.68193  0.71824  1.0000
  H   H992      1.0  0.83937  0.69996  0.68006  1.0000
  C   C1234     1.0  0.85477  0.73903  0.39011  1.0000
  C   C1235     1.0  0.77987  0.52054  0.66746  1.0000
  H   H993      1.0  0.78991  0.69902  0.78595  1.0000
  C   C1236     1.0  0.79525  0.55590  0.50081  1.0000
  H   H994      1.0  0.73748  0.52221  0.56286  1.0000
  H   H995      1.0  0.72354  0.71655  0.79739  1.0000
  C   C1237     1.0  0.73427  0.53113  0.63415  1.0000
  C   C1238     1.0  0.76087  0.60710  0.37311  1.0000
  H   H996      1.0  0.67991  0.55032  0.37886  1.0000
  C   C1239     1.0  0.91172  0.72247  0.19252  1.0000
  C   C1240     1.0  0.82129  0.71283  0.89844  1.0000
  C   C1241     1.0  0.69755  0.52436  0.66731  1.0000
  H   H997      1.0  0.81083  0.53474  0.64264  1.0000
  C   C1242     1.0  0.75163  0.62856  0.38121  1.0000
  H   H998      1.0  0.72585  0.63912  0.46535  1.0000
  C   C1243     1.0  0.70774  0.60888  0.36973  1.0000
  Fe  Fe83      1.0  0.73542  0.52107  0.41902  1.0000
  C   C1244     1.0  0.69757  0.57334  0.33546  1.0000
  C   C1245     1.0  0.76062  0.56636  0.67507  1.0000
  H   H999      1.0  0.70928  0.66566  0.52022  1.0000
  C   C1246     1.0  0.72678  0.52261  0.59264  1.0000
  H   H1000     1.0  0.86025  0.72131  0.97982  1.0000
  H   H1001     1.0  0.91209  0.71448  0.41025  1.0000
  C   C1247     1.0  0.84776  0.74671  0.93401  1.0000
  C   C1248     1.0  0.73020  0.71126  0.86817  1.0000
  C   C1249     1.0  0.76481  0.64492  0.40191  1.0000
  H   H1002     1.0  0.75143  0.59415  0.35642  1.0000
  Fe  Fe84      1.0  0.98447  0.73916  0.10510  1.0000
  C   C1250     1.0  0.83591  0.70806  0.93399  1.0000
  H   H1003     1.0  0.81136  0.69944  0.88458  1.0000
  H   H1004     1.0  0.67959  0.57579  0.44513  1.0000
  H   H1005     1.0  0.75382  0.66288  0.31366  1.0000
  C   C1251     1.0  0.71621  0.73886  0.50780  1.0000
  C   C1252     1.0  0.70273  0.64354  0.28321  1.0000
  H   H1006     1.0  0.78863  0.55780  0.71835  1.0000
  H   H1007     1.0  0.78359  0.74238  0.53252  1.0000
  S   S170      1.0  0.72045  0.51741  0.34968  1.0000
  H   H1008     1.0  0.81117  0.73564  0.30407  1.0000
  C   C1253     1.0  0.78650  0.63962  0.41601  1.0000
  C   C1254     1.0  0.77245  0.72917  0.84943  1.0000
  P   P43       1.0  0.72292  0.63494  0.36668  1.0000
  C   C1255     1.0  0.91789  0.73146  0.40505  1.0000
  C   C1256     1.0  0.78886  0.57373  0.52916  1.0000
  Fe  Fe85      1.0  0.69120  0.68869  0.64767  1.0000
  C   C1257     1.0  0.75517  0.60380  0.73240  1.0000
  C   C1258     1.0  0.70155  0.65306  0.23984  1.0000
  C   C1259     1.0  0.69716  0.60220  0.41029  1.0000
  C   C1260     1.0  0.79168  0.53381  0.51470  1.0000
  H   H1009     1.0  0.67691  0.62616  0.52685  1.0000
  C   C1261     1.0  0.77854  0.56954  0.57112  1.0000
  C   C1262     1.0  0.70790  0.59419  0.33238  1.0000
  H   H1010     1.0  0.72721  0.61266  0.69037  1.0000
  C   C1263     1.0  0.70627  0.66803  0.48434  1.0000
  C   C1264     1.0  0.69292  0.68590  0.46952  1.0000
  H   H1011     1.0  0.81205  0.61382  0.42008  1.0000
  C   C1265     1.0  0.72180  0.64648  0.30995  1.0000
  C   C1266     1.0  0.78174  0.52954  0.55694  1.0000
  C   C1267     1.0  0.77528  0.56967  0.71140  1.0000
  H   H1012     1.0  0.78370  0.59081  0.76817  1.0000
  H   H1013     1.0  0.94662  0.71567  0.20293  1.0000
  C   C1268     1.0  0.76672  0.72248  0.89379  1.0000
  C   C1269     1.0  0.70485  0.51507  0.58858  1.0000
  C   C1270     1.0  0.84290  0.72993  0.42669  1.0000
  C   C1271     1.0  0.77498  0.54737  0.58542  1.0000
  C   C1272     1.0  0.77253  0.58836  0.73988  1.0000
  H   H1014     1.0  0.66778  0.66012  0.57269  1.0000
  H   H1015     1.0  0.72349  0.72348  0.52081  1.0000
  H   H1016     1.0  0.79140  0.59087  0.51822  1.0000
  C   C1273     1.0  0.93220  0.72568  0.21343  1.0000
  H   H1017     1.0  0.90704  0.73290  0.33592  1.0000
  H   H1018     1.0  0.87782  0.73380  0.18653  1.0000
  H   H1019     1.0  0.80278  0.55913  0.46787  1.0000
  C   C1274     1.0  0.84902  0.72503  0.95203  1.0000
  H   H1020     1.0  0.76053  0.73269  0.78051  1.0000
  C   C1275     1.0  0.73895  0.74428  0.36237  1.0000
  H   H1021     1.0  0.78514  0.73914  0.12501  1.0000
  C   C1276     1.0  0.76946  0.74653  0.65055  1.0000
  C   C1277     1.0  0.74002  0.73856  0.31625  1.0000
  C   C1278     1.0  0.73092  0.74233  0.16041  1.0000
  H   H1022     1.0  0.77917  0.51229  0.56721  1.0000
  H   H1023     1.0  0.83460  0.74068  0.14264  1.0000
  H   H1024     1.0  0.69907  0.50909  0.55603  1.0000
  C   C1279     1.0  0.69024  0.51595  0.62582  1.0000
  H   H1025     1.0  0.73584  0.74579  0.62502  1.0000
  H   H1026     1.0  0.67319  0.51035  0.62232  1.0000
  C   C1280     1.0  0.69610  0.74656  0.52717  1.0000
  H   H1027     1.0  0.68617  0.52522  0.69614  1.0000
  H   H1028     1.0  0.93084  0.73459  0.47280  1.0000
  H   H1029     1.0  0.67904  0.73751  0.23870  1.0000
  H   H1030     1.0  0.67855  0.70253  0.41163  1.0000
  C   C1281     1.0  0.92843  0.74278  0.44030  1.0000
  C   C1282     1.0  0.91508  0.74192  0.36292  1.0000
  H   H1031     1.0  0.72912  0.74684  0.29213  1.0000
  H   H1032     1.0  0.68712  0.65020  0.21878  1.0000
  C   C1283     1.0  0.93428  0.74230  0.24654  1.0000
  C   C1284     1.0  0.76927  0.74654  0.13528  1.0000
  H   H1033     1.0  0.93374  0.74556  0.08255  1.0000
  Fe  Fe86      1.0  0.97899  0.78810  0.12713  1.0000
  C   C1285     1.0  0.75033  0.75603  0.63086  1.0000
  S   S171      1.0  0.95478  0.81775  0.13219  1.0000
  Fe  Fe87      1.0  0.71258  0.85968  0.51711  1.0000
  S   S172      1.0  0.73563  0.87285  0.57067  1.0000
  S   S173      1.0  0.71254  0.86794  0.44191  1.0000
  Fe  Fe88      1.0  0.73662  0.83684  0.59371  1.0000
  S   S174      1.0  0.76911  0.82104  0.61508  1.0000
  Fe  Fe89      1.0  0.70490  0.87581  0.61518  1.0000
  S   S175      1.0  0.69390  0.90140  0.66870  1.0000
  S   S176      1.0  0.71576  0.82350  0.53753  1.0000
  S   S177      1.0  0.68135  0.86592  0.55928  1.0000
  Fe  Fe90      1.0  0.82337  0.82729  0.16225  1.0000
  S   S178      1.0  0.79833  0.83712  0.10915  1.0000
  S   S179      1.0  0.85032  0.80101  0.14826  1.0000
  Fe  Fe91      1.0  0.79712  0.85168  0.23860  1.0000
  S   S180      1.0  0.77039  0.86403  0.19120  1.0000
  S   S181      1.0  0.79865  0.85381  0.31566  1.0000
  Fe  Fe92      1.0  0.77251  0.82911  0.16214  1.0000
  S   S182      1.0  0.74154  0.80892  0.15132  1.0000
  Fe  Fe93      1.0  0.79852  0.87129  0.14189  1.0000
  S   S183      1.0  0.80404  0.90257  0.09834  1.0000
  S   S184      1.0  0.79724  0.81648  0.21239  1.0000
  S   S185      1.0  0.82554  0.86178  0.19214  1.0000
  C   C1286     1.0  0.80289  0.78951  0.42568  1.0000
  H   H1034     1.0  0.82935  0.96178  0.91316  1.0000
  H   H1035     1.0  0.88000  0.86832  0.85613  1.0000
  H   H1036     1.0  0.83274  0.87031  0.70402  1.0000
  S   S186      1.0  0.75459  0.97452  0.76428  1.0000
  C   C1287     1.0  0.92433  0.78433  0.02182  1.0000
  C   C1288     1.0  0.78378  0.91728  0.06565  1.0000
  C   C1289     1.0  0.79000  0.93711  0.04308  1.0000
  C   C1290     1.0  0.77465  0.94910  0.01597  1.0000
  C   C1291     1.0  0.75271  0.94163  0.01190  1.0000
  C   C1292     1.0  0.74645  0.92184  0.03459  1.0000
  C   C1293     1.0  0.76191  0.90964  0.06111  1.0000
  H   H1037     1.0  0.80677  0.94334  0.04679  1.0000
  H   H1038     1.0  0.77964  0.96437  0.99898  1.0000
  H   H1039     1.0  0.72948  0.91602  0.03186  1.0000
  H   H1040     1.0  0.75685  0.89449  0.07844  1.0000
  C   C1294     1.0  0.74595  0.77966  0.14997  1.0000
  C   C1295     1.0  0.68301  0.77057  0.26708  1.0000
  C   C1296     1.0  0.79261  0.77914  0.78403  1.0000
  H   H1041     1.0  0.83128  0.75410  0.06346  1.0000
  C   C1297     1.0  0.67964  0.79375  0.26086  1.0000
  C   C1298     1.0  0.71161  0.92068  0.69620  1.0000
  C   C1299     1.0  0.70366  0.93198  0.73519  1.0000
  C   C1300     1.0  0.71676  0.94821  0.75691  1.0000
  C   C1301     1.0  0.73789  0.95345  0.73956  1.0000
  C   C1302     1.0  0.74600  0.94188  0.70102  1.0000
  C   C1303     1.0  0.73297  0.92552  0.67948  1.0000
  H   H1042     1.0  0.68714  0.92840  0.74831  1.0000
  H   H1043     1.0  0.71027  0.95703  0.78641  1.0000
  H   H1044     1.0  0.76231  0.94585  0.68727  1.0000
  H   H1045     1.0  0.73924  0.91703  0.64939  1.0000
  C   C1304     1.0  0.76868  0.79225  0.62750  1.0000
  C   C1305     1.0  0.74985  0.77905  0.61969  1.0000
  H   H1046     1.0  0.85958  0.90953  0.85955  1.0000
  C   C1306     1.0  0.87051  0.85442  0.86960  1.0000
  H   H1047     1.0  0.73494  0.78657  0.60542  1.0000
  H   H1048     1.0  0.78652  0.80459  0.01186  1.0000
  C   C1307     1.0  0.73657  0.86367  0.40725  1.0000
  C   C1308     1.0  0.73478  0.86596  0.35988  1.0000
  C   C1309     1.0  0.75357  0.86266  0.33130  1.0000
  C   C1310     1.0  0.77441  0.85750  0.34999  1.0000
  C   C1311     1.0  0.77619  0.85529  0.39735  1.0000
  C   C1312     1.0  0.75732  0.85809  0.42586  1.0000
  H   H1049     1.0  0.71883  0.87038  0.34521  1.0000
  H   H1050     1.0  0.75200  0.86448  0.29494  1.0000
  H   H1051     1.0  0.79229  0.85153  0.41203  1.0000
  H   H1052     1.0  0.75891  0.85638  0.46227  1.0000
  C   C1313     1.0  0.92589  0.81285  0.13974  1.0000
  C   C1314     1.0  0.91103  0.83121  0.14402  1.0000
  C   C1315     1.0  0.88780  0.82790  0.14722  1.0000
  C   C1316     1.0  0.87927  0.80619  0.14535  1.0000
  C   C1317     1.0  0.89415  0.78785  0.14205  1.0000
  C   C1318     1.0  0.91738  0.79110  0.14003  1.0000
  H   H1053     1.0  0.91751  0.84807  0.14446  1.0000
  H   H1054     1.0  0.87650  0.84210  0.15075  1.0000
  H   H1055     1.0  0.88763  0.77103  0.14115  1.0000
  H   H1056     1.0  0.92863  0.77679  0.13758  1.0000
  C   C1319     1.0  0.86161  0.82925  0.93208  1.0000
  C   C1320     1.0  0.84361  0.80319  0.00972  1.0000
  C   C1321     1.0  0.91519  0.77380  0.94501  1.0000
  C   C1322     1.0  0.66883  0.80145  0.22163  1.0000
  H   H1057     1.0  0.94436  0.77336  0.46072  1.0000
  H   H1058     1.0  0.91494  0.87591  0.06067  1.0000
  C   C1323     1.0  0.89394  0.85169  0.02826  1.0000
  C   C1324     1.0  0.85540  0.84333  0.84191  1.0000
  H   H1059     1.0  0.86351  0.77640  0.03997  1.0000
  H   H1060     1.0  0.75942  0.80937  0.39270  1.0000
  C   C1325     1.0  0.79013  0.78423  0.86559  1.0000
  Fe  Fe94      1.0  0.73898  0.98588  0.93159  1.0000
  C   C1326     1.0  0.93321  0.77513  0.39144  1.0000
  H   H1061     1.0  0.88631  0.90117  0.92075  1.0000
  H   H1062     1.0  0.80853  0.92382  0.96033  1.0000
  C   C1327     1.0  0.84690  0.78267  0.03240  1.0000
  H   H1063     1.0  0.80919  0.82052  0.46086  1.0000
  H   H1064     1.0  0.90771  0.84454  0.00873  1.0000
  C   C1328     1.0  0.78381  0.81587  0.81530  1.0000
  H   H1065     1.0  0.85136  0.90685  0.71500  1.0000
  H   H1066     1.0  0.90172  0.80737  0.05476  1.0000
  H   H1067     1.0  0.80116  0.95085  0.78050  1.0000
  P   P44       1.0  0.69023  0.81323  0.30217  1.0000
  C   C1329     1.0  0.67603  0.83022  0.38594  1.0000
  C   C1330     1.0  0.71901  0.80548  0.31255  1.0000
  C   C1331     1.0  0.72894  0.80968  0.35462  1.0000
  C   C1332     1.0  0.75168  0.80509  0.36081  1.0000
  C   C1333     1.0  0.76467  0.79641  0.32507  1.0000
  C   C1334     1.0  0.75479  0.79184  0.28337  1.0000
  C   C1335     1.0  0.73212  0.79640  0.27710  1.0000
  Fe  Fe95      1.0  0.74588  0.99329  0.82987  1.0000
  C   C1336     1.0  0.89657  0.78828  0.94639  1.0000
  H   H1068     1.0  0.79050  0.77746  0.89978  1.0000
  H   H1069     1.0  0.77948  0.83342  0.81042  1.0000
  H   H1070     1.0  0.79461  0.76847  0.75446  1.0000
  C   C1337     1.0  0.69010  0.84128  0.27854  1.0000
  S   S187      1.0  0.97578  0.75722  0.16993  1.0000
  H   H1071     1.0  0.96662  0.76897  0.32105  1.0000
  C   C1338     1.0  0.77244  0.76715  0.45599  1.0000
  C   C1339     1.0  0.70773  0.87020  0.23275  1.0000
  C   C1340     1.0  0.70776  0.84841  0.25040  1.0000
  H   H1072     1.0  0.88041  0.76200  0.24701  1.0000
  H   H1073     1.0  0.83823  0.84610  0.05007  1.0000
  C   C1341     1.0  0.81951  0.99901  0.82825  1.0000
  P   P45       1.0  0.86724  0.81895  0.98867  1.0000
  H   H1074     1.0  0.69031  0.90198  0.22942  1.0000
  H   H1075     1.0  0.78250  0.79403  0.32917  1.0000
  H   H1076     1.0  0.76470  0.78556  0.25506  1.0000
  H   H1077     1.0  0.72513  0.79373  0.24380  1.0000
  H   H1078     1.0  0.68740  0.84386  0.37934  1.0000
  C   C1342     1.0  0.68651  0.76677  0.51268  1.0000
  H   H1079     1.0  0.79664  0.87953  0.82937  1.0000
  C   C1343     1.0  0.87369  0.84738  0.91445  1.0000
  C   C1344     1.0  0.76664  0.77010  0.13751  1.0000
  H   H1080     1.0  0.70333  0.75332  0.68177  1.0000
  H   H1081     1.0  0.72154  0.87565  0.21154  1.0000
  H   H1082     1.0  0.72169  0.83736  0.24203  1.0000
  C   C1345     1.0  0.79919  0.80549  0.45977  1.0000
  C   C1346     1.0  0.87238  0.84271  0.02541  1.0000
  H   H1083     1.0  0.73750  0.75725  0.72786  1.0000
  H   H1084     1.0  0.93521  0.78303  0.05094  1.0000
  C   C1347     1.0  0.78514  0.80702  0.85919  1.0000
  C   C1348     1.0  0.81067  0.98451  0.79597  1.0000
  H   H1085     1.0  0.77950  0.81467  0.51872  1.0000
  C   C1349     1.0  0.85498  0.85252  0.05122  1.0000
  H   H1086     1.0  0.81872  0.82709  0.98615  1.0000
  H   H1087     1.0  0.84294  0.92979  0.78287  1.0000
  C   C1350     1.0  0.67378  0.84257  0.83310  1.0000
  C   C1351     1.0  0.82167  0.81104  0.00243  1.0000
  C   C1352     1.0  0.80339  0.79830  0.01662  1.0000
  C   C1353     1.0  0.71715  0.77175  0.45946  1.0000
  C   C1354     1.0  0.76257  0.85987  0.71056  1.0000
  C   C1355     1.0  0.76305  0.88189  0.72677  1.0000
  C   C1356     1.0  0.74957  0.88822  0.76362  1.0000
  C   C1357     1.0  0.73532  0.87265  0.78380  1.0000
  C   C1358     1.0  0.73463  0.85041  0.76771  1.0000
  C   C1359     1.0  0.74845  0.84414  0.73086  1.0000
  P   P46       1.0  0.71474  0.83101  0.79210  1.0000
  C   C1360     1.0  0.72343  0.82217  0.84829  1.0000
  C   C1361     1.0  0.68847  0.84613  0.79638  1.0000
  C   C1362     1.0  0.81688  0.75661  0.19772  1.0000
  C   C1363     1.0  0.89811  0.86965  0.05742  1.0000
  C   C1364     1.0  0.84676  0.81793  0.90369  1.0000
  H   H1088     1.0  0.79277  0.76776  0.04932  1.0000
  C   C1365     1.0  0.68278  0.86205  0.76312  1.0000
  C   C1366     1.0  0.73284  0.83757  0.87857  1.0000
  C   C1367     1.0  0.73877  0.83088  0.92246  1.0000
  C   C1368     1.0  0.73555  0.80873  0.93644  1.0000
  C   C1369     1.0  0.72611  0.79332  0.90675  1.0000
  C   C1370     1.0  0.71978  0.80005  0.86316  1.0000
  C   C1371     1.0  0.71134  0.80675  0.75581  1.0000
  C   C1372     1.0  0.69215  0.80441  0.72917  1.0000
  C   C1373     1.0  0.80686  0.77766  0.03812  1.0000
  C   C1374     1.0  0.70555  0.76813  0.70262  1.0000
  C   C1375     1.0  0.72478  0.77037  0.72864  1.0000
  C   C1376     1.0  0.72774  0.78963  0.75494  1.0000
  H   H1089     1.0  0.77262  0.85522  0.68116  1.0000
  H   H1090     1.0  0.77343  0.89424  0.71005  1.0000
  H   H1091     1.0  0.74943  0.90551  0.77522  1.0000
  H   H1092     1.0  0.72411  0.87837  0.81061  1.0000
  H   H1093     1.0  0.74781  0.82747  0.71633  1.0000
  H   H1094     1.0  0.66626  0.81923  0.21567  1.0000
  H   H1095     1.0  0.87403  0.90301  0.00128  1.0000
  H   H1096     1.0  0.84568  0.87799  0.10002  1.0000
  H   H1097     1.0  0.83228  0.81609  0.83706  1.0000
  H   H1098     1.0  0.69364  0.86487  0.73404  1.0000
  H   H1099     1.0  0.73537  0.85484  0.86889  1.0000
  H   H1100     1.0  0.74574  0.84290  0.94585  1.0000
  H   H1101     1.0  0.74010  0.80358  0.97052  1.0000
  H   H1102     1.0  0.72343  0.77617  0.91774  1.0000
  H   H1103     1.0  0.71181  0.78793  0.84150  1.0000
  C   C1377     1.0  0.66535  0.76313  0.19511  1.0000
  S   S188      1.0  0.98636  0.77020  0.06124  1.0000
  C   C1378     1.0  0.67212  0.85611  0.28743  1.0000
  H   H1104     1.0  0.81257  0.77130  0.17781  1.0000
  H   H1105     1.0  0.74268  0.79106  0.77495  1.0000
  C   C1379     1.0  0.86734  0.81954  0.26656  1.0000
  C   C1380     1.0  0.85763  0.82522  0.30834  1.0000
  C   C1381     1.0  0.86661  0.81656  0.34841  1.0000
  C   C1382     1.0  0.88525  0.80210  0.34668  1.0000
  C   C1383     1.0  0.89504  0.79619  0.30465  1.0000
  C   C1384     1.0  0.88603  0.80527  0.26478  1.0000
  P   P47       1.0  0.91913  0.77744  0.30152  1.0000
  C   C1385     1.0  0.94432  0.79253  0.28719  1.0000
  H   H1106     1.0  0.78618  0.80861  0.74353  1.0000
  C   C1386     1.0  0.88072  0.87912  0.08331  1.0000
  H   H1107     1.0  0.88394  0.89283  0.10643  1.0000
  H   H1108     1.0  0.78207  0.81775  0.88833  1.0000
  H   H1109     1.0  0.71957  0.81740  0.38218  1.0000
  C   C1387     1.0  0.93606  0.76462  0.43350  1.0000
  C   C1388     1.0  0.85915  0.87070  0.07981  1.0000
  H   H1110     1.0  0.83504  0.91392  0.02082  1.0000
  C   C1389     1.0  0.78789  0.78245  0.64592  1.0000
  C   C1390     1.0  0.96321  0.82252  0.24668  1.0000
  C   C1391     1.0  0.94350  0.81184  0.25980  1.0000
  H   H1111     1.0  0.80311  0.75232  0.67225  1.0000
  H   H1112     1.0  0.91888  0.76399  0.91481  1.0000
  C   C1392     1.0  0.78240  0.80223  0.49230  1.0000
  H   H1113     1.0  0.88605  0.78953  0.91686  1.0000
  S   S189      1.0  0.71525  0.98809  0.87271  1.0000
  H   H1114     1.0  0.93921  0.79208  0.38662  1.0000
  H   H1115     1.0  0.86037  0.82623  0.23542  1.0000
  H   H1116     1.0  0.84327  0.83649  0.30957  1.0000
  H   H1117     1.0  0.85917  0.82130  0.38076  1.0000
  H   H1118     1.0  0.89191  0.79577  0.37819  1.0000
  H   H1119     1.0  0.89343  0.80114  0.23220  1.0000
  H   H1120     1.0  0.71213  0.77303  0.17051  1.0000
  H   H1121     1.0  0.75625  0.78098  0.51640  1.0000
  C   C1393     1.0  0.69689  0.77920  0.47844  1.0000
  H   H1122     1.0  0.80249  0.79255  0.65164  1.0000
  S   S190      1.0  0.70793  0.84068  0.64209  1.0000
  C   C1394     1.0  0.78826  0.75971  0.65746  1.0000
  H   H1123     1.0  0.80570  0.85666  0.76160  1.0000
  C   C1395     1.0  0.90546  0.79835  0.02371  1.0000
  H   H1124     1.0  0.96245  0.83696  0.22430  1.0000
  H   H1125     1.0  0.92788  0.81846  0.24722  1.0000
  H   H1126     1.0  0.67939  0.81742  0.72808  1.0000
  H   H1127     1.0  0.85312  0.84872  0.80709  1.0000
  Fe  Fe96      1.0  0.68636  0.83064  0.58376  1.0000
  H   H1128     1.0  0.72558  0.78235  0.43508  1.0000
  H   H1129     1.0  0.80058  0.76858  0.25839  1.0000
  C   C1396     1.0  0.74412  0.92730  0.87260  1.0000
  C   C1397     1.0  0.73935  0.91096  0.90516  1.0000
  C   C1398     1.0  0.75660  0.89770  0.92290  1.0000
  C   C1399     1.0  0.77866  0.90098  0.90850  1.0000
  C   C1400     1.0  0.78375  0.91826  0.87765  1.0000
  C   C1401     1.0  0.76619  0.93091  0.85884  1.0000
  P   P48       1.0  0.81238  0.92343  0.86046  1.0000
  C   C1402     1.0  0.81564  0.95297  0.84760  1.0000
  C   C1403     1.0  0.83172  0.91633  0.90521  1.0000
  C   C1404     1.0  0.82521  0.91813  0.95105  1.0000
  C   C1405     1.0  0.84032  0.91289  0.98549  1.0000
  C   C1406     1.0  0.86227  0.90665  0.97450  1.0000
  C   C1407     1.0  0.86913  0.90555  0.92908  1.0000
  C   C1408     1.0  0.85390  0.91027  0.89450  1.0000
  C   C1409     1.0  0.82451  0.96770  0.87992  1.0000
  H   H1130     1.0  0.81575  0.79226  0.40017  1.0000
  H   H1131     1.0  0.83784  0.80346  0.91599  1.0000
  H   H1132     1.0  0.68978  0.79520  0.46821  1.0000
  C   C1410     1.0  0.80876  0.96161  0.80551  1.0000
  C   C1411     1.0  0.81895  0.90651  0.81103  1.0000
  C   C1412     1.0  0.80873  0.88563  0.80492  1.0000
  C   C1413     1.0  0.81387  0.87256  0.76663  1.0000
  C   C1414     1.0  0.82913  0.88024  0.73415  1.0000
  C   C1415     1.0  0.83958  0.90084  0.74028  1.0000
  C   C1416     1.0  0.83463  0.91388  0.77867  1.0000
  H   H1133     1.0  0.73081  0.93781  0.85923  1.0000
  H   H1134     1.0  0.72239  0.90917  0.91770  1.0000
  H   H1135     1.0  0.75295  0.88554  0.94917  1.0000
  H   H1136     1.0  0.79175  0.89050  0.92266  1.0000
  H   H1137     1.0  0.76938  0.94399  0.83430  1.0000
  C   C1417     1.0  0.92910  0.77186  0.98271  1.0000
  H   H1138     1.0  0.88577  0.85592  0.93510  1.0000
  C   C1418     1.0  0.84359  0.82502  0.85888  1.0000
  C   C1419     1.0  0.81017  0.75502  0.24309  1.0000
  C   C1420     1.0  0.76914  0.78311  0.49066  1.0000
  H   H1139     1.0  0.94351  0.76062  0.98188  1.0000
  H   H1140     1.0  0.78044  0.78088  0.12877  1.0000
  C   C1421     1.0  0.68932  0.78515  0.70278  1.0000
  S   S191      1.0  0.73239  0.95670  0.98012  1.0000
  C   C1422     1.0  0.78763  0.80194  0.77772  1.0000
  C   C1423     1.0  0.72813  0.76570  0.16114  1.0000
  C   C1424     1.0  0.89159  0.80070  0.98586  1.0000
  C   C1425     1.0  0.78965  0.77034  0.42384  1.0000
  C   C1426     1.0  0.89511  0.75213  0.23828  1.0000
  C   C1427     1.0  0.98490  0.79492  0.28787  1.0000
  H   H1141     1.0  0.80446  0.99114  0.76412  1.0000
  C   C1428     1.0  0.96527  0.78416  0.30106  1.0000
  C   C1429     1.0  0.69009  0.88501  0.24273  1.0000
  H   H1142     1.0  0.67768  0.83022  0.85890  1.0000
  C   C1430     1.0  0.79433  0.77021  0.82806  1.0000
  C   C1431     1.0  0.92282  0.76379  0.35576  1.0000
  H   H1143     1.0  0.83270  0.76818  0.88418  1.0000
  C   C1432     1.0  0.98389  0.81399  0.26042  1.0000
  H   H1144     1.0  0.67459  0.78348  0.68195  1.0000
  H   H1145     1.0  0.85817  0.75966  0.94788  1.0000
  H   H1146     1.0  0.69143  0.76437  0.29703  1.0000
  C   C1433     1.0  0.82858  0.76992  0.04611  1.0000
  S   S192      1.0  0.76970  0.98948  0.88825  1.0000
  C   C1434     1.0  0.67224  0.87794  0.26988  1.0000
  H   H1147     1.0  0.67125  0.77300  0.52869  1.0000
  C   C1435     1.0  0.67593  0.75533  0.23426  1.0000
  C   C1436     1.0  0.67389  0.81279  0.35429  1.0000
  H   H1148     1.0  0.66550  0.84384  0.45051  1.0000
  C   C1437     1.0  0.91582  0.75589  0.25891  1.0000
  H   H1149     1.0  0.72710  0.75706  0.37319  1.0000
  C   C1438     1.0  0.72701  0.75148  0.47384  1.0000
  H   H1150     1.0  0.79265  0.75833  0.39686  1.0000
  C   C1439     1.0  0.82648  0.99059  0.87014  1.0000
  C   C1440     1.0  0.83306  0.75153  0.89850  1.0000
  H   H1151     1.0  0.86398  0.75443  0.39442  1.0000
  H   H1152     1.0  0.83715  0.75307  0.77860  1.0000
