data_image0
_chemical_formula_structural       HCFeSFeSFeSFeS3FeS2FeSCFe2S2HC3PCFeSFeSC2HC2H2C2HCHCHC2HSHCHCHCH2C4H2C6H4C6H4C4H2C2HCHCHC3H2CHC8H2SHC3HCHCHFeCSPC4HC2H3CH2C3H2C3HC2PC7HSC10SH5CHCH2CH3C3HC3SC3HC2H2C2HC5H7CHCH3CH5CH2CPC2HC3HC2H5SCSC2SC2PCHCHCHC4SCH3C2HC2HC2HC4H3CFeH2C5HCH3CH2PHCH3CHCH2C4H2C3FeH5C2FeCHCH2C2H2S2C2H2C2H3CHC2H5CH3CHFeCH2CH2CFeCSFeCSFe2S2CHCHC4H5C3H2CHC2H3C2HC3HCSHFeS2FeS2Fe2S2HCHC3H3C3H2SC2HC7H4C2SHCH2C2H2SCHC6PC18H17SH2C5H3CSCH2C3HCSCH2C2H3SHC3H2C6PC4HCHC7H2C2HCH4SCH6C2HCH2C5HC2FeSCSCSCSHCH3C3HC3SCHC4HCH2CPCPHFeHC7SHC7HC2SCH2CH2CHC2SH2C3HCHC4HC2H3CH4FeH2C3FeHC2PH2CH2C3H4PC3HCHCSFeSC2FeC3HC3HSFeSFeSFeSCSCFeSCFeHSFe2S2C6H5C4H2CHSFeH2C2H2CHCHCHC7H4SC2H2C3HCHCH2C2S2HCHPH3C2H2C2H2C2HCHC2H3CHC2HCH2CHC2HC2H3CHC2HC2S2HCHCHC2HC3FeHC5HC6PC3HPC13H6CH11C3H3CHC3HCH2C2PHCHCHSC7H4CSFeCH3PHCHSCH3CSHC2SC3H3CH2SC2H5CH2C3H3C6HCHC2HC3HC2H2CPCHCH3CHCH2C4H2C5H2CH2CHSCHC2HCH2C3HCHFeHSC2H2C2HCH2C2HSCHC2SC3HC4HCH3C4HC3HCH2CH3C3H4SC3HC3H2CHSHCHFeC2H2SH2FeC3HCHC10HCH4CHCHCHC2SHCHCH4CPH7CHCH2CHSCH2C2HC5H6SPCSHCH2CH4CH2SCH3C4HSCHS3C3HCHC2HCHFe2CH3C2HCH2C5H2C2H2C2HC2HCH2CHCHSC3HCHC5HC3H2CPCH2CHSC3H2C3FeC2HSCH3CH2SH3FeH2CH5FePCHC3SCH3C2H2C2H4C4H5C2HC3FeH2PHCSC2H2CHCH3CH2CH4CSC4H4C3H2C7H3CH3CHCPSHSC3HFeHCH2CHCHCH2CH4CH2C2SH2CHFeC2H3SHC4H2FeC2HSHSC2PCH5C3H2SCHCSCSHC5HCHCPH2C7H2CHC3HSHSFeC5HC2HC3HCHCH6C2H4C2H4CFeHCH2CH2CHC2H3C2H2CHC2H2C2H2C3H4C2FeHSC2HCHC4SCH2CSHCH4C4HC2H3CPSC2HCHCHCHC2HC3H2CPH2C2H2C3HC6H2C2SCFeHC2H5CSHSFeCH3C3HCHC2H5CFeHFeSFeS2CSCFeSFeSFeSFeS2PH2CHFeSH2FeS2CFeH2FeC2HSC7H5C2HCHC5HSCH2CH3C6H6C2HC3SC2H4C2H3C3HSC4HSHPHCHCSH3CHCHCH4C7PCH3CH2C2HC2H2CHCH6CHC2H3C2HCFeCH3C2HFeC2HC2HCH2C2HC11HC2H3C2HPCH2C7PC4HC13H3SC5FeC3HSHCSCHCPHC2HC2HCSHC2H2CH2C4HC3HCHCHCSC2HCH3C2PC3H2CH2CHCHC2H2C2H2C2HSCHC2H2SC2H2CHFeC3H2CH5C2HCSHCHCH2CFeHC2HCHSH2C4SC3HC3PCHCH2CFeSFeSFeSFeS3PC2H3C3H6CHCHC3H2CHCH4C2H4FeSHSFeSFeS2CHSH2C2SC3H2C3H2C6H3CPH2C2H2C4HC2HCSHC4H2C3HPC18H3CH8CHCHC7H7CHCH3C3H2C2FeHCHC2H3CH2C12HCH3CH2C4HC2HC3HC2S2C2HC2H2CH2C8SPCHPC2HSH4C2H2C2HC10HC2SCHCH2CH3FeHCHCHSCFeC3HC4H2C4HC2PCH5C5FeCHSCH2C7H7C3H2CSCH2C3HC3SC4FeH3C2HC2SH2C2HCH2C2HC3HCHFeH2CS2FeSFeSFeSFeS2HCFeSFeSCSC3HC2HFeSFeSFeSFeS3CHC2HC8H5C3H2C6H4CHC7H2C2HC3H2CHCHC2H4C6PC18H6C2H3CH8C6PC16HCH22C6PC3H2C4H5CH3CH2C2HCHCH5C2SHC3HC3HCH2PCHSCHC3SH3CSCH2CSC4FeC3HSH2C3H2C2HC5HC3PH2CHPH2CHCH2C3H3S2H4CHC10H2CH4CHC2HC3HC4HCHCH2C2H3CHCH
_chemical_formula_sum              "H1152 C1440 Fe96 S192 P48"
_cell_length_a       40.3798
_cell_length_b       40.191
_cell_length_c       48.2144
_cell_angle_alpha    90.2328
_cell_angle_beta     90.1578
_cell_angle_gamma    89.9575

_space_group_name_H-M_alt    "P 1"
_space_group_IT_number       1

loop_
  _space_group_symop_operation_xyz
  'x, y, z'

loop_
  _atom_site_type_symbol
  _atom_site_label
  _atom_site_symmetry_multiplicity
  _atom_site_fract_x
  _atom_site_fract_y
  _atom_site_fract_z
  _atom_site_occupancy
  H   H1        1.0  0.14719  0.35273  0.21305  1.0000
  C   C1        1.0  0.07974  0.43317  0.07531  1.0000
  Fe  Fe1       1.0  0.28908  0.43736  0.17257  1.0000
  S   S1        1.0  0.27164  0.38601  0.16051  1.0000
  Fe  Fe2       1.0  0.22647  0.44863  0.21083  1.0000
  S   S2        1.0  0.20613  0.39845  0.20036  1.0000
  Fe  Fe3       1.0  0.25812  0.38009  0.20535  1.0000
  S   S3        1.0  0.26480  0.33315  0.23008  1.0000
  Fe  Fe4       1.0  0.22126  0.40930  0.15675  1.0000
  S   S4        1.0  0.18388  0.39998  0.12277  1.0000
  S   S5        1.0  0.27847  0.42959  0.21848  1.0000
  S   S6        1.0  0.23884  0.46122  0.16620  1.0000
  Fe  Fe5       1.0  0.10698  0.23766  0.07862  1.0000
  S   S7        1.0  0.06113  0.26100  0.09611  1.0000
  S   S8        1.0  0.15855  0.24797  0.09498  1.0000
  Fe  Fe6       1.0  0.06763  0.19868  0.03610  1.0000
  S   S9        1.0  0.01873  0.21929  0.05038  1.0000
  C   C2        1.0  0.10351  0.34588  0.32549  1.0000
  Fe  Fe7       1.0  0.04560  0.26876  0.05128  1.0000
  Fe  Fe8       1.0  0.03904  0.20923  0.09352  1.0000
  S   S10       1.0  0.09312  0.24821  0.03456  1.0000
  S   S11       1.0  0.08614  0.18580  0.07862  1.0000
  H   H2        1.0  0.26506  0.14475  0.05323  1.0000
  C   C3        1.0  0.01166  0.14607  0.14498  1.0000
  C   C4        1.0  0.05393  0.34490  0.15963  1.0000
  C   C5        1.0  0.36940  0.14804  0.12330  1.0000
  P   P1        1.0  0.37548  0.04534  0.27170  1.0000
  C   C6        1.0  0.31962  0.19622  0.20364  1.0000
  Fe  Fe9       1.0  0.45770  0.19797  0.30299  1.0000
  S   S12       1.0  0.40528  0.21293  0.29337  1.0000
  Fe  Fe10      1.0  0.42638  0.26387  0.28700  1.0000
  S   S13       1.0  0.41476  0.29667  0.25065  1.0000
  C   C7        1.0  0.30056  0.16283  0.08335  1.0000
  C   C8        1.0  0.40389  0.22693  0.06106  1.0000
  H   H3        1.0  0.40938  0.09940  0.07194  1.0000
  C   C9        1.0  0.27972  0.02078  0.25236  1.0000
  C   C10       1.0  0.12009  0.40358  0.17563  1.0000
  H   H4        1.0  0.05293  0.02184  0.09076  1.0000
  H   H5        1.0  0.06561  0.38411  0.32679  1.0000
  C   C11       1.0  0.34501  0.19977  0.15805  1.0000
  C   C12       1.0  0.36631  0.25015  0.10580  1.0000
  H   H6        1.0  0.38532  0.05211  0.21151  1.0000
  C   C13       1.0  0.37172  0.08759  0.12316  1.0000
  H   H7        1.0  0.00903  0.32162  0.28931  1.0000
  C   C14       1.0  0.37002  0.22007  0.16940  1.0000
  H   H8        1.0  0.19580  0.31608  0.20788  1.0000
  C   C15       1.0  0.47804  0.12828  0.25588  1.0000
  C   C16       1.0  0.42538  0.01168  0.24304  1.0000
  H   H9        1.0  0.34843  0.30130  0.03244  1.0000
  S   S14       1.0  0.40522  0.01898  0.08182  1.0000
  H   H10       1.0  0.98839  0.41879  0.05849  1.0000
  C   C17       1.0  0.39469  0.46407  0.12304  1.0000
  H   H11       1.0  0.09531  0.41401  0.06626  1.0000
  C   C18       1.0  0.19261  0.12158  0.32305  1.0000
  H   H12       1.0  0.37551  0.11767  0.28230  1.0000
  C   C19       1.0  0.31330  0.04919  0.29730  1.0000
  H   H13       1.0  0.15230  0.03443  0.31253  1.0000
  H   H14       1.0  0.05503  0.10600  0.03629  1.0000
  C   C20       1.0  0.33123  0.03895  0.27386  1.0000
  C   C21       1.0  0.02884  0.11980  0.13235  1.0000
  C   C22       1.0  0.02847  0.08765  0.14422  1.0000
  C   C23       1.0  0.38098  0.08103  0.24946  1.0000
  H   H15       1.0  0.04233  0.12418  0.11336  1.0000
  H   H16       1.0  0.04206  0.06775  0.13434  1.0000
  C   C24       1.0  0.17718  0.35770  0.11509  1.0000
  C   C25       1.0  0.14849  0.34822  0.10067  1.0000
  C   C26       1.0  0.14256  0.31456  0.09450  1.0000
  C   C27       1.0  0.16562  0.29032  0.10229  1.0000
  C   C28       1.0  0.19457  0.29986  0.11633  1.0000
  C   C29       1.0  0.20015  0.33344  0.12304  1.0000
  H   H17       1.0  0.13070  0.36687  0.09442  1.0000
  H   H18       1.0  0.12024  0.30743  0.08354  1.0000
  H   H19       1.0  0.21240  0.28120  0.12249  1.0000
  H   H20       1.0  0.22227  0.34056  0.13420  1.0000
  C   C30       1.0  0.30648  0.32383  0.23669  1.0000
  C   C31       1.0  0.33164  0.34296  0.22489  1.0000
  C   C32       1.0  0.36490  0.33488  0.22997  1.0000
  C   C33       1.0  0.37305  0.30778  0.24678  1.0000
  C   C34       1.0  0.34795  0.28934  0.25939  1.0000
  C   C35       1.0  0.31463  0.29718  0.25412  1.0000
  H   H21       1.0  0.32548  0.36389  0.21181  1.0000
  H   H22       1.0  0.38442  0.34979  0.22113  1.0000
  H   H23       1.0  0.35422  0.26875  0.27279  1.0000
  H   H24       1.0  0.29517  0.28263  0.26352  1.0000
  C   C36       1.0  0.43180  0.08080  0.33623  1.0000
  C   C37       1.0  0.06167  0.36123  0.13475  1.0000
  C   C38       1.0  0.14682  0.44332  0.30408  1.0000
  C   C39       1.0  0.16871  0.44792  0.28154  1.0000
  H   H25       1.0  0.15103  0.42293  0.31820  1.0000
  H   H26       1.0  0.18953  0.43131  0.27872  1.0000
  C   C40       1.0  0.13742  0.34592  0.28382  1.0000
  C   C41       1.0  0.04280  0.35551  0.11082  1.0000
  H   H27       1.0  0.47251  0.44666  0.18651  1.0000
  C   C42       1.0  0.39405  0.05114  0.30556  1.0000
  H   H28       1.0  0.38864  0.33683  0.05334  1.0000
  C   C43       1.0  0.02738  0.32229  0.15994  1.0000
  H   H29       1.0  0.13938  0.25076  0.15508  1.0000
  C   C44       1.0  0.04115  0.08889  0.04912  1.0000
  C   C45       1.0  0.04000  0.04143  0.07976  1.0000
  C   C46       1.0  0.05339  0.31205  0.26577  1.0000
  H   H30       1.0  0.41670  0.27833  0.05446  1.0000
  H   H31       1.0  0.28311  0.22015  0.13365  1.0000
  C   C47       1.0  0.46807  0.00751  0.02728  1.0000
  H   H32       1.0  0.05507  0.01408  0.33393  1.0000
  C   C48       1.0  0.36865  0.21581  0.10075  1.0000
  C   C49       1.0  0.16449  0.47479  0.26348  1.0000
  C   C50       1.0  0.40285  0.26096  0.06708  1.0000
  C   C51       1.0  0.24817  0.20107  0.10408  1.0000
  C   C52       1.0  0.05375  0.44689  0.05986  1.0000
  C   C53       1.0  0.12908  0.33195  0.30943  1.0000
  C   C54       1.0  0.30573  0.18322  0.10672  1.0000
  C   C55       1.0  0.24296  0.17987  0.08146  1.0000
  H   H33       1.0  0.32673  0.11555  0.11923  1.0000
  H   H34       1.0  0.00206  0.32850  0.09272  1.0000
  S   S15       1.0  0.19376  0.48409  0.23666  1.0000
  H   H35       1.0  0.38314  0.29891  0.09410  1.0000
  C   C56       1.0  0.34487  0.40200  0.02702  1.0000
  C   C57       1.0  0.36939  0.42631  0.28529  1.0000
  C   C58       1.0  0.07069  0.31854  0.24126  1.0000
  H   H36       1.0  0.32719  0.01827  0.23244  1.0000
  C   C59       1.0  0.26226  0.02999  0.27620  1.0000
  H   H37       1.0  0.38785  0.17811  0.07278  1.0000
  C   C60       1.0  0.02218  0.32614  0.27012  1.0000
  H   H38       1.0  0.41833  0.21793  0.04365  1.0000
  Fe  Fe11      1.0  0.45095  0.99862  0.10543  1.0000
  C   C61       1.0  0.00597  0.04593  0.08366  1.0000
  S   S16       1.0  0.41800  0.28109  0.33064  1.0000
  P   P2        1.0  0.34649  0.18665  0.12215  1.0000
  C   C62       1.0  0.41029  0.47117  0.09740  1.0000
  C   C63       1.0  0.45461  0.45071  0.20288  1.0000
  C   C64       1.0  0.33875  0.41045  0.28127  1.0000
  C   C65       1.0  0.27948  0.20300  0.11654  1.0000
  H   H39       1.0  0.38502  0.16578  0.25167  1.0000
  C   C66       1.0  0.40601  0.08877  0.12721  1.0000
  C   C67       1.0  0.42201  0.11944  0.12958  1.0000
  H   H40       1.0  0.42023  0.06590  0.12857  1.0000
  H   H41       1.0  0.44855  0.12023  0.13314  1.0000
  H   H42       1.0  0.35622  0.33517  0.31003  1.0000
  C   C68       1.0  0.15957  0.21086  0.32714  1.0000
  H   H43       1.0  0.21859  0.17842  0.07191  1.0000
  H   H44       1.0  0.13334  0.08221  0.28437  1.0000
  C   C69       1.0  0.09343  0.38631  0.28906  1.0000
  C   C70       1.0  0.33393  0.37789  0.29055  1.0000
  C   C71       1.0  0.38266  0.35821  0.04077  1.0000
  H   H45       1.0  0.23571  0.02617  0.27729  1.0000
  H   H46       1.0  0.06245  0.40693  0.22716  1.0000
  C   C72       1.0  0.38380  0.03163  0.32807  1.0000
  C   C73       1.0  0.99431  0.10736  0.18177  1.0000
  C   C74       1.0  0.09475  0.44655  0.21602  1.0000
  H   H47       1.0  0.32550  0.06098  0.31469  1.0000
  C   C75       1.0  0.35103  0.37280  0.04218  1.0000
  C   C76       1.0  0.01109  0.08099  0.16889  1.0000
  P   P3        1.0  0.32038  0.35662  0.06604  1.0000
  C   C77       1.0  0.30573  0.31534  0.05702  1.0000
  C   C78       1.0  0.33872  0.35560  0.10023  1.0000
  C   C79       1.0  0.36461  0.37752  0.10702  1.0000
  C   C80       1.0  0.37921  0.37654  0.13328  1.0000
  C   C81       1.0  0.36777  0.35418  0.15312  1.0000
  C   C82       1.0  0.34152  0.33281  0.14683  1.0000
  C   C83       1.0  0.32693  0.33354  0.12049  1.0000
  H   H48       1.0  0.46548  0.33966  0.26513  1.0000
  S   S17       1.0  0.09285  0.45713  0.33752  1.0000
  C   C84       1.0  0.35786  0.03454  0.04229  1.0000
  C   C85       1.0  0.08598  0.44445  0.10227  1.0000
  C   C86       1.0  0.27494  0.30434  0.06707  1.0000
  C   C87       1.0  0.28495  0.38399  0.06675  1.0000
  C   C88       1.0  0.26066  0.38160  0.04593  1.0000
  C   C89       1.0  0.23287  0.40237  0.04656  1.0000
  C   C90       1.0  0.22945  0.42596  0.06771  1.0000
  C   C91       1.0  0.25378  0.42881  0.08822  1.0000
  C   C92       1.0  0.28140  0.40785  0.08785  1.0000
  C   C93       1.0  0.27908  0.04423  0.29863  1.0000
  S   S18       1.0  0.03083  0.32114  0.03590  1.0000
  H   H49       1.0  0.37321  0.39592  0.09232  1.0000
  H   H50       1.0  0.39883  0.39383  0.13844  1.0000
  H   H51       1.0  0.37883  0.35394  0.17354  1.0000
  H   H52       1.0  0.33200  0.31629  0.16266  1.0000
  H   H53       1.0  0.30621  0.31728  0.11628  1.0000
  C   C94       1.0  0.20370  0.09413  0.33845  1.0000
  H   H54       1.0  0.12694  0.38494  0.25446  1.0000
  C   C95       1.0  0.40026  0.44070  0.22222  1.0000
  H   H55       1.0  0.25957  0.32050  0.07973  1.0000
  H   H56       1.0  0.09085  0.28721  0.15956  1.0000
  C   C96       1.0  0.04013  0.48324  0.09839  1.0000
  H   H57       1.0  0.43701  0.47199  0.09611  1.0000
  H   H58       1.0  0.25079  0.44681  0.10481  1.0000
  H   H59       1.0  0.29971  0.41029  0.10417  1.0000
  C   C97       1.0  0.17303  0.22630  0.27177  1.0000
  C   C98       1.0  0.14772  0.24297  0.28581  1.0000
  C   C99       1.0  0.14098  0.23521  0.31346  1.0000
  H   H60       1.0  0.43747  0.03561  0.24120  1.0000
  C   C100      1.0  0.18533  0.19427  0.31329  1.0000
  C   C101      1.0  0.19164  0.20190  0.28537  1.0000
  C   C102      1.0  0.05762  0.06301  0.06262  1.0000
  S   S19       1.0  0.99513  0.01673  0.26648  1.0000
  C   C103      1.0  0.12022  0.45721  0.19867  1.0000
  C   C104      1.0  0.46254  0.47088  0.22564  1.0000
  C   C105      1.0  0.39041  0.37613  0.30730  1.0000
  H   H61       1.0  0.38849  0.46130  0.33250  1.0000
  C   C106      1.0  0.15312  0.08564  0.29937  1.0000
  C   C107      1.0  0.16734  0.11708  0.30330  1.0000
  H   H62       1.0  0.36505  0.01262  0.32531  1.0000
  H   H63       1.0  0.39536  0.10049  0.18190  1.0000
  C   C108      1.0  0.11946  0.46457  0.30839  1.0000
  C   C109      1.0  0.32023  0.18732  0.17556  1.0000
  H   H64       1.0  0.26662  0.00996  0.23486  1.0000
  C   C110      1.0  0.25143  0.16617  0.31796  1.0000
  C   C111      1.0  0.26858  0.13844  0.30752  1.0000
  C   C112      1.0  0.30046  0.14211  0.29673  1.0000
  C   C113      1.0  0.31560  0.17335  0.29656  1.0000
  C   C114      1.0  0.29879  0.20105  0.30696  1.0000
  H   H65       1.0  0.42875  0.08910  0.29254  1.0000
  H   H66       1.0  0.17821  0.23222  0.25028  1.0000
  H   H67       1.0  0.13327  0.26177  0.27515  1.0000
  H   H68       1.0  0.14293  0.31067  0.31659  1.0000
  H   H69       1.0  0.23968  0.26415  0.06867  1.0000
  H   H70       1.0  0.21099  0.18901  0.27408  1.0000
  H   H71       1.0  0.41714  0.42007  0.18360  1.0000
  C   C115      1.0  0.40382  0.14895  0.12773  1.0000
  H   H72       1.0  0.31094  0.22512  0.30749  1.0000
  C   C116      1.0  0.34093  0.46973  0.10175  1.0000
  H   H73       1.0  0.15819  0.13772  0.29116  1.0000
  H   H74       1.0  0.32141  0.41488  0.02853  1.0000
  H   H75       1.0  0.34349  0.22418  0.23626  1.0000
  C   C117      1.0  0.26918  0.16091  0.07098  1.0000
  H   H76       1.0  0.31424  0.47014  0.10322  1.0000
  H   H77       1.0  0.06584  0.26747  0.33590  1.0000
  H   H78       1.0  0.25758  0.11397  0.30763  1.0000
  H   H79       1.0  0.31364  0.12058  0.28899  1.0000
  H   H80       1.0  0.34064  0.17600  0.28898  1.0000
  C   C118      1.0  0.06618  0.46945  0.11381  1.0000
  H   H81       1.0  0.02173  0.30813  0.17838  1.0000
  H   H82       1.0  0.39039  0.22872  0.15680  1.0000
  C   C119      1.0  0.09458  0.39250  0.19301  1.0000
  P   P4        1.0  0.37705  0.46743  0.27165  1.0000
  C   C120      1.0  0.11526  0.32280  0.18677  1.0000
  C   C121      1.0  0.34397  0.21726  0.21453  1.0000
  H   H83       1.0  0.19713  0.04196  0.34727  1.0000
  C   C122      1.0  0.37905  0.00961  0.05273  1.0000
  C   C123      1.0  0.17257  0.30954  0.19787  1.0000
  C   C124      1.0  0.14502  0.33041  0.20057  1.0000
  H   H84       1.0  0.41057  0.36250  0.31690  1.0000
  C   C125      1.0  0.42262  0.10618  0.05335  1.0000
  C   C126      1.0  0.14082  0.27274  0.16818  1.0000
  H   H85       1.0  0.12130  0.24797  0.32431  1.0000
  H   H86       1.0  0.99312  0.02954  0.09772  1.0000
  H   H87       1.0  0.41665  0.17247  0.13001  1.0000
  H   H88       1.0  0.35797  0.05888  0.05188  1.0000
  H   H89       1.0  0.35953  0.06363  0.12119  1.0000
  S   S20       1.0  0.01051  0.03916  0.18185  1.0000
  C   C127      1.0  0.31405  0.02540  0.25111  1.0000
  S   S21       1.0  0.01002  0.18706  0.13030  1.0000
  C   C128      1.0  0.39520  0.00882  0.25726  1.0000
  C   C129      1.0  0.01294  0.27139  0.33850  1.0000
  S   S22       1.0  0.34150  0.45430  0.15867  1.0000
  C   C130      1.0  0.11979  0.37330  0.27378  1.0000
  C   C131      1.0  0.39526  0.40874  0.29816  1.0000
  P   P5        1.0  0.07984  0.35004  0.19005  1.0000
  C   C132      1.0  0.38477  0.14089  0.24311  1.0000
  H   H90       1.0  0.46676  0.39773  0.24842  1.0000
  C   C133      1.0  0.00949  0.99703  0.01839  1.0000
  H   H91       1.0  0.32070  0.14840  0.07463  1.0000
  C   C134      1.0  0.17046  0.28073  0.18165  1.0000
  H   H92       1.0  0.13095  0.38696  0.16043  1.0000
  C   C135      1.0  0.26670  0.19758  0.31735  1.0000
  C   C136      1.0  0.08538  0.37279  0.31483  1.0000
  C   C137      1.0  0.35335  0.11710  0.12157  1.0000
  C   C138      1.0  0.32487  0.29361  0.04074  1.0000
  S   S23       1.0  0.47454  0.14536  0.29011  1.0000
  C   C139      1.0  0.37968  0.11348  0.26038  1.0000
  H   H93       1.0  0.19201  0.26499  0.17897  1.0000
  H   H94       1.0  0.47071  0.09985  0.07199  1.0000
  H   H95       1.0  0.37844  0.15816  0.33764  1.0000
  C   C140      1.0  0.26363  0.27225  0.06101  1.0000
  C   C141      1.0  0.41916  0.07479  0.30968  1.0000
  H   H96       1.0  0.37619  0.42882  0.22053  1.0000
  C   C142      1.0  0.40768  0.46153  0.24484  1.0000
  C   C143      1.0  0.08178  0.41446  0.21312  1.0000
  H   H97       1.0  0.40979  0.45952  0.14116  1.0000
  C   C144      1.0  0.11332  0.29369  0.17063  1.0000
  C   C145      1.0  0.01612  0.33346  0.11149  1.0000
  H   H98       1.0  0.41923  0.42020  0.30097  1.0000
  C   C146      1.0  0.38673  0.20441  0.07773  1.0000
  C   C147      1.0  0.04534  0.28284  0.34253  1.0000
  C   C148      1.0  0.00796  0.34628  0.24975  1.0000
  C   C149      1.0  0.31369  0.26133  0.03505  1.0000
  H   H99       1.0  0.31038  0.36561  0.28695  1.0000
  H   H100      1.0  0.08416  0.06011  0.06017  1.0000
  H   H101      1.0  0.01391  0.36868  0.20970  1.0000
  C   C150      1.0  0.47372  0.35941  0.27881  1.0000
  Fe  Fe12      1.0  0.99528  0.00763  0.21993  1.0000
  H   H102      1.0  0.09503  0.30779  0.23855  1.0000
  H   H103      1.0  0.30033  0.18675  0.21704  1.0000
  C   C151      1.0  0.05682  0.33926  0.22090  1.0000
  C   C152      1.0  0.35985  0.46300  0.12547  1.0000
  C   C153      1.0  0.36921  0.22910  0.19746  1.0000
  C   C154      1.0  0.38396  0.27256  0.08938  1.0000
  C   C155      1.0  0.16388  0.05860  0.31518  1.0000
  H   H104      1.0  0.35129  0.25962  0.12267  1.0000
  C   C156      1.0  0.39057  0.13622  0.21485  1.0000
  H   H105      1.0  0.20755  0.44153  0.06869  1.0000
  H   H106      1.0  0.99490  0.11358  0.04209  1.0000
  H   H107      1.0  0.22781  0.21614  0.11180  1.0000
  C   C157      1.0  0.39063  0.10414  0.20370  1.0000
  H   H108      1.0  0.38827  0.24517  0.20613  1.0000
  H   H109      1.0  0.04934  0.36738  0.09145  1.0000
  P   P6        1.0  0.20939  0.16238  0.33041  1.0000
  H   H110      1.0  0.04975  0.43838  0.03877  1.0000
  C   C158      1.0  0.98920  0.07193  0.07020  1.0000
  H   H111      1.0  0.31869  0.42266  0.27046  1.0000
  H   H112      1.0  0.08273  0.37766  0.13344  1.0000
  H   H113      1.0  0.30148  0.17052  0.16758  1.0000
  C   C159      1.0  0.38542  0.07667  0.22078  1.0000
  H   H114      1.0  0.39544  0.15739  0.20164  1.0000
  C   C160      1.0  0.13267  0.43584  0.17833  1.0000
  H   H115      1.0  0.00741  0.02373  0.02070  1.0000
  H   H116      1.0  0.08553  0.46304  0.23211  1.0000
  C   C161      1.0  0.00706  0.09325  0.05270  1.0000
  C   C162      1.0  0.28306  0.25069  0.04510  1.0000
  C   C163      1.0  0.47487  0.14786  0.23208  1.0000
  C   C164      1.0  0.02508  0.35266  0.22516  1.0000
  H   H117      1.0  0.15794  0.33597  0.27191  1.0000
  H   H118      1.0  0.26569  0.05141  0.31720  1.0000
  C   C165      1.0  0.42352  0.43559  0.20124  1.0000
  C   C166      1.0  0.35975  0.36071  0.30350  1.0000
  C   C167      1.0  0.33600  0.02809  0.01988  1.0000
  Fe  Fe13      1.0  0.40245  0.22821  0.33807  1.0000
  H   H119      1.0  0.08012  0.40797  0.28160  1.0000
  H   H120      1.0  0.10651  0.43412  0.11404  1.0000
  H   H121      1.0  0.07138  0.47846  0.13460  1.0000
  H   H122      1.0  0.37826  0.11273  0.02990  1.0000
  H   H123      1.0  0.15284  0.44394  0.16518  1.0000
  C   C168      1.0  0.40497  0.11364  0.02923  1.0000
  C   C169      1.0  0.03341  0.47167  0.07142  1.0000
  Fe  Fe14      1.0  0.46946  0.26282  0.33885  1.0000
  C   C170      1.0  0.18921  0.06284  0.33467  1.0000
  H   H124      1.0  0.00859  0.24724  0.32908  1.0000
  C   C171      1.0  0.43916  0.47634  0.24657  1.0000
  H   H125      1.0  0.35569  0.10102  0.33979  1.0000
  H   H126      1.0  0.06442  0.29652  0.28157  1.0000
  C   C172      1.0  0.00846  0.31678  0.13601  1.0000
  C   C173      1.0  0.45718  0.10599  0.05321  1.0000
  H   H127      1.0  0.25396  0.21936  0.32523  1.0000
  H   H128      1.0  0.26298  0.36343  0.02940  1.0000
  S   S24       1.0  0.45300  0.99797  0.15244  1.0000
  S   S25       1.0  0.47927  0.24865  0.29403  1.0000
  C   C174      1.0  0.07928  0.00446  0.33925  1.0000
  C   C175      1.0  0.47471  0.39219  0.26938  1.0000
  H   H129      1.0  0.46154  0.02410  0.04417  1.0000
  H   H130      1.0  0.21371  0.39993  0.03092  1.0000
  C   C176      1.0  0.35649  0.47729  0.07624  1.0000
  C   C177      1.0  0.99436  0.13950  0.16975  1.0000
  H   H131      1.0  0.47790  0.14934  0.18737  1.0000
  H   H132      1.0  0.45002  0.10032  0.33919  1.0000
  H   H133      1.0  0.13137  0.19189  0.01926  1.0000
  C   C178      1.0  0.47420  0.11289  0.02871  1.0000
  H   H134      1.0  0.13086  0.48180  0.20139  1.0000
  C   C179      1.0  0.39128  0.47816  0.07374  1.0000
  C   C180      1.0  0.40731  0.37204  0.02403  1.0000
  H   H135      1.0  0.27426  0.22581  0.04048  1.0000
  H   H136      1.0  0.31318  0.48339  0.29648  1.0000
  H   H137      1.0  0.43185  0.36108  0.02323  1.0000
  H   H138      1.0  0.98847  0.29880  0.13622  1.0000
  H   H139      1.0  0.46958  0.17414  0.23417  1.0000
  C   C181      1.0  0.98607  0.29119  0.34645  1.0000
  H   H140      1.0  0.32878  0.24453  0.02283  1.0000
  H   H141      1.0  0.34136  0.48299  0.05833  1.0000
  H   H142      1.0  0.98376  0.35728  0.25315  1.0000
  C   C182      1.0  0.47959  0.13367  0.20550  1.0000
  H   H143      1.0  0.46236  0.98633  0.21858  1.0000
  Fe  Fe15      1.0  0.22294  0.41062  0.65743  1.0000
  C   C183      1.0  0.13219  0.46565  0.59917  1.0000
  H   H144      1.0  0.42023  0.42297  0.40148  1.0000
  H   H145      1.0  0.06561  0.33372  0.41530  1.0000
  C   C184      1.0  0.34584  0.17736  0.36914  1.0000
  H   H146      1.0  0.44314  0.31766  0.38959  1.0000
  H   H147      1.0  0.99927  0.42852  0.60427  1.0000
  C   C185      1.0  0.17845  0.15986  0.41126  1.0000
  Fe  Fe16      1.0  0.22993  0.08129  0.45796  1.0000
  C   C186      1.0  0.98858  0.13224  0.45708  1.0000
  S   S26       1.0  0.22135  0.12293  0.48869  1.0000
  Fe  Fe17      1.0  0.26758  0.06009  0.40615  1.0000
  C   C187      1.0  0.22212  0.14240  0.64246  1.0000
  S   S27       1.0  0.30197  0.07268  0.37079  1.0000
  Fe  Fe18      1.0  0.20048  0.02844  0.41902  1.0000
  Fe  Fe19      1.0  0.26372  0.01384  0.45598  1.0000
  S   S28       1.0  0.21693  0.08145  0.41275  1.0000
  S   S29       1.0  0.28245  0.06560  0.45062  1.0000
  C   C188      1.0  0.32012  0.11244  0.37171  1.0000
  H   H148      1.0  0.06734  0.37779  0.45110  1.0000
  C   C189      1.0  0.07486  0.05969  0.43918  1.0000
  H   H149      1.0  0.00659  0.34200  0.59428  1.0000
  C   C190      1.0  0.32113  0.16944  0.38837  1.0000
  C   C191      1.0  0.30830  0.13701  0.38972  1.0000
  C   C192      1.0  0.28508  0.00076  0.56488  1.0000
  C   C193      1.0  0.99936  0.33357  0.45240  1.0000
  H   H150      1.0  0.31148  0.18866  0.40186  1.0000
  H   H151      1.0  0.28863  0.13126  0.40412  1.0000
  H   H152      1.0  0.11964  0.18846  0.64372  1.0000
  H   H153      1.0  0.39268  0.22059  0.44488  1.0000
  H   H154      1.0  0.38862  0.04733  0.66693  1.0000
  C   C194      1.0  0.17967  0.13419  0.49352  1.0000
  C   C195      1.0  0.15458  0.11962  0.47753  1.0000
  C   C196      1.0  0.12159  0.12993  0.48091  1.0000
  H   H155      1.0  0.16063  0.10061  0.46240  1.0000
  H   H156      1.0  0.10229  0.11883  0.46834  1.0000
  C   C197      1.0  0.99530  0.16115  0.47259  1.0000
  H   H157      1.0  0.38775  0.02316  0.37202  1.0000
  C   C198      1.0  0.23430  0.18189  0.38248  1.0000
  C   C199      1.0  0.33940  0.00120  0.64967  1.0000
  H   H158      1.0  0.25816  0.03793  0.64936  1.0000
  H   H159      1.0  0.00038  0.41576  0.46911  1.0000
  H   H160      1.0  0.00032  0.15999  0.49461  1.0000
  C   C200      1.0  0.45915  0.43218  0.37199  1.0000
  C   C201      1.0  0.00637  0.34319  0.63896  1.0000
  H   H161      1.0  0.25405  0.19443  0.42279  1.0000
  C   C202      1.0  0.17834  0.28287  0.38252  1.0000
  C   C203      1.0  0.20519  0.17350  0.42578  1.0000
  C   C204      1.0  0.99070  0.43924  0.58494  1.0000
  H   H162      1.0  0.10697  0.02024  0.45282  1.0000
  C   C205      1.0  0.11061  0.39177  0.38038  1.0000
  S   S30       1.0  0.18955  0.39886  0.62094  1.0000
  H   H163      1.0  0.38723  0.17667  0.47999  1.0000
  Fe  Fe20      1.0  0.08887  0.24375  0.58661  1.0000
  S   S31       1.0  0.03885  0.26404  0.59712  1.0000
  S   S32       1.0  0.13278  0.25237  0.61476  1.0000
  Fe  Fe21      1.0  0.06210  0.20456  0.53779  1.0000
  S   S33       1.0  0.00975  0.22195  0.54480  1.0000
  S   S34       1.0  0.07220  0.16757  0.50362  1.0000
  Fe  Fe22      1.0  0.03322  0.27257  0.55085  1.0000
  Fe  Fe23      1.0  0.02072  0.21150  0.59007  1.0000
  S   S35       1.0  0.08501  0.25534  0.54119  1.0000
  S   S36       1.0  0.07122  0.19110  0.58210  1.0000
  H   H164      1.0  0.02899  0.11803  0.56749  1.0000
  C   C206      1.0  0.09673  0.01747  0.36242  1.0000
  H   H165      1.0  0.41098  0.44639  0.64574  1.0000
  C   C207      1.0  0.07950  0.38160  0.43137  1.0000
  C   C208      1.0  0.36084  0.02813  0.53399  1.0000
  C   C209      1.0  0.33560  0.02129  0.51437  1.0000
  H   H166      1.0  0.07609  0.23067  0.64881  1.0000
  H   H167      1.0  0.36484  0.05352  0.54060  1.0000
  H   H168      1.0  0.32054  0.04122  0.50624  1.0000
  C   C210      1.0  0.11353  0.15451  0.50046  1.0000
  C   C211      1.0  0.13853  0.16881  0.51669  1.0000
  C   C212      1.0  0.17159  0.15878  0.51309  1.0000
  H   H169      1.0  0.13247  0.18790  0.53174  1.0000
  H   H170      1.0  0.19095  0.17016  0.52544  1.0000
  S   S37       1.0  0.14764  0.02071  0.40108  1.0000
  C   C213      1.0  0.02094  0.12622  0.63205  1.0000
  C   C214      1.0  0.02512  0.09537  0.64555  1.0000
  H   H171      1.0  0.03814  0.13377  0.61617  1.0000
  C   C215      1.0  0.39201  0.06076  0.64772  1.0000
  C   C216      1.0  0.17263  0.35856  0.62043  1.0000
  C   C217      1.0  0.14662  0.35105  0.60209  1.0000
  C   C218      1.0  0.13343  0.31875  0.60081  1.0000
  C   C219      1.0  0.14689  0.29363  0.61738  1.0000
  C   C220      1.0  0.17290  0.30113  0.63567  1.0000
  C   C221      1.0  0.18538  0.33367  0.63757  1.0000
  H   H172      1.0  0.13702  0.37003  0.58851  1.0000
  H   H173      1.0  0.11359  0.31305  0.58645  1.0000
  H   H174      1.0  0.18358  0.28169  0.64830  1.0000
  H   H175      1.0  0.20548  0.33927  0.65172  1.0000
  C   C222      1.0  0.17975  0.15685  0.38236  1.0000
  C   C223      1.0  0.11834  0.10102  0.63162  1.0000
  S   S38       1.0  0.35849  0.21898  0.36569  1.0000
  H   H176      1.0  0.35786  0.98577  0.42905  1.0000
  C   C224      1.0  0.42240  0.07599  0.64272  1.0000
  H   H177      1.0  0.35331  0.08008  0.58691  1.0000
  H   H178      1.0  0.04535  0.07933  0.63950  1.0000
  C   C225      1.0  0.09355  0.36195  0.38511  1.0000
  C   C226      1.0  0.20769  0.16790  0.36769  1.0000
  H   H179      1.0  0.45666  0.40869  0.62935  1.0000
  H   H180      1.0  0.15922  0.14523  0.37154  1.0000
  S   S39       1.0  0.23937  0.46369  0.66415  1.0000
  C   C227      1.0  0.07860  0.35670  0.41102  1.0000
  H   H181      1.0  0.12104  0.04987  0.64589  1.0000
  C   C228      1.0  0.21874  0.33798  0.55765  1.0000
  C   C229      1.0  0.21520  0.30784  0.57163  1.0000
  C   C230      1.0  0.19378  0.28348  0.56125  1.0000
  C   C231      1.0  0.17585  0.28920  0.53688  1.0000
  C   C232      1.0  0.18010  0.31900  0.52218  1.0000
  C   C233      1.0  0.20131  0.34356  0.53301  1.0000
  P   P7        1.0  0.15672  0.32777  0.49105  1.0000
  C   C234      1.0  0.18403  0.33803  0.46276  1.0000
  C   C235      1.0  0.13340  0.29208  0.47912  1.0000
  C   C236      1.0  0.14953  0.26139  0.47547  1.0000
  C   C237      1.0  0.13163  0.23323  0.46728  1.0000
  C   C238      1.0  0.09771  0.23570  0.46191  1.0000
  C   C239      1.0  0.08181  0.26648  0.46411  1.0000
  C   C240      1.0  0.09954  0.29465  0.47260  1.0000
  C   C241      1.0  0.17097  0.35223  0.43854  1.0000
  C   C242      1.0  0.19189  0.36122  0.41676  1.0000
  C   C243      1.0  0.22588  0.35500  0.41862  1.0000
  C   C244      1.0  0.23893  0.33977  0.44227  1.0000
  C   C245      1.0  0.21812  0.33124  0.46428  1.0000
  C   C246      1.0  0.13026  0.36226  0.50039  1.0000
  C   C247      1.0  0.10403  0.35723  0.51894  1.0000
  C   C248      1.0  0.08402  0.38390  0.52706  1.0000
  C   C249      1.0  0.09016  0.41583  0.51700  1.0000
  C   C250      1.0  0.11696  0.42129  0.49935  1.0000
  C   C251      1.0  0.13713  0.39468  0.49121  1.0000
  H   H182      1.0  0.23436  0.35735  0.56637  1.0000
  H   H183      1.0  0.22816  0.30385  0.59105  1.0000
  H   H184      1.0  0.19001  0.26067  0.57276  1.0000
  H   H185      1.0  0.15831  0.27054  0.53015  1.0000
  H   H186      1.0  0.20398  0.36727  0.52264  1.0000
  H   H187      1.0  0.17579  0.25901  0.47970  1.0000
  H   H188      1.0  0.14391  0.20931  0.46563  1.0000
  H   H189      1.0  0.08369  0.21365  0.45631  1.0000
  H   H190      1.0  0.05556  0.26836  0.45982  1.0000
  H   H191      1.0  0.08654  0.31812  0.47435  1.0000
  H   H192      1.0  0.14468  0.35683  0.43672  1.0000
  H   H193      1.0  0.18174  0.37318  0.39851  1.0000
  H   H194      1.0  0.24214  0.36204  0.40177  1.0000
  H   H195      1.0  0.26529  0.33482  0.44366  1.0000
  H   H196      1.0  0.22876  0.31943  0.48238  1.0000
  H   H197      1.0  0.09887  0.33265  0.52707  1.0000
  H   H198      1.0  0.06345  0.37960  0.54091  1.0000
  S   S40       1.0  0.25129  0.00688  0.41024  1.0000
  H   H199      1.0  0.12218  0.44620  0.49203  1.0000
  H   H200      1.0  0.15817  0.39969  0.47806  1.0000
  C   C252      1.0  0.11507  0.12105  0.60796  1.0000
  C   C253      1.0  0.10941  0.10678  0.58187  1.0000
  C   C254      1.0  0.10738  0.07227  0.57908  1.0000
  C   C255      1.0  0.11140  0.05200  0.60234  1.0000
  C   C256      1.0  0.11720  0.06623  0.62846  1.0000
  H   H201      1.0  0.10690  0.12254  0.56374  1.0000
  H   H202      1.0  0.10317  0.06129  0.55880  1.0000
  H   H203      1.0  0.11026  0.02519  0.60012  1.0000
  C   C257      1.0  0.42790  0.09266  0.61784  1.0000
  S   S41       1.0  0.01721  0.32465  0.53603  1.0000
  C   C258      1.0  0.36345  0.46438  0.63205  1.0000
  H   H204      1.0  0.00131  0.21432  0.47196  1.0000
  H   H205      1.0  0.07873  0.31258  0.67391  1.0000
  C   C259      1.0  0.09527  0.41180  0.42601  1.0000
  C   C260      1.0  0.01050  0.34059  0.50186  1.0000
  C   C261      1.0  0.12826  0.00527  0.37000  1.0000
  H   H206      1.0  0.28827  0.08675  0.60150  1.0000
  C   C262      1.0  0.11106  0.41676  0.40063  1.0000
  S   S42       1.0  0.41270  0.01310  0.56952  1.0000
  C   C263      1.0  0.07424  0.20749  0.66009  1.0000
  H   H207      1.0  0.12441  0.22462  0.40605  1.0000
  H   H208      1.0  0.45483  0.40891  0.36126  1.0000
  C   C264      1.0  0.04808  0.36949  0.61069  1.0000
  C   C265      1.0  0.06454  0.38048  0.63458  1.0000
  H   H209      1.0  0.15375  0.20510  0.34843  1.0000
  H   H210      1.0  0.13353  0.40137  0.65936  1.0000
  H   H211      1.0  0.02752  0.35891  0.37039  1.0000
  S   S43       1.0  0.45368  0.99496  0.64445  1.0000
  H   H212      1.0  0.11748  0.14773  0.60950  1.0000
  C   C266      1.0  0.99714  0.36828  0.44860  1.0000
  C   C267      1.0  0.36656  0.06222  0.62789  1.0000
  C   C268      1.0  0.04563  0.07746  0.44413  1.0000
  H   H213      1.0  0.05842  0.37439  0.59044  1.0000
  H   H214      1.0  0.08743  0.39396  0.63215  1.0000
  C   C269      1.0  0.35985  0.03919  0.42638  1.0000
  C   C270      1.0  0.36847  0.00840  0.43755  1.0000
  C   C271      1.0  0.38935  0.00693  0.46062  1.0000
  C   C272      1.0  0.40122  0.03624  0.47281  1.0000
  C   C273      1.0  0.39239  0.06737  0.46190  1.0000
  C   C274      1.0  0.37153  0.06859  0.43851  1.0000
  P   P8        1.0  0.40443  0.10537  0.47947  1.0000
  C   C275      1.0  0.37279  0.11730  0.50406  1.0000
  C   C276      1.0  0.44298  0.09915  0.49784  1.0000
  C   C277      1.0  0.44290  0.08279  0.52350  1.0000
  C   C278      1.0  0.26817  0.02787  0.55360  1.0000
  H   H215      1.0  0.09062  0.06607  0.42180  1.0000
  C   C279      1.0  0.19112  0.12709  0.64440  1.0000
  H   H216      1.0  0.20464  0.28822  0.38203  1.0000
  C   C280      1.0  0.38086  0.13629  0.52766  1.0000
  C   C281      1.0  0.35609  0.14600  0.54629  1.0000
  C   C282      1.0  0.32312  0.13712  0.54133  1.0000
  C   C283      1.0  0.31490  0.11872  0.51767  1.0000
  C   C284      1.0  0.33963  0.10904  0.49908  1.0000
  C   C285      1.0  0.40910  0.13807  0.45424  1.0000
  C   C286      1.0  0.42325  0.13116  0.42824  1.0000
  H   H217      1.0  0.41714  0.20811  0.39939  1.0000
  H   H218      1.0  0.03920  0.09756  0.43032  1.0000
  C   C287      1.0  0.31732  0.09045  0.67481  1.0000
  C   C288      1.0  0.39832  0.17054  0.46023  1.0000
  H   H219      1.0  0.34287  0.04030  0.40900  1.0000
  C   C289      1.0  0.06419  0.02545  0.47930  1.0000
  H   H220      1.0  0.05664  0.43803  0.57885  1.0000
  H   H221      1.0  0.41605  0.03441  0.49140  1.0000
  H   H222      1.0  0.36320  0.09219  0.43017  1.0000
  H   H223      1.0  0.42012  0.07320  0.53211  1.0000
  S   S44       1.0  0.03369  0.47133  0.40254  1.0000
  C   C290      1.0  0.43850  0.37289  0.65856  1.0000
  H   H224      1.0  0.40617  0.14394  0.53151  1.0000
  H   H225      1.0  0.36243  0.16072  0.56442  1.0000
  H   H226      1.0  0.30384  0.14489  0.55553  1.0000
  H   H227      1.0  0.28927  0.11222  0.51346  1.0000
  H   H228      1.0  0.33282  0.09522  0.48076  1.0000
  H   H229      1.0  0.43172  0.10632  0.42318  1.0000
  C   C291      1.0  0.09598  0.15241  0.67061  1.0000
  C   C292      1.0  0.00841  0.37528  0.49801  1.0000
  H   H230      1.0  0.07428  0.43636  0.52302  1.0000
  C   C293      1.0  0.44681  0.34902  0.67842  1.0000
  H   H231      1.0  0.25640  0.07980  0.55786  1.0000
  H   H232      1.0  0.42988  0.06733  0.37940  1.0000
  C   C294      1.0  0.28743  0.06260  0.59152  1.0000
  C   C295      1.0  0.13310  0.24709  0.39609  1.0000
  C   C296      1.0  0.39679  0.03739  0.35460  1.0000
  C   C297      1.0  0.10806  0.44514  0.58736  1.0000
  C   C298      1.0  0.44515  0.46917  0.41002  1.0000
  H   H233      1.0  0.03528  0.10653  0.51754  1.0000
  C   C299      1.0  0.20595  0.18240  0.67756  1.0000
  C   C300      1.0  0.43925  0.44015  0.39475  1.0000
  Fe  Fe24      1.0  0.28918  0.44086  0.67459  1.0000
  S   S45       1.0  0.34355  0.45384  0.66411  1.0000
  C   C301      1.0  0.99782  0.47256  0.57849  1.0000
  S   S46       1.0  0.21105  0.02975  0.46546  1.0000
  C   C302      1.0  0.16707  0.13974  0.66262  1.0000
  S   S47       1.0  0.98725  0.38400  0.41496  1.0000
  C   C303      1.0  0.23306  0.18452  0.41141  1.0000
  S   S48       1.0  0.27301  0.38819  0.66561  1.0000
  H   H234      1.0  0.18589  0.10566  0.63141  1.0000
  C   C304      1.0  0.34601  0.11998  0.35342  1.0000
  H   H235      1.0  0.43122  0.36062  0.42543  1.0000
  H   H236      1.0  0.07156  0.00535  0.49288  1.0000
  H   H237      1.0  0.15721  0.15054  0.42252  1.0000
  C   C305      1.0  0.05209  0.37278  0.66100  1.0000
  C   C306      1.0  0.00208  0.38908  0.47160  1.0000
  C   C307      1.0  0.07463  0.45416  0.58859  1.0000
  H   H238      1.0  0.34333  0.09658  0.67326  1.0000
  C   C308      1.0  0.16703  0.25369  0.39491  1.0000
  C   C309      1.0  0.15572  0.30545  0.37122  1.0000
  C   C310      1.0  0.30481  0.03550  0.60285  1.0000
  S   S49       1.0  0.00107  0.43368  0.34801  1.0000
  C   C311      1.0  0.08416  0.03378  0.45675  1.0000
  H   H239      1.0  0.18455  0.23645  0.40394  1.0000
  C   C312      1.0  0.09879  0.18320  0.65706  1.0000
  C   C313      1.0  0.26933  0.05880  0.56689  1.0000
  C   C314      1.0  0.38064  0.00252  0.54517  1.0000
  C   C315      1.0  0.12160  0.29876  0.37185  1.0000
  H   H240      1.0  0.45196  0.10362  0.61387  1.0000
  C   C316      1.0  0.99587  0.19227  0.45974  1.0000
  H   H241      1.0  0.47156  0.06637  0.55832  1.0000
  H   H242      1.0  0.09476  0.43160  0.44129  1.0000
  C   C317      1.0  0.02393  0.33412  0.36199  1.0000
  P   P9        1.0  0.09273  0.32947  0.35916  1.0000
  C   C318      1.0  0.42048  0.06227  0.35876  1.0000
  P   P10       1.0  0.32813  0.04083  0.63466  1.0000
  H   H243      1.0  0.20462  0.17495  0.44823  1.0000
  Fe  Fe25      1.0  0.45453  0.99204  0.59756  1.0000
  H   H244      1.0  0.41267  0.37763  0.65360  1.0000
  C   C319      1.0  0.02550  0.06945  0.46688  1.0000
  C   C320      1.0  0.05106  0.31401  0.35490  1.0000
  C   C321      1.0  0.46310  0.33251  0.39807  1.0000
  C   C322      1.0  0.46346  0.39052  0.64493  1.0000
  C   C323      1.0  0.02298  0.35372  0.66293  1.0000
  C   C324      1.0  0.98297  0.09757  0.51047  1.0000
  C   C325      1.0  0.40269  0.09440  0.59799  1.0000
  S   S50       1.0  0.47159  0.40628  0.45643  1.0000
  H   H245      1.0  0.11546  0.42233  0.57708  1.0000
  C   C326      1.0  0.41509  0.46882  0.60515  1.0000
  C   C327      1.0  0.45641  0.35698  0.41845  1.0000
  C   C328      1.0  0.11038  0.26977  0.38501  1.0000
  C   C329      1.0  0.32922  0.98859  0.50583  1.0000
  C   C330      1.0  0.01092  0.10483  0.52684  1.0000
  C   C331      1.0  0.37203  0.07928  0.60295  1.0000
  C   C332      1.0  0.30354  0.00454  0.58927  1.0000
  H   H246      1.0  0.12287  0.39635  0.36084  1.0000
  C   C333      1.0  0.47223  0.07871  0.53843  1.0000
  C   C334      1.0  0.00615  0.31982  0.47877  1.0000
  S   S51       1.0  0.98678  0.18542  0.62138  1.0000
  C   C335      1.0  0.48192  0.37647  0.43013  1.0000
  H   H247      1.0  0.12276  0.44042  0.39615  1.0000
  H   H248      1.0  0.08418  0.26492  0.38735  1.0000
  C   C336      1.0  0.06509  0.48391  0.60177  1.0000
  H   H249      1.0  0.08554  0.03702  0.37467  1.0000
  H   H250      1.0  0.40730  0.10653  0.57843  1.0000
  C   C337      1.0  0.03492  0.04312  0.48432  1.0000
  H   H251      1.0  0.24038  0.13287  0.62803  1.0000
  C   C338      1.0  0.40141  0.19562  0.44045  1.0000
  C   C339      1.0  0.99161  0.32260  0.35808  1.0000
  S   S52       1.0  0.45352  0.21031  0.34875  1.0000
  H   H252      1.0  0.01968  0.03637  0.50185  1.0000
  H   H253      1.0  0.47382  0.12429  0.46778  1.0000
  C   C340      1.0  0.00357  0.08521  0.66685  1.0000
  C   C341      1.0  0.30326  0.06497  0.65857  1.0000
  C   C342      1.0  0.98949  0.19488  0.43134  1.0000
  H   H254      1.0  0.99534  0.31720  0.43485  1.0000
  C   C343      1.0  0.01895  0.35103  0.61285  1.0000
  H   H255      1.0  0.16482  0.32840  0.36233  1.0000
  C   C344      1.0  0.42613  0.15632  0.40845  1.0000
  C   C345      1.0  0.32419  0.98954  0.67393  1.0000
  C   C346      1.0  0.39772  0.45860  0.62916  1.0000
  C   C347      1.0  0.34693  0.48104  0.61062  1.0000
  H   H256      1.0  0.43631  0.15091  0.38816  1.0000
  C   C348      1.0  0.47305  0.11113  0.48726  1.0000
  C   C349      1.0  0.41530  0.18853  0.41465  1.0000
  H   H257      1.0  0.01152  0.39167  0.51561  1.0000
  H   H258      1.0  0.15810  0.45853  0.59821  1.0000
  H   H259      1.0  0.44198  0.07418  0.65795  1.0000
  C   C350      1.0  0.99438  0.14705  0.63898  1.0000
  H   H260      1.0  0.16553  0.45314  0.65558  1.0000
  H   H261      1.0  0.25474  0.02495  0.53419  1.0000
  H   H262      1.0  0.98421  0.32810  0.64056  1.0000
  H   H263      1.0  0.00692  0.29314  0.48144  1.0000
  Fe  Fe26      1.0  0.04156  0.47100  0.35586  1.0000
  H   H264      1.0  0.44121  0.46389  0.60327  1.0000
  H   H265      1.0  0.25645  0.19003  0.37200  1.0000
  C   C351      1.0  0.14399  0.45237  0.66887  1.0000
  C   C352      1.0  0.26942  0.05770  0.66149  1.0000
  C   C353      1.0  0.00746  0.11146  0.55516  1.0000
  Fe  Fe27      1.0  0.99190  0.43548  0.39429  1.0000
  H   H266      1.0  0.98970  0.21907  0.42150  1.0000
  C   C354      1.0  0.17491  0.16715  0.67956  1.0000
  C   C355      1.0  0.35901  0.15234  0.35224  1.0000
  P   P11       1.0  0.12685  0.12025  0.66498  1.0000
  H   H267      1.0  0.01311  0.99123  0.54367  1.0000
  H   H268      1.0  0.43045  0.47444  0.42831  1.0000
  C   C356      1.0  0.98647  0.98796  0.54319  1.0000
  H   H269      1.0  0.45441  0.00193  0.39796  1.0000
  H   H270      1.0  0.12126  0.26952  0.67971  1.0000
  C   C357      1.0  0.22949  0.17013  0.65894  1.0000
  C   C358      1.0  0.12551  0.42311  0.67086  1.0000
  C   C359      1.0  0.04677  0.20145  0.67682  1.0000
  H   H271      1.0  0.37732  0.99107  0.61905  1.0000
  H   H272      1.0  0.25338  0.18223  0.65718  1.0000
  H   H273      1.0  0.02701  0.21965  0.67811  1.0000
  H   H274      1.0  0.22334  0.09705  0.35365  1.0000
  P   P12       1.0  0.98737  0.09179  0.47347  1.0000
  C   C360      1.0  0.46771  0.98541  0.49814  1.0000
  C   C361      1.0  0.47626  0.98521  0.47004  1.0000
  C   C362      1.0  0.24990  0.07586  0.68012  1.0000
  H   H275      1.0  0.37128  0.19289  0.96435  1.0000
  C   C363      1.0  0.29768  0.10869  0.69329  1.0000
  H   H276      1.0  0.00850  0.12860  0.99075  1.0000
  C   C364      1.0  0.12447  0.04480  0.73712  1.0000
  S   S53       1.0  0.20488  0.40363  0.70091  1.0000
  Fe  Fe28      1.0  0.25662  0.38690  0.71011  1.0000
  S   S54       1.0  0.26406  0.34611  0.74164  1.0000
  C   C365      1.0  0.12499  0.43475  0.77957  1.0000
  C   C366      1.0  0.01671  0.40198  0.71849  1.0000
  Fe  Fe29      1.0  0.04007  0.46596  0.85099  1.0000
  C   C367      1.0  0.04815  0.38737  0.72170  1.0000
  C   C368      1.0  0.32131  0.44846  0.78670  1.0000
  C   C369      1.0  0.00888  0.40158  0.76829  1.0000
  H   H277      1.0  0.20432  0.34050  0.89135  1.0000
  C   C370      1.0  0.04416  0.17136  0.69101  1.0000
  C   C371      1.0  0.39013  0.31458  0.92639  1.0000
  C   C372      1.0  0.44041  0.36186  0.82997  1.0000
  H   H278      1.0  0.17358  0.02028  0.84761  1.0000
  S   S55       1.0  0.42172  0.27835  0.82380  1.0000
  Fe  Fe30      1.0  0.46265  0.19853  0.79211  1.0000
  S   S56       1.0  0.40884  0.21152  0.78580  1.0000
  Fe  Fe31      1.0  0.42742  0.26366  0.77937  1.0000
  S   S57       1.0  0.41361  0.29957  0.74544  1.0000
  Fe  Fe32      1.0  0.40920  0.22487  0.83114  1.0000
  S   S58       1.0  0.37024  0.21538  0.86377  1.0000
  C   C373      1.0  0.13577  0.32299  0.78983  1.0000
  S   S59       1.0  0.46195  0.20958  0.83837  1.0000
  C   C374      1.0  0.08749  0.25900  0.96274  1.0000
  Fe  Fe33      1.0  0.23152  0.08414  0.95022  1.0000
  S   S60       1.0  0.21782  0.03244  0.96322  1.0000
  C   C375      1.0  0.01149  0.07861  0.97458  1.0000
  Fe  Fe34      1.0  0.27042  0.06026  0.90076  1.0000
  H   H279      1.0  0.04191  0.26005  0.93963  1.0000
  S   S61       1.0  0.30289  0.07306  0.86425  1.0000
  Fe  Fe35      1.0  0.20690  0.02440  0.91738  1.0000
  Fe  Fe36      1.0  0.27143  0.01973  0.95440  1.0000
  S   S62       1.0  0.21773  0.07736  0.90547  1.0000
  S   S63       1.0  0.28530  0.07224  0.94440  1.0000
  C   C376      1.0  0.32177  0.11255  0.86467  1.0000
  C   C377      1.0  0.31649  0.13496  0.88650  1.0000
  C   C378      1.0  0.33189  0.16631  0.88625  1.0000
  C   C379      1.0  0.35252  0.17541  0.86417  1.0000
  C   C380      1.0  0.35814  0.15285  0.84255  1.0000
  C   C381      1.0  0.34257  0.12162  0.84272  1.0000
  H   H280      1.0  0.30041  0.12822  0.90347  1.0000
  H   H281      1.0  0.32771  0.18359  0.90315  1.0000
  H   H282      1.0  0.37412  0.15960  0.82551  1.0000
  H   H283      1.0  0.34659  0.10445  0.82577  1.0000
  H   H284      1.0  0.29209  0.35968  0.80864  1.0000
  C   C382      1.0  0.40088  0.40096  0.00903  1.0000
  C   C383      1.0  0.41846  0.14828  0.92004  1.0000
  C   C384      1.0  0.36990  0.07983  0.93553  1.0000
  C   C385      1.0  0.10853  0.47879  0.70267  1.0000
  H   H285      1.0  0.35770  0.10103  0.92619  1.0000
  H   H286      1.0  0.16239  0.23026  0.78676  1.0000
  C   C386      1.0  0.38892  0.08485  0.74368  1.0000
  H   H287      1.0  0.11826  0.40887  0.78127  1.0000
  S   S64       1.0  0.45745  0.47736  0.97235  1.0000
  Fe  Fe37      1.0  0.99311  0.01276  0.71940  1.0000
  H   H288      1.0  0.28771  0.28790  0.82967  1.0000
  H   H289      1.0  0.46817  0.22292  0.94998  1.0000
  C   C387      1.0  0.15361  0.11789  0.97091  1.0000
  C   C388      1.0  0.12031  0.12484  0.97709  1.0000
  H   H290      1.0  0.15985  0.09708  0.95759  1.0000
  H   H291      1.0  0.10097  0.10909  0.96887  1.0000
  C   C389      1.0  0.41547  0.38611  0.82913  1.0000
  H   H292      1.0  0.46643  0.29098  0.90008  1.0000
  C   C390      1.0  0.43347  0.17105  0.90226  1.0000
  H   H293      1.0  0.98909  0.31763  0.93911  1.0000
  C   C391      1.0  0.37420  0.14349  0.74205  1.0000
  H   H294      1.0  0.46277  0.21574  0.89924  1.0000
  C   C392      1.0  0.34858  0.39828  0.85066  1.0000
  C   C393      1.0  0.30571  0.33371  0.74348  1.0000
  C   C394      1.0  0.32894  0.34754  0.72550  1.0000
  C   C395      1.0  0.36209  0.33736  0.72668  1.0000
  C   C396      1.0  0.37224  0.31319  0.74576  1.0000
  C   C397      1.0  0.34917  0.29986  0.76427  1.0000
  C   C398      1.0  0.31587  0.31009  0.76308  1.0000
  H   H295      1.0  0.32133  0.36594  0.71046  1.0000
  H   H296      1.0  0.37974  0.34809  0.71254  1.0000
  H   H297      1.0  0.35689  0.28123  0.77909  1.0000
  H   H298      1.0  0.29795  0.29937  0.77704  1.0000
  S   S65       1.0  0.99065  0.38462  0.91840  1.0000
  C   C399      1.0  0.33093  0.42349  0.76815  1.0000
  C   C400      1.0  0.99782  0.05527  0.95623  1.0000
  H   H299      1.0  0.06511  0.12362  0.69856  1.0000
  H   H300      1.0  0.42421  0.12299  0.68808  1.0000
  C   C401      1.0  0.47864  0.31480  0.90225  1.0000
  C   C402      1.0  0.42632  0.08602  0.83262  1.0000
  C   C403      1.0  0.00096  0.33265  0.95492  1.0000
  H   H301      1.0  0.04066  0.38635  0.01269  1.0000
  C   C404      1.0  0.02414  0.33710  0.00165  1.0000
  H   H302      1.0  0.36536  0.43929  0.99994  1.0000
  C   C405      1.0  0.02129  0.38584  0.97083  1.0000
  H   H303      1.0  0.13509  0.25180  0.98212  1.0000
  H   H304      1.0  0.00770  0.40897  0.69815  1.0000
  C   C406      1.0  0.38745  0.30629  0.89831  1.0000
  C   C407      1.0  0.15214  0.08943  0.71268  1.0000
  S   S66       1.0  0.25926  0.00657  0.90972  1.0000
  S   S67       1.0  0.07850  0.98818  0.78874  1.0000
  H   H305      1.0  0.44775  0.41452  0.89580  1.0000
  C   C408      1.0  0.00590  0.36687  0.95005  1.0000
  H   H306      1.0  0.17255  0.40820  0.85457  1.0000
  P   P13       1.0  0.39188  0.39650  0.85971  1.0000
  H   H307      1.0  0.29931  0.29449  0.87983  1.0000
  H   H308      1.0  0.17288  0.10633  0.71134  1.0000
  H   H309      1.0  0.00474  0.98702  0.82941  1.0000
  C   C409      1.0  0.27569  0.30257  0.87142  1.0000
  C   C410      1.0  0.28983  0.02760  0.74281  1.0000
  H   H310      1.0  0.31950  0.04726  0.01245  1.0000
  H   H311      1.0  0.01356  0.34606  0.68291  1.0000
  C   C411      1.0  0.15357  0.30048  0.70437  1.0000
  C   C412      1.0  0.44880  0.36755  0.78046  1.0000
  H   H312      1.0  0.23459  0.30713  0.81001  1.0000
  H   H313      1.0  0.22377  0.07020  0.68216  1.0000
  C   C413      1.0  0.13582  0.99715  0.87225  1.0000
  C   C414      1.0  0.36194  0.04792  0.92597  1.0000
  H   H314      1.0  0.42763  0.33485  0.68871  1.0000
  C   C415      1.0  0.37233  0.11249  0.75497  1.0000
  H   H315      1.0  0.02492  0.48435  0.70486  1.0000
  C   C416      1.0  0.17869  0.13799  0.98200  1.0000
  C   C417      1.0  0.13140  0.26825  0.76891  1.0000
  H   H316      1.0  0.15687  0.17705  0.69399  1.0000
  H   H317      1.0  0.30869  0.12847  0.70561  1.0000
  H   H318      1.0  0.33573  0.43165  0.88433  1.0000
  C   C418      1.0  0.41999  0.07821  0.80484  1.0000
  H   H319      1.0  0.17094  0.06607  0.74984  1.0000
  C   C419      1.0  0.44892  0.01278  0.76161  1.0000
  C   C420      1.0  0.11214  0.15182  0.99425  1.0000
  H   H320      1.0  0.34416  0.04488  0.90925  1.0000
  C   C421      1.0  0.44951  0.46782  0.89671  1.0000
  H   H321      1.0  0.04974  0.38305  0.79242  1.0000
  H   H322      1.0  0.22353  0.46029  0.79006  1.0000
  C   C422      1.0  0.29599  0.17060  0.98917  1.0000
  H   H323      1.0  0.07178  0.38830  0.86928  1.0000
  C   C423      1.0  0.40711  0.08863  0.71913  1.0000
  C   C424      1.0  0.05980  0.38031  0.74850  1.0000
  H   H324      1.0  0.16157  0.42568  0.74771  1.0000
  C   C425      1.0  0.30175  0.37563  0.82499  1.0000
  C   C426      1.0  0.99706  0.40873  0.74171  1.0000
  H   H325      1.0  0.40421  0.12835  0.91091  1.0000
  H   H326      1.0  0.41907  0.40450  0.76014  1.0000
  H   H327      1.0  0.08442  0.37054  0.75168  1.0000
  C   C427      1.0  0.32657  0.41661  0.86725  1.0000
  H   H328      1.0  0.30225  0.44350  0.80187  1.0000
  C   C428      1.0  0.40865  0.40230  0.80399  1.0000
  C   C429      1.0  0.42518  0.39290  0.77971  1.0000
  H   H329      1.0  0.43355  0.09126  0.78886  1.0000
  C   C430      1.0  0.34359  0.99222  0.76439  1.0000
  C   C431      1.0  0.11229  0.32363  0.89967  1.0000
  S   S68       1.0  0.07984  0.44404  0.82165  1.0000
  S   S69       1.0  0.47938  0.14619  0.77782  1.0000
  H   H330      1.0  0.06722  0.35029  0.90943  1.0000
  C   C432      1.0  0.12144  0.30150  0.77032  1.0000
  H   H331      1.0  0.27137  0.18068  0.99246  1.0000
  C   C433      1.0  0.09067  0.36949  0.87276  1.0000
  H   H332      1.0  0.36135  0.41122  0.73295  1.0000
  C   C434      1.0  0.33342  0.12356  0.98967  1.0000
  C   C435      1.0  0.39664  0.02388  0.96155  1.0000
  H   H333      1.0  0.26892  0.04132  0.73463  1.0000
  C   C436      1.0  0.48091  0.02044  0.00271  1.0000
  C   C437      1.0  0.40802  0.43606  0.87132  1.0000
  C   C438      1.0  0.45672  0.35241  0.80561  1.0000
  Fe  Fe38      1.0  0.99589  0.43534  0.89639  1.0000
  H   H334      1.0  0.12060  0.25180  0.75348  1.0000
  C   C439      1.0  0.30228  0.13719  0.99504  1.0000
  C   C440      1.0  0.06685  0.25010  0.94066  1.0000
  C   C441      1.0  0.32104  0.19052  0.97819  1.0000
  C   C442      1.0  0.40898  0.11976  0.70632  1.0000
  C   C443      1.0  0.38500  0.04604  0.84679  1.0000
  H   H335      1.0  0.02525  0.41216  0.96761  1.0000
  C   C444      1.0  0.22058  0.21883  0.87331  1.0000
  C   C445      1.0  0.24030  0.19807  0.88966  1.0000
  C   C446      1.0  0.22550  0.17528  0.90755  1.0000
  C   C447      1.0  0.19098  0.17292  0.90888  1.0000
  C   C448      1.0  0.17095  0.19297  0.89192  1.0000
  C   C449      1.0  0.18603  0.21643  0.87451  1.0000
  P   P14       1.0  0.12628  0.18964  0.89354  1.0000
  C   C450      1.0  0.11433  0.14674  0.89862  1.0000
  C   C451      1.0  0.11069  0.21553  0.92136  1.0000
  C   C452      1.0  0.13096  0.22388  0.94404  1.0000
  H   H336      1.0  0.27551  0.42898  0.87529  1.0000
  P   P15       1.0  0.17617  0.33861  0.83479  1.0000
  C   C453      1.0  0.13733  0.17147  0.00560  1.0000
  C   C454      1.0  0.07827  0.22829  0.92014  1.0000
  C   C455      1.0  0.08507  0.13881  0.91283  1.0000
  C   C456      1.0  0.07525  0.10558  0.91557  1.0000
  C   C457      1.0  0.09476  0.08005  0.90451  1.0000
  C   C458      1.0  0.12387  0.08778  0.89039  1.0000
  C   C459      1.0  0.13351  0.12091  0.88721  1.0000
  C   C460      1.0  0.10852  0.20377  0.86113  1.0000
  C   C461      1.0  0.09941  0.18097  0.84030  1.0000
  C   C462      1.0  0.08456  0.19213  0.81578  1.0000
  C   C463      1.0  0.07880  0.22608  0.81183  1.0000
  C   C464      1.0  0.08833  0.24899  0.83221  1.0000
  C   C465      1.0  0.10322  0.23791  0.85670  1.0000
  H   H337      1.0  0.23219  0.23661  0.85961  1.0000
  H   H338      1.0  0.26707  0.19959  0.88849  1.0000
  H   H339      1.0  0.24075  0.15925  0.92039  1.0000
  H   H340      1.0  0.18003  0.15523  0.92306  1.0000
  H   H341      1.0  0.17126  0.23270  0.86173  1.0000
  H   H342      1.0  0.15556  0.21345  0.94616  1.0000
  C   C466      1.0  0.15982  0.31116  0.80842  1.0000
  H   H343      1.0  0.06180  0.22150  0.90329  1.0000
  H   H344      1.0  0.07003  0.15810  0.92219  1.0000
  H   H345      1.0  0.05299  0.09964  0.92696  1.0000
  H   H346      1.0  0.99403  0.40760  0.78636  1.0000
  H   H347      1.0  0.13921  0.06795  0.88214  1.0000
  H   H348      1.0  0.15602  0.12621  0.87591  1.0000
  H   H349      1.0  0.10337  0.15453  0.84296  1.0000
  H   H350      1.0  0.07718  0.17434  0.79996  1.0000
  H   H351      1.0  0.06693  0.23464  0.79297  1.0000
  H   H352      1.0  0.08400  0.27536  0.82912  1.0000
  H   H353      1.0  0.11021  0.25596  0.87235  1.0000
  C   C467      1.0  0.10948  0.45834  0.79689  1.0000
  C   C468      1.0  0.39188  0.08408  0.95790  1.0000
  C   C469      1.0  0.13414  0.35655  0.71307  1.0000
  H   H354      1.0  0.20791  0.35522  0.78224  1.0000
  H   H355      1.0  0.28261  0.12147  0.00286  1.0000
  H   H356      1.0  0.44087  0.18356  0.98174  1.0000
  C   C470      1.0  0.09788  0.42160  0.68838  1.0000
  H   H357      1.0  0.33749  0.09737  0.99355  1.0000
  C   C471      1.0  0.40882  0.06994  0.85363  1.0000
  C   C472      1.0  0.29244  0.41483  0.86242  1.0000
  C   C473      1.0  0.08987  0.44962  0.70464  1.0000
  H   H358      1.0  0.42093  0.05778  0.98890  1.0000
  C   C474      1.0  0.12453  0.29359  0.68960  1.0000
  H   H359      1.0  0.02238  0.16629  0.70338  1.0000
  H   H360      1.0  0.17271  0.28171  0.70621  1.0000
  C   C475      1.0  0.15506  0.25619  0.78754  1.0000
  C   C476      1.0  0.47470  0.33369  0.92682  1.0000
  P   P16       1.0  0.39904  0.12514  0.97235  1.0000
  H   H361      1.0  0.38465  0.28048  0.89201  1.0000
  C   C477      1.0  0.04023  0.38744  0.77168  1.0000
  H   H362      1.0  0.37055  0.03442  0.86297  1.0000
  C   C478      1.0  0.38857  0.33126  0.87824  1.0000
  H   H363      1.0  0.44673  0.34954  0.84918  1.0000
  S   S70       1.0  0.22049  0.13078  0.97437  1.0000
  C   C479      1.0  0.14922  0.00911  0.84746  1.0000
  C   C480      1.0  0.11942  0.24567  0.96454  1.0000
  C   C481      1.0  0.32049  0.04333  0.74615  1.0000
  C   C482      1.0  0.41838  0.01713  0.74807  1.0000
  C   C483      1.0  0.16893  0.27744  0.80746  1.0000
  C   C484      1.0  0.15996  0.47738  0.75878  1.0000
  C   C485      1.0  0.13128  0.00618  0.82232  1.0000
  H   H364      1.0  0.18657  0.26738  0.82209  1.0000
  H   H365      1.0  0.08773  0.05420  0.90706  1.0000
  H   H366      1.0  0.31928  0.39922  0.76881  1.0000
  H   H367      1.0  0.45964  0.32397  0.94340  1.0000
  C   C486      1.0  0.45679  0.46987  0.71851  1.0000
  S   S71       1.0  0.04258  0.46575  0.89799  1.0000
  Fe  Fe39      1.0  0.22381  0.45496  0.70875  1.0000
  C   C487      1.0  0.12634  0.09036  0.69304  1.0000
  H   H368      1.0  0.45508  0.02693  0.78003  1.0000
  H   H369      1.0  0.47105  0.46865  0.91022  1.0000
  H   H370      1.0  0.39519  0.17150  0.70841  1.0000
  P   P17       1.0  0.38752  0.04549  0.76159  1.0000
  H   H371      1.0  0.38547  0.32458  0.85664  1.0000
  C   C488      1.0  0.39327  0.36461  0.88598  1.0000
  H   H372      1.0  0.35862  0.11025  0.77416  1.0000
  S   S72       1.0  0.99429  0.43390  0.84941  1.0000
  C   C489      1.0  0.14967  0.44421  0.76048  1.0000
  H   H373      1.0  0.11005  0.30684  0.91710  1.0000
  H   H374      1.0  0.38711  0.46633  0.73040  1.0000
  H   H375      1.0  0.12794  0.34878  0.79058  1.0000
  C   C490      1.0  0.09872  0.04564  0.71777  1.0000
  S   S73       1.0  0.27521  0.43798  0.72004  1.0000
  H   H376      1.0  0.42095  0.06806  0.71040  1.0000
  C   C491      1.0  0.10530  0.35019  0.69761  1.0000
  C   C492      1.0  0.06859  0.14694  0.68797  1.0000
  S   S74       1.0  0.07050  0.16096  0.00149  1.0000
  C   C493      1.0  0.21411  0.43722  0.79858  1.0000
  C   C494      1.0  0.42121  0.15216  0.94891  1.0000
  C   C495      1.0  0.11750  0.36684  0.85459  1.0000
  H   H377      1.0  0.39600  0.35439  0.95615  1.0000
  H   H378      1.0  0.23051  0.40756  0.76400  1.0000
  H   H379      1.0  0.07777  0.02892  0.71992  1.0000
  C   C496      1.0  0.23877  0.30936  0.83216  1.0000
  H   H380      1.0  0.10288  0.31071  0.75600  1.0000
  H   H381      1.0  0.19361  0.46055  0.83495  1.0000
  S   S75       1.0  0.48129  0.25051  0.78324  1.0000
  C   C497      1.0  0.35884  0.14334  0.97883  1.0000
  C   C498      1.0  0.39433  0.46595  0.86151  1.0000
  H   H382      1.0  0.46058  0.35910  0.76152  1.0000
  H   H383      1.0  0.46697  0.47802  0.82025  1.0000
  H   H384      1.0  0.38990  0.42150  0.80305  1.0000
  H   H385      1.0  0.07850  0.27587  0.97867  1.0000
  H   H386      1.0  0.13828  0.38083  0.72220  1.0000
  C   C499      1.0  0.28008  0.39428  0.84137  1.0000
  H   H387      1.0  0.11856  0.38345  0.83697  1.0000
  H   H388      1.0  0.30458  0.00348  0.68382  1.0000
  C   C500      1.0  0.08811  0.34802  0.89536  1.0000
  C   C501      1.0  0.39362  0.34789  0.93439  1.0000
  C   C502      1.0  0.36902  0.46177  0.74639  1.0000
  H   H389      1.0  0.15721  0.30135  0.88484  1.0000
  H   H390      1.0  0.43039  0.16830  0.88004  1.0000
  H   H391      1.0  0.03338  0.07252  0.98664  1.0000
  C   C503      1.0  0.21775  0.40755  0.78373  1.0000
  C   C504      1.0  0.18763  0.37780  0.81946  1.0000
  C   C505      1.0  0.35246  0.17706  0.97320  1.0000
  C   C506      1.0  0.14246  0.34306  0.85920  1.0000
  C   C507      1.0  0.26400  0.10143  0.69594  1.0000
  C   C508      1.0  0.13920  0.32091  0.88152  1.0000
  H   H392      1.0  0.31589  0.21620  0.97301  1.0000
  C   C509      1.0  0.02337  0.06284  0.85678  1.0000
  H   H393      1.0  0.44445  0.10503  0.83769  1.0000
  C   C510      1.0  0.15832  0.33190  0.71619  1.0000
  C   C511      1.0  0.02395  0.03576  0.83856  1.0000
  H   H394      1.0  0.47020  0.12349  0.98525  1.0000
  C   C512      1.0  0.39270  0.14719  0.71783  1.0000
  C   C513      1.0  0.28597  0.99431  0.75042  1.0000
  C   C514      1.0  0.40517  0.05572  0.97084  1.0000
  H   H395      1.0  0.32279  0.06912  0.74029  1.0000
  C   C515      1.0  0.37852  0.03825  0.81900  1.0000
  C   C516      1.0  0.42178  0.12048  0.00447  1.0000
  H   H396      1.0  0.35921  0.02047  0.81438  1.0000
  H   H397      1.0  0.12349  0.02726  0.75414  1.0000
  C   C517      1.0  0.45660  0.11966  0.00431  1.0000
  P   P18       1.0  0.07529  0.38299  0.69213  1.0000
  C   C518      1.0  0.17050  0.16477  0.99929  1.0000
  H   H398      1.0  0.39708  0.39845  0.92111  1.0000
  C   C519      1.0  0.03004  0.37109  0.99646  1.0000
  H   H399      1.0  0.38977  0.29518  0.94190  1.0000
  H   H400      1.0  0.03889  0.08426  0.85278  1.0000
  H   H401      1.0  0.36218  0.16492  0.75133  1.0000
  C   C520      1.0  0.47207  0.98994  0.75135  1.0000
  H   H402      1.0  0.18983  0.18024  0.00802  1.0000
  C   C521      1.0  0.39605  0.05424  0.79775  1.0000
  H   H403      1.0  0.36707  0.99530  0.93281  1.0000
  H   H404      1.0  0.18104  0.33730  0.72742  1.0000
  C   C522      1.0  0.21443  0.32322  0.84956  1.0000
  C   C523      1.0  0.09967  0.06821  0.69583  1.0000
  C   C524      1.0  0.22173  0.32801  0.87779  1.0000
  C   C525      1.0  0.26908  0.29873  0.84314  1.0000
  H   H405      1.0  0.24881  0.11569  0.71019  1.0000
  H   H406      1.0  0.37351  0.46569  0.84733  1.0000
  C   C526      1.0  0.34758  0.02580  0.75716  1.0000
  C   C527      1.0  0.45145  0.19786  0.91306  1.0000
  C   C528      1.0  0.01020  0.31781  0.98038  1.0000
  C   C529      1.0  0.43604  0.43722  0.88863  1.0000
  C   C530      1.0  0.18454  0.40766  0.83452  1.0000
  H   H407      1.0  0.00949  0.03119  0.95428  1.0000
  H   H408      1.0  0.40563  0.00230  0.97262  1.0000
  C   C531      1.0  0.20443  0.37798  0.79400  1.0000
  H   H409      1.0  0.44910  0.42106  0.70126  1.0000
  H   H410      1.0  0.35214  0.36169  0.81746  1.0000
  C   C532      1.0  0.35465  0.43023  0.74793  1.0000
  H   H411      1.0  0.25371  0.39257  0.83789  1.0000
  S   S76       1.0  0.15738  0.99980  0.90472  1.0000
  C   C533      1.0  0.33587  0.37727  0.82980  1.0000
  H   H412      1.0  0.47496  0.33266  0.80609  1.0000
  C   C534      1.0  0.39494  0.37286  0.91431  1.0000
  C   C535      1.0  0.00262  0.06237  0.87995  1.0000
  H   H413      1.0  0.42036  0.41227  0.99678  1.0000
  C   C536      1.0  0.43916  0.17936  0.95960  1.0000
  H   H414      1.0  0.41310  0.07656  0.87514  1.0000
  H   H415      1.0  0.03982  0.03624  0.82046  1.0000
  C   C537      1.0  0.46376  0.43601  0.71545  1.0000
  C   C538      1.0  0.37498  0.01995  0.93916  1.0000
  C   C539      1.0  0.19719  0.43734  0.82382  1.0000
  H   H416      1.0  0.25754  0.32096  0.91054  1.0000
  C   C540      1.0  0.25210  0.31738  0.88870  1.0000
  H   H417      1.0  0.07012  0.44887  0.71969  1.0000
  Fe  Fe40      1.0  0.47453  0.26304  0.82882  1.0000
  H   H418      1.0  0.38828  0.00147  0.71307  1.0000
  S   S77       1.0  0.01078  0.04600  0.68326  1.0000
  C   C541      1.0  0.15118  0.06667  0.73459  1.0000
  C   C542      1.0  0.00416  0.00796  0.84366  1.0000
  H   H419      1.0  0.21161  0.20407  0.69017  1.0000
  H   H420      1.0  0.42049  0.47583  0.78726  1.0000
  C   C543      1.0  0.13552  0.48020  0.68472  1.0000
  C   C544      1.0  0.99760  0.11033  0.97684  1.0000
  H   H421      1.0  0.00513  0.29176  0.98399  1.0000
  C   C545      1.0  0.45440  0.20194  0.94172  1.0000
  H   H422      1.0  0.04909  0.00003  0.98857  1.0000
  H   H423      1.0  0.14219  0.01521  0.80336  1.0000
  C   C546      1.0  0.41150  0.99841  0.72405  1.0000
  C   C547      1.0  0.09956  0.99150  0.82146  1.0000
  H   H424      1.0  0.43723  0.48119  0.70626  1.0000
  S   S78       1.0  0.30750  0.98655  0.97939  1.0000
  C   C548      1.0  0.10047  0.31831  0.68618  1.0000
  H   H425      1.0  0.00195  0.08398  0.89338  1.0000
  C   C549      1.0  0.33556  0.48009  0.78518  1.0000
  C   C550      1.0  0.33469  0.99643  0.00771  1.0000
  S   S79       1.0  0.99286  0.02345  0.76545  1.0000
  C   C551      1.0  0.48000  0.34309  0.68491  1.0000
  C   C552      1.0  0.98385  0.00712  0.86708  1.0000
  C   C553      1.0  0.36974  0.41599  0.01061  1.0000
  H   H426      1.0  0.07930  0.06855  0.68119  1.0000
  C   C554      1.0  0.46453  0.89411  0.04740  1.0000
  C   C555      1.0  0.99674  0.84548  0.17251  1.0000
  C   C556      1.0  0.09267  0.97827  0.32361  1.0000
  C   C557      1.0  0.99648  0.84034  0.26021  1.0000
  H   H427      1.0  0.46505  0.53205  0.06958  1.0000
  C   C558      1.0  0.39488  0.48617  0.32596  1.0000
  H   H428      1.0  0.41407  0.57747  0.30558  1.0000
  H   H429      1.0  0.25824  0.52404  0.22825  1.0000
  H   H430      1.0  0.45346  0.96376  0.04931  1.0000
  C   C559      1.0  0.98952  0.97594  0.03420  1.0000
  C   C560      1.0  0.40924  0.55183  0.31113  1.0000
  C   C561      1.0  0.04326  0.57606  0.02156  1.0000
  C   C562      1.0  0.45235  0.56210  0.22409  1.0000
  H   H431      1.0  0.13507  0.94608  0.31922  1.0000
  C   C563      1.0  0.33981  0.48603  0.25761  1.0000
  C   C564      1.0  0.41289  0.54174  0.33866  1.0000
  C   C565      1.0  0.99471  0.81910  0.03296  1.0000
  H   H432      1.0  0.30715  0.51695  0.19761  1.0000
  C   C566      1.0  0.40555  0.50900  0.34606  1.0000
  H   H433      1.0  0.02162  0.97914  0.13233  1.0000
  H   H434      1.0  0.44375  0.59628  0.25793  1.0000
  C   C567      1.0  0.02773  0.55278  0.03863  1.0000
  H   H435      1.0  0.13397  0.51746  0.25445  1.0000
  H   H436      1.0  0.09410  0.50777  0.29292  1.0000
  H   H437      1.0  0.43523  0.93114  0.22235  1.0000
  C   C568      1.0  0.39168  0.49595  0.29811  1.0000
  C   C569      1.0  0.33797  0.49625  0.22978  1.0000
  C   C570      1.0  0.47419  0.55230  0.20310  1.0000
  H   H438      1.0  0.02429  0.87924  0.31831  1.0000
  H   H439      1.0  0.01638  0.85492  0.18564  1.0000
  H   H440      1.0  0.44596  0.49176  0.26409  1.0000
  H   H441      1.0  0.38378  0.92510  0.24972  1.0000
  S   S80       1.0  0.40920  0.48993  0.04108  1.0000
  C   C571      1.0  0.00311  0.81902  0.15375  1.0000
  C   C572      1.0  0.47808  0.56138  0.13510  1.0000
  C   C573      1.0  0.46359  0.97319  0.03016  1.0000
  H   H442      1.0  0.42858  0.54985  0.22603  1.0000
  C   C574      1.0  0.47802  0.53767  0.08878  1.0000
  C   C575      1.0  0.39847  0.52911  0.29096  1.0000
  C   C576      1.0  0.99919  0.95133  0.09865  1.0000
  H   H443      1.0  0.00331  0.83659  0.23867  1.0000
  H   H444      1.0  0.02775  0.80852  0.15266  1.0000
  C   C577      1.0  0.46089  0.58813  0.24204  1.0000
  H   H445      1.0  0.47671  0.61951  0.32864  1.0000
  S   S81       1.0  0.07066  0.95853  0.29558  1.0000
  H   H446      1.0  0.46502  0.57498  0.15105  1.0000
  C   C578      1.0  0.28302  0.50458  0.26433  1.0000
  H   H447      1.0  0.04033  0.86859  0.27010  1.0000
  Fe  Fe41      1.0  0.02324  0.96821  0.26963  1.0000
  C   C579      1.0  0.46160  0.55441  0.11015  1.0000
  C   C580      1.0  0.01731  0.85838  0.27789  1.0000
  H   H448      1.0  0.03896  0.82243  0.09299  1.0000
  H   H449      1.0  0.39291  0.95828  0.04879  1.0000
  S   S82       1.0  0.02551  0.96036  0.22301  1.0000
  H   H450      1.0  0.26136  0.50726  0.27742  1.0000
  H   H451      1.0  0.01598  0.87913  0.09368  1.0000
  Fe  Fe42      1.0  0.45984  0.48796  0.01848  1.0000
  C   C581      1.0  0.99335  0.94123  0.03233  1.0000
  C   C582      1.0  0.13739  0.49632  0.26797  1.0000
  C   C583      1.0  0.30874  0.51015  0.21933  1.0000
  H   H452      1.0  0.40916  0.88347  0.10004  1.0000
  C   C584      1.0  0.43966  0.98380  0.23036  1.0000
  H   H453      1.0  0.35863  0.49319  0.21578  1.0000
  C   C585      1.0  0.00796  0.86444  0.30536  1.0000
  C   C586      1.0  0.01008  0.86290  0.07640  1.0000
  C   C587      1.0  0.28123  0.51415  0.23654  1.0000
  C   C588      1.0  0.43418  0.89402  0.06161  1.0000
  C   C589      1.0  0.46112  0.87184  0.10253  1.0000
  C   C590      1.0  0.02226  0.52015  0.02911  1.0000
  C   C591      1.0  0.43253  0.88297  0.08905  1.0000
  C   C592      1.0  0.00125  0.96325  0.12590  1.0000
  C   C593      1.0  0.02345  0.83081  0.07601  1.0000
  C   C594      1.0  0.31228  0.49086  0.27493  1.0000
  H   H454      1.0  0.39495  0.53744  0.26982  1.0000
  C   C595      1.0  0.12434  0.96632  0.33103  1.0000
  H   H455      1.0  0.46714  0.53214  0.18929  1.0000
  H   H456      1.0  0.35802  0.97419  0.27183  1.0000
  H   H457      1.0  0.02567  0.50323  0.10738  1.0000
  H   H458      1.0  0.01874  0.95760  0.08430  1.0000
  C   C596      1.0  0.35550  0.97143  0.01848  1.0000
  H   H459      1.0  0.98817  0.80193  0.01642  1.0000
  C   C597      1.0  0.42446  0.95269  0.23255  1.0000
  H   H460      1.0  0.01956  0.56049  0.05904  1.0000
  C   C598      1.0  0.98882  0.87327  0.05501  1.0000
  H   H461      1.0  0.41173  0.90255  0.05158  1.0000
  C   C599      1.0  0.01569  0.80889  0.05439  1.0000
  C   C600      1.0  0.38071  0.97727  0.26021  1.0000
  S   S83       1.0  0.98671  0.77008  0.11535  1.0000
  H   H462      1.0  0.45999  0.86403  0.12403  1.0000
  C   C601      1.0  0.39528  0.94935  0.24780  1.0000
  H   H463      1.0  0.47391  0.50227  0.32453  1.0000
  C   C602      1.0  0.37771  0.97798  0.04056  1.0000
  H   H464      1.0  0.43601  0.56187  0.10729  1.0000
  H   H465      1.0  0.48129  0.97130  0.32448  1.0000
  H   H466      1.0  0.04619  0.60156  0.02853  1.0000
  H   H467      1.0  0.02530  0.78370  0.05469  1.0000
  C   C603      1.0  0.11471  0.49094  0.28989  1.0000
  P   P19       1.0  0.00104  0.49029  0.05063  1.0000
  H   H468      1.0  0.14178  0.51111  0.62146  1.0000
  H   H469      1.0  0.04520  0.97173  0.38330  1.0000
  H   H470      1.0  0.43345  0.90210  0.37150  1.0000
  H   H471      1.0  0.39540  0.93840  0.64043  1.0000
  H   H472      1.0  0.99032  0.51153  0.54792  1.0000
  H   H473      1.0  0.40755  0.50144  0.36755  1.0000
  H   H474      1.0  0.34414  0.93746  0.51093  1.0000
  C   C604      1.0  0.98471  0.83020  0.54571  1.0000
  H   H475      1.0  0.02354  0.86742  0.38448  1.0000
  C   C605      1.0  0.14213  0.97986  0.35380  1.0000
  H   H476      1.0  0.98319  0.93245  0.42636  1.0000
  H   H477      1.0  0.02657  0.63354  0.57047  1.0000
  C   C606      1.0  0.36014  0.94114  0.67381  1.0000
  H   H478      1.0  0.45652  0.87108  0.47918  1.0000
  S   S84       1.0  0.42020  0.50409  0.55495  1.0000
  C   C607      1.0  0.38218  0.53381  0.67821  1.0000
  H   H479      1.0  0.31698  0.98328  0.59712  1.0000
  H   H480      1.0  0.46576  0.59318  0.43639  1.0000
  C   C608      1.0  0.08957  0.50435  0.61367  1.0000
  C   C609      1.0  0.47072  0.49062  0.40235  1.0000
  H   H481      1.0  0.48055  0.91599  0.50844  1.0000
  C   C610      1.0  0.36505  0.98245  0.63766  1.0000
  C   C611      1.0  0.37443  0.96979  0.53653  1.0000
  C   C612      1.0  0.00666  0.83543  0.64431  1.0000
  C   C613      1.0  0.47955  0.90895  0.39337  1.0000
  C   C614      1.0  0.34885  0.96292  0.51715  1.0000
  H   H482      1.0  0.41767  0.96168  0.37443  1.0000
  H   H483      1.0  0.38915  0.94969  0.54492  1.0000
  H   H484      1.0  0.08291  0.52753  0.62376  1.0000
  H   H485      1.0  0.03082  0.83346  0.63479  1.0000
  H   H486      1.0  0.99953  0.61788  0.61444  1.0000
  H   H487      1.0  0.99617  0.55901  0.62837  1.0000
  S   S85       1.0  0.48122  0.94286  0.59810  1.0000
  P   P20       1.0  0.02229  0.49724  0.60245  1.0000
  C   C615      1.0  0.47576  0.63351  0.40777  1.0000
  S   S86       1.0  0.00681  0.51419  0.34991  1.0000
  H   H488      1.0  0.05904  0.91458  0.39825  1.0000
  C   C616      1.0  0.98801  0.89785  0.36216  1.0000
  H   H489      1.0  0.98924  0.94127  0.52188  1.0000
  H   H490      1.0  0.44992  0.64009  0.40538  1.0000
  C   C617      1.0  0.44985  0.91983  0.38155  1.0000
  H   H491      1.0  0.05187  0.59033  0.54063  1.0000
  H   H492      1.0  0.99581  0.98176  0.35375  1.0000
  H   H493      1.0  0.39480  0.98309  0.46997  1.0000
  H   H494      1.0  0.41811  0.55828  0.65256  1.0000
  C   C618      1.0  0.02604  0.60768  0.57684  1.0000
  H   H495      1.0  0.32076  0.48626  0.61255  1.0000
  H   H496      1.0  0.05059  0.53128  0.55469  1.0000
  S   S87       1.0  0.47196  0.90247  0.67209  1.0000
  C   C619      1.0  0.37535  0.95258  0.64970  1.0000
  H   H497      1.0  0.28469  0.97698  0.55414  1.0000
  H   H498      1.0  0.00774  0.95948  0.63597  1.0000
  H   H499      1.0  0.45817  0.97662  0.45509  1.0000
  C   C620      1.0  0.00111  0.95689  0.36121  1.0000
  C   C621      1.0  0.00860  0.56525  0.60925  1.0000
  C   C622      1.0  0.02902  0.95124  0.37772  1.0000
  C   C623      1.0  0.00161  0.85891  0.66587  1.0000
  H   H500      1.0  0.98857  0.90451  0.61871  1.0000
  S   S88       1.0  0.29664  0.97847  0.48182  1.0000
  C   C624      1.0  0.03674  0.91899  0.38625  1.0000
  H   H501      1.0  0.16610  0.96982  0.35934  1.0000
  S   S89       1.0  0.46242  0.49609  0.48223  1.0000
  S   S90       1.0  0.98546  0.56273  0.41614  1.0000
  S   S91       1.0  0.98957  0.78363  0.60906  1.0000
  C   C625      1.0  0.02276  0.54050  0.59234  1.0000
  C   C626      1.0  0.36458  0.49241  0.58714  1.0000
  C   C627      1.0  0.03908  0.54986  0.56787  1.0000
  H   H502      1.0  0.35160  0.50615  0.57121  1.0000
  C   C628      1.0  0.01641  0.89234  0.37846  1.0000
  H   H503      1.0  0.42075  0.55945  0.35440  1.0000
  C   C629      1.0  0.04025  0.58326  0.55998  1.0000
  C   C630      1.0  0.44105  0.95341  0.38312  1.0000
  H   H504      1.0  0.02174  0.87470  0.67270  1.0000
  C   C631      1.0  0.00429  0.49277  0.63653  1.0000
  H   H505      1.0  0.44340  0.97718  0.50471  1.0000
  Fe  Fe43      1.0  0.99500  0.51149  0.39576  1.0000
  Fe  Fe44      1.0  0.46777  0.49536  0.52909  1.0000
  C   C632      1.0  0.01048  0.59873  0.60153  1.0000
  H   H506      1.0  0.99932  0.80949  0.55331  1.0000
  H   H507      1.0  0.36771  0.52489  0.66072  1.0000
  H   H508      1.0  0.47580  0.51272  0.41469  1.0000
  C   C633      1.0  0.41058  0.55275  0.67363  1.0000
  C   C634      1.0  0.12296  0.49526  0.61230  1.0000
  H   H509      1.0  0.98518  0.74505  0.37402  1.0000
  C   C635      1.0  0.46211  0.97618  0.39625  1.0000
  H   H510      1.0  0.98780  0.53809  0.47395  1.0000
  H   H511      1.0  0.05086  0.48722  0.65865  1.0000
  C   C636      1.0  0.39882  0.48645  0.58410  1.0000
  C   C637      1.0  0.02418  0.48874  0.66025  1.0000
  C   C638      1.0  0.98603  0.48585  0.55339  1.0000
  C   C639      1.0  0.33450  0.95955  0.68587  1.0000
  C   C640      1.0  0.45558  0.50087  0.81331  1.0000
  H   H512      1.0  0.05525  0.93894  0.98422  1.0000
  H   H513      1.0  0.35378  0.94654  0.01016  1.0000
  C   C641      1.0  0.41343  0.52933  0.78619  1.0000
  C   C642      1.0  0.31286  0.97663  0.76119  1.0000
  H   H514      1.0  0.32599  0.56465  0.73316  1.0000
  H   H515      1.0  0.00344  0.92744  0.94479  1.0000
  C   C643      1.0  0.98422  0.62951  0.97844  1.0000
  C   C644      1.0  0.34756  0.55827  0.77408  1.0000
  H   H516      1.0  0.32273  0.95055  0.70453  1.0000
  C   C645      1.0  0.46716  0.53138  0.82338  1.0000
  C   C646      1.0  0.45913  0.90937  0.92050  1.0000
  H   H517      1.0  0.98761  0.59880  0.68387  1.0000
  C   C647      1.0  0.11889  0.49175  0.79457  1.0000
  H   H518      1.0  0.10737  0.51025  0.80774  1.0000
  H   H519      1.0  0.27898  0.62006  0.79816  1.0000
  C   C648      1.0  0.41399  0.86394  0.99912  1.0000
  H   H520      1.0  0.06228  0.96753  0.84606  1.0000
  C   C649      1.0  0.40773  0.49653  0.86984  1.0000
  H   H521      1.0  0.05864  0.52683  0.96554  1.0000
  S   S92       1.0  0.01375  0.55979  0.92134  1.0000
  C   C650      1.0  0.44276  0.93445  0.90589  1.0000
  C   C651      1.0  0.46002  0.95336  0.88644  1.0000
  C   C652      1.0  0.39081  0.53783  0.72808  1.0000
  H   H522      1.0  0.34226  0.87192  0.96237  1.0000
  C   C653      1.0  0.38361  0.85525  0.98711  1.0000
  H   H523      1.0  0.42905  0.96040  0.69587  1.0000
  C   C654      1.0  0.42890  0.49978  0.79477  1.0000
  C   C655      1.0  0.99203  0.57966  0.94925  1.0000
  C   C656      1.0  0.41881  0.55775  0.72329  1.0000
  C   C657      1.0  0.99961  0.61299  0.95593  1.0000
  C   C658      1.0  0.30047  0.59385  0.76354  1.0000
  H   H524      1.0  0.41843  0.94401  0.97630  1.0000
  C   C659      1.0  0.36618  0.87837  0.97116  1.0000
  C   C660      1.0  0.37914  0.91019  0.96716  1.0000
  C   C661      1.0  0.05034  0.53390  0.98612  1.0000
  H   H525      1.0  0.44573  0.52113  0.89399  1.0000
  H   H526      1.0  0.36073  0.55609  0.81771  1.0000
  C   C662      1.0  0.34447  0.56684  0.80226  1.0000
  P   P21       1.0  0.37800  0.52796  0.76310  1.0000
  C   C663      1.0  0.42743  0.89577  0.99499  1.0000
  H   H527      1.0  0.15163  0.52690  0.77465  1.0000
  H   H528      1.0  0.31790  0.59601  0.83257  1.0000
  C   C664      1.0  0.29806  0.60281  0.79149  1.0000
  H   H529      1.0  0.36490  0.92851  0.95569  1.0000
  S   S93       1.0  0.01002  0.51316  0.85039  1.0000
  C   C665      1.0  0.03663  0.94926  0.99798  1.0000
  C   C666      1.0  0.14407  0.50113  0.77574  1.0000
  C   C667      1.0  0.45219  0.56092  0.81472  1.0000
  H   H530      1.0  0.35004  0.51165  0.70812  1.0000
  H   H531      1.0  0.39708  0.51961  0.86246  1.0000
  C   C668      1.0  0.42547  0.55997  0.79617  1.0000
  C   C669      1.0  0.32001  0.58926  0.81085  1.0000
  C   C670      1.0  0.46482  0.97113  0.72768  1.0000
  Fe  Fe45      1.0  0.02671  0.97895  0.76947  1.0000
  C   C671      1.0  0.42880  0.56488  0.69617  1.0000
  C   C672      1.0  0.32499  0.57156  0.75485  1.0000
  H   H532      1.0  0.41411  0.58316  0.78977  1.0000
  S   S94       1.0  0.19317  0.48992  0.73657  1.0000
  C   C673      1.0  0.40952  0.91896  0.97913  1.0000
  H   H533      1.0  0.02092  0.56146  0.71355  1.0000
  H   H534      1.0  0.43308  0.56790  0.74031  1.0000
  H   H535      1.0  0.06563  0.58488  0.98171  1.0000
  C   C674      1.0  0.10410  0.98252  0.87143  1.0000
  H   H536      1.0  0.36837  0.91804  0.68314  1.0000
  H   H537      1.0  0.46123  0.58461  0.82260  1.0000
  S   S95       1.0  0.98459  0.94211  0.77556  1.0000
  H   H538      1.0  0.45046  0.58018  0.69260  1.0000
  H   H539      1.0  0.02078  0.90151  0.01205  1.0000
  H   H540      1.0  0.10311  0.49983  0.71604  1.0000
  Fe  Fe46      1.0  0.98307  0.93635  0.72868  1.0000
  H   H541      1.0  0.48264  0.95329  0.71976  1.0000
  H   H542      1.0  0.41664  0.93905  0.90946  1.0000
  C   C675      1.0  0.99565  0.56741  0.71922  1.0000
  H   H543      1.0  0.01786  0.62608  0.94374  1.0000
  H   H544      1.0  0.37324  0.83074  0.99056  1.0000
  H   H545      1.0  0.42674  0.84596  0.01201  1.0000
  H   H546      1.0  0.46996  0.51534  0.73965  1.0000
  H   H547      1.0  0.28313  0.60400  0.74858  1.0000
  Fe  Fe47      1.0  0.00787  0.51039  0.89724  1.0000
  P   P22       1.0  0.46617  0.90711  0.01154  1.0000
  C   C676      1.0  0.37228  0.52636  0.70524  1.0000
  H   H548      1.0  0.15080  0.50236  0.68401  1.0000
  C   C677      1.0  0.05437  0.56667  0.99526  1.0000
  C   C678      1.0  0.03309  0.98371  0.00036  1.0000
  C   C679      1.0  0.98398  0.70363  0.68890  1.0000
  S   S96       1.0  0.02781  0.96899  0.72322  1.0000
  C   C680      1.0  0.35936  0.48711  0.76483  1.0000
  H   H549      1.0  0.99079  0.65495  0.98339  1.0000
  H   H550      1.0  0.09351  0.97294  0.89035  1.0000
  H   H551      1.0  0.44571  0.89420  0.93517  1.0000
  C   C681      1.0  0.43452  0.97527  0.71412  1.0000
  C   C682      1.0  0.47187  0.95155  0.00839  1.0000
  H   H552      1.0  0.44732  0.97275  0.87501  1.0000
  H   H553      1.0  0.30982  0.95088  0.76728  1.0000
  C   C683      1.0  0.08615  0.97963  0.84628  1.0000
  C   C684      1.0  0.03463  0.51062  0.00304  1.0000
  H   H554      1.0  0.45855  0.83897  0.69738  1.0000
  H   H555      1.0  0.99648  0.53732  0.75623  1.0000
  H   H556      1.0  0.32755  0.49905  0.79966  1.0000
  H   H557      1.0  0.00729  0.71039  0.69860  1.0000
  C   C685      1.0  0.48076  0.84854  0.70715  1.0000
  C   C686      1.0  0.00961  0.48691  0.68653  1.0000
  C   C687      1.0  0.47528  0.48913  0.73710  1.0000
  C   C688      1.0  0.43525  0.49746  0.88749  1.0000
  H   H558      1.0  0.47352  0.84401  0.98003  1.0000
  H   H559      1.0  0.36421  0.97818  0.77282  1.0000
  H   H560      1.0  0.26207  0.98227  0.74821  1.0000
  H   H561      1.0  0.00544  0.98341  0.92413  1.0000
  H   H562      1.0  0.03187  0.48535  0.99551  1.0000
  C   C689      1.0  0.01688  0.92806  0.01385  1.0000
  C   C690      1.0  0.48709  0.09964  0.20217  1.0000
  H   H563      1.0  0.69019  0.03622  0.33558  1.0000
  C   C691      1.0  0.95412  0.14582  0.08122  1.0000
  C   C692      1.0  0.65286  0.03276  0.30357  1.0000
  C   C693      1.0  0.49619  0.41031  0.31413  1.0000
  Fe  Fe48      1.0  0.49682  0.03200  0.14781  1.0000
  H   H564      1.0  0.76621  0.45940  0.12402  1.0000
  H   H565      1.0  0.50666  0.07263  0.34650  1.0000
  P   P23       1.0  0.51297  0.44236  0.33646  1.0000
  H   H566      1.0  0.92208  0.09388  0.17480  1.0000
  C   C694      1.0  0.91530  0.18772  0.06551  1.0000
  S   S97       1.0  0.49522  0.08391  0.16809  1.0000
  C   C695      1.0  0.64466  0.01221  0.03177  1.0000
  C   C696      1.0  0.60134  0.39317  0.34505  1.0000
  H   H567      1.0  0.86920  0.47105  0.33091  1.0000
  H   H568      1.0  0.71154  0.47959  0.10772  1.0000
  C   C697      1.0  0.96248  0.40223  0.02214  1.0000
  H   H569      1.0  0.88713  0.11045  0.04958  1.0000
  C   C698      1.0  0.54979  0.48069  0.29933  1.0000
  H   H570      1.0  0.93068  0.01138  0.09838  1.0000
  H   H571      1.0  0.90828  0.21365  0.06370  1.0000
  H   H572      1.0  0.60717  0.02586  0.06196  1.0000
  C   C699      1.0  0.94487  0.17920  0.07877  1.0000
  H   H573      1.0  0.65712  0.03599  0.03301  1.0000
  H   H574      1.0  0.48785  0.07869  0.27075  1.0000
  C   C700      1.0  0.93371  0.06371  0.10929  1.0000
  H   H575      1.0  0.56857  0.46158  0.30024  1.0000
  H   H576      1.0  0.65175  0.05940  0.30027  1.0000
  H   H577      1.0  0.96059  0.19849  0.08747  1.0000
  H   H578      1.0  0.56708  0.40340  0.31214  1.0000
  C   C701      1.0  0.52102  0.47869  0.31550  1.0000
  S   S98       1.0  0.49798  0.44835  0.02671  1.0000
  C   C702      1.0  0.91737  0.04244  0.16298  1.0000
  C   C703      1.0  0.87546  0.02282  0.03239  1.0000
  C   C704      1.0  0.67444  0.01976  0.32351  1.0000
  C   C705      1.0  0.93144  0.08672  0.13122  1.0000
  H   H579      1.0  0.48706  0.44263  0.27903  1.0000
  H   H580      1.0  0.50104  0.11221  0.02853  1.0000
  H   H581      1.0  0.87158  0.16939  0.04493  1.0000
  H   H582      1.0  0.48682  0.48227  0.22706  1.0000
  C   C706      1.0  0.90375  0.12930  0.05753  1.0000
  C   C707      1.0  0.91967  0.01935  0.14136  1.0000
  C   C708      1.0  0.93378  0.12057  0.07044  1.0000
  H   H583      1.0  0.81773  0.48501  0.10613  1.0000
  H   H584      1.0  0.93675  0.11281  0.12815  1.0000
  C   C709      1.0  0.93781  0.05010  0.02190  1.0000
  C   C710      1.0  0.61625  0.00654  0.04827  1.0000
  C   C711      1.0  0.57267  0.40741  0.33388  1.0000
  C   C712      1.0  0.92312  0.07609  0.15787  1.0000
  C   C713      1.0  0.57662  0.45579  0.19913  1.0000
  C   C714      1.0  0.59498  0.48104  0.09458  1.0000
  C   C715      1.0  0.89471  0.16277  0.05492  1.0000
  H   H585      1.0  0.91550  0.99327  0.14555  1.0000
  H   H586      1.0  0.58827  0.43237  0.20449  1.0000
  H   H587      1.0  0.85102  0.01274  0.03631  1.0000
  C   C716      1.0  0.54986  0.45633  0.18070  1.0000
  H   H588      1.0  0.81145  0.47504  0.31300  1.0000
  H   H589      1.0  0.96190  0.37646  0.02876  1.0000
  H   H590      1.0  0.54064  0.43325  0.17193  1.0000
  C   C717      1.0  0.92391  0.05339  0.04842  1.0000
  H   H591      1.0  0.49563  0.05377  0.22383  1.0000
  C   C718      1.0  0.98029  0.45932  0.02965  1.0000
  P   P24       1.0  0.94507  0.07736  0.07488  1.0000
  S   S99       1.0  0.89823  0.99133  0.28833  1.0000
  H   H592      1.0  0.96774  0.46935  0.10144  1.0000
  S   S100      1.0  0.49416  0.03336  0.10090  1.0000
  C   C719      1.0  0.76488  0.47875  0.10847  1.0000
  C   C720      1.0  0.48602  0.41757  0.28692  1.0000
  C   C721      1.0  0.63258  0.01144  0.28803  1.0000
  H   H593      1.0  0.97700  0.13976  0.09185  1.0000
  Fe  Fe49      1.0  0.96552  0.47691  0.34415  1.0000
  H   H594      1.0  0.66829  0.47514  0.30439  1.0000
  C   C722      1.0  0.48361  0.35201  0.30585  1.0000
  H   H595      1.0  0.57449  0.46428  0.09079  1.0000
  H   H596      1.0  0.88052  0.04323  0.07339  1.0000
  C   C723      1.0  0.89239  0.03990  0.05344  1.0000
  H   H597      1.0  0.98091  0.15945  0.17978  1.0000
  C   C724      1.0  0.92808  0.02982  0.11465  1.0000
  H   H598      1.0  0.60494  0.46221  0.13576  1.0000
  C   C725      1.0  0.48944  0.07983  0.22594  1.0000
  H   H599      1.0  0.91179  0.03421  0.18384  1.0000
  H   H600      1.0  0.61772  0.37870  0.33192  1.0000
  C   C726      1.0  0.49481  0.37731  0.32347  1.0000
  H   H601      1.0  0.98089  0.10289  0.20076  1.0000
  H   H602      1.0  0.61548  0.02195  0.27306  1.0000
  H   H603      1.0  0.97188  0.98670  0.04857  1.0000
  H   H604      1.0  0.96134  0.06148  0.01713  1.0000
  C   C727      1.0  0.97791  0.42626  0.03878  1.0000
  H   H605      1.0  0.92639  0.98649  0.34480  1.0000
  H   H606      1.0  0.64708  0.99733  0.18455  1.0000
  C   C728      1.0  0.48510  0.09411  0.25257  1.0000
  C   C729      1.0  0.61238  0.47989  0.12013  1.0000
  S   S101      1.0  0.53496  0.99035  0.14691  1.0000
  H   H607      1.0  0.96094  0.28242  0.34340  1.0000
  H   H608      1.0  0.50291  0.37097  0.34423  1.0000
  C   C730      1.0  0.86455  0.48137  0.31059  1.0000
  H   H609      1.0  0.64700  0.99140  0.23535  1.0000
  Fe  Fe50      1.0  0.52800  0.98866  0.10027  1.0000
  C   C731      1.0  0.67545  0.98548  0.32813  1.0000
  C   C732      1.0  0.83175  0.48365  0.30032  1.0000
  H   H610      1.0  0.48291  0.32652  0.31310  1.0000
  H   H611      1.0  0.61030  0.48513  0.22371  1.0000
  H   H612      1.0  0.48545  0.36356  0.59699  1.0000
  S   S102      1.0  0.50556  0.29540  0.36412  1.0000
  H   H613      1.0  0.58060  0.45070  0.65627  1.0000
  C   C733      1.0  0.97614  0.11080  0.56738  1.0000
  C   C734      1.0  0.96835  0.46581  0.53474  1.0000
  C   C735      1.0  0.92594  0.01691  0.44636  1.0000
  C   C736      1.0  0.95160  0.09668  0.52297  1.0000
  H   H614      1.0  0.96750  0.99942  0.65575  1.0000
  H   H615      1.0  0.52487  0.08714  0.53945  1.0000
  Fe  Fe51      1.0  0.50234  0.02186  0.64172  1.0000
  C   C737      1.0  0.96599  0.01158  0.55573  1.0000
  C   C738      1.0  0.49058  0.48285  0.37952  1.0000
  H   H616      1.0  0.59163  0.41622  0.41247  1.0000
  S   S103      1.0  0.95256  0.47554  0.38968  1.0000
  H   H617      1.0  0.52097  0.45246  0.67867  1.0000
  S   S104      1.0  0.49694  0.44765  0.52931  1.0000
  C   C739      1.0  0.48506  0.45346  0.36424  1.0000
  C   C740      1.0  0.97319  0.41925  0.56615  1.0000
  P   P25       1.0  0.51922  0.99473  0.42527  1.0000
  C   C741      1.0  0.98228  0.13508  0.42851  1.0000
  H   H618      1.0  0.63696  0.43957  0.67280  1.0000
  H   H619      1.0  0.48924  0.34646  0.54811  1.0000
  H   H620      1.0  0.92398  0.10339  0.56084  1.0000
  H   H621      1.0  0.57984  0.40130  0.53952  1.0000
  H   H622      1.0  0.88206  0.98704  0.61017  1.0000
  C   C742      1.0  0.58326  0.36690  0.64481  1.0000
  C   C743      1.0  0.50212  0.09046  0.52776  1.0000
  C   C744      1.0  0.60827  0.99337  0.53994  1.0000
  H   H623      1.0  0.97765  0.16827  0.39371  1.0000
  H   H624      1.0  0.95976  0.47603  0.51520  1.0000
  S   S105      1.0  0.50995  0.07399  0.66109  1.0000
  C   C745      1.0  0.55954  0.39267  0.55229  1.0000
  H   H625      1.0  0.87296  0.08171  0.43733  1.0000
  C   C746      1.0  0.51386  0.06433  0.42652  1.0000
  S   S106      1.0  0.50222  0.02099  0.59476  1.0000
  C   C747      1.0  0.93176  0.00677  0.55596  1.0000
  S   S107      1.0  0.68418  0.98806  0.48385  1.0000
  H   H626      1.0  0.52570  0.11602  0.49401  1.0000
  C   C748      1.0  0.96206  0.43251  0.54106  1.0000
  C   C749      1.0  0.50630  0.37196  0.58494  1.0000
  C   C750      1.0  0.51763  0.45000  0.63394  1.0000
  C   C751      1.0  0.49696  0.38413  0.65083  1.0000
  C   C752      1.0  0.50501  0.36056  0.67120  1.0000
  H   H627      1.0  0.91597  0.02483  0.56619  1.0000
  C   C753      1.0  0.94826  0.10329  0.55134  1.0000
  H   H628      1.0  0.56906  0.34659  0.63592  1.0000
  C   C754      1.0  0.63454  0.38693  0.66493  1.0000
  P   P26       1.0  0.52877  0.40650  0.63224  1.0000
  H   H629      1.0  0.92103  0.11262  0.45591  1.0000
  H   H630      1.0  0.56787  0.00340  0.38004  1.0000
  C   C755      1.0  0.56974  0.39909  0.64616  1.0000
  C   C756      1.0  0.50786  0.99577  0.46161  1.0000
  C   C757      1.0  0.53507  0.37219  0.54087  1.0000
  C   C758      1.0  0.89702  0.03404  0.43935  1.0000
  C   C759      1.0  0.53071  0.39278  0.59651  1.0000
  C   C760      1.0  0.50794  0.09872  0.38556  1.0000
  C   C761      1.0  0.89546  0.06851  0.44279  1.0000
  H   H631      1.0  0.97333  0.11675  0.58919  1.0000
  H   H632      1.0  0.57626  0.41947  0.58823  1.0000
  C   C762      1.0  0.51067  0.09576  0.41434  1.0000
  H   H633      1.0  0.53041  0.35539  0.67653  1.0000
  C   C763      1.0  0.63421  0.00136  0.52146  1.0000
  C   C764      1.0  0.55800  0.42864  0.37931  1.0000
  C   C765      1.0  0.62162  0.41914  0.66566  1.0000
  H   H634      1.0  0.54636  0.34255  0.39393  1.0000
  S   S108      1.0  0.59423  0.47417  0.54452  1.0000
  H   H635      1.0  0.63030  0.38513  0.38203  1.0000
  S   S109      1.0  0.54088  0.47824  0.47863  1.0000
  Fe  Fe52      1.0  0.54217  0.48079  0.52551  1.0000
  C   C766      1.0  0.51431  0.03553  0.40989  1.0000
  C   C767      1.0  0.50254  0.10663  0.50214  1.0000
  C   C768      1.0  0.60840  0.39671  0.37328  1.0000
  C   C769      1.0  0.50958  0.46779  0.60985  1.0000
  C   C770      1.0  0.49059  0.99593  0.51803  1.0000
  H   H636      1.0  0.51149  0.01707  0.36760  1.0000
  C   C771      1.0  0.58940  0.42531  0.65630  1.0000
  C   C772      1.0  0.53050  0.00701  0.48178  1.0000
  H   H637      1.0  0.94884  0.41684  0.52636  1.0000
  C   C773      1.0  0.57915  0.98895  0.39634  1.0000
  C   C774      1.0  0.52195  0.00672  0.50988  1.0000
  C   C775      1.0  0.50834  0.07024  0.36888  1.0000
  H   H638      1.0  0.97562  0.02037  0.46178  1.0000
  C   C776      1.0  0.51436  0.37127  0.42088  1.0000
  H   H639      1.0  0.54106  0.44098  0.39331  1.0000
  C   C777      1.0  0.61538  0.36079  0.65446  1.0000
  H   H640      1.0  0.53429  0.38582  0.42972  1.0000
  H   H641      1.0  0.75785  0.45702  0.56618  1.0000
  H   H642      1.0  0.53632  0.36496  0.51920  1.0000
  H   H643      1.0  0.59595  0.01286  0.55151  1.0000
  H   H644      1.0  0.51069  0.45617  0.58961  1.0000
  H   H645      1.0  0.92685  0.99021  0.44366  1.0000
  C   C778      1.0  0.55735  0.40302  0.57995  1.0000
  C   C779      1.0  0.97256  0.13673  0.66003  1.0000
  H   H646      1.0  0.72640  0.47312  0.52399  1.0000
  H   H647      1.0  0.64146  0.02707  0.51893  1.0000
  H   H648      1.0  0.68824  0.48252  0.60953  1.0000
  H   H649      1.0  0.53973  0.01455  0.52548  1.0000
  C   C780      1.0  0.58670  0.41435  0.39040  1.0000
  C   C781      1.0  0.95349  0.03420  0.45662  1.0000
  H   H650      1.0  0.84737  0.01657  0.57618  1.0000
  H   H651      1.0  0.92958  0.09162  0.51087  1.0000
  H   H652      1.0  0.97669  0.03331  0.56572  1.0000
  H   H653      1.0  0.95186  0.15249  0.66556  1.0000
  C   C782      1.0  0.95221  0.06893  0.45997  1.0000
  Fe  Fe53      1.0  0.49348  0.44938  0.48246  1.0000
  H   H654      1.0  0.51630  0.06271  0.44882  1.0000
  C   C783      1.0  0.52112  0.34657  0.40063  1.0000
  H   H655      1.0  0.87580  0.02058  0.43116  1.0000
  H   H656      1.0  0.96852  0.39329  0.57084  1.0000
  C   C784      1.0  0.92285  0.08591  0.45316  1.0000
  H   H657      1.0  0.58107  0.48434  0.41112  1.0000
  H   H658      1.0  0.50589  0.12312  0.37611  1.0000
  C   C785      1.0  0.83850  0.99375  0.58546  1.0000
  H   H659      1.0  0.97701  0.11315  0.41611  1.0000
  C   C786      1.0  0.49560  0.32680  0.38923  1.0000
  C   C787      1.0  0.97728  0.10622  0.67408  1.0000
  H   H660      1.0  0.79214  0.99447  0.56312  1.0000
  H   H661      1.0  0.55496  0.01554  0.47591  1.0000
  H   H662      1.0  0.51087  0.11798  0.42714  1.0000
  C   C788      1.0  0.64664  0.47990  0.58111  1.0000
  C   C789      1.0  0.51125  0.03879  0.38095  1.0000
  H   H663      1.0  0.66124  0.46970  0.56433  1.0000
  H   H664      1.0  0.97090  0.33826  0.36414  1.0000
  C   C790      1.0  0.50847  0.36188  0.55718  1.0000
  H   H665      1.0  0.62572  0.33594  0.65325  1.0000
  C   C791      1.0  0.55094  0.42570  0.35084  1.0000
  C   C792      1.0  0.51517  0.46588  0.65985  1.0000
  H   H666      1.0  0.50074  0.14273  0.67636  1.0000
  H   H667      1.0  0.48392  0.99562  0.53977  1.0000
  C   C793      1.0  0.74679  0.48152  0.56472  1.0000
  C   C794      1.0  0.98270  0.16628  0.41572  1.0000
  H   H668      1.0  0.65970  0.38244  0.67190  1.0000
  H   H669      1.0  0.48472  0.04698  0.00074  1.0000
  C   C795      1.0  0.51120  0.43358  0.84548  1.0000
  C   C796      1.0  0.54215  0.35743  0.78337  1.0000
  C   C797      1.0  0.84194  0.47888  0.75910  1.0000
  H   H670      1.0  0.56515  0.32231  0.71086  1.0000
  H   H671      1.0  0.96036  0.09883  0.69028  1.0000
  H   H672      1.0  0.52312  0.40004  0.91136  1.0000
  H   H673      1.0  0.49602  0.04823  0.71717  1.0000
  C   C798      1.0  0.82828  0.48249  0.84502  1.0000
  C   C799      1.0  0.49038  0.36473  0.93042  1.0000
  Fe  Fe54      1.0  0.49680  0.43907  0.98011  1.0000
  H   H674      1.0  0.82502  0.06831  0.87629  1.0000
  S   S110      1.0  0.89968  0.99175  0.79040  1.0000
  C   C800      1.0  0.95061  0.44408  0.98755  1.0000
  C   C801      1.0  0.92102  0.03267  0.00104  1.0000
  H   H675      1.0  0.95991  0.14372  0.96209  1.0000
  C   C802      1.0  0.84987  0.06284  0.88348  1.0000
  H   H676      1.0  0.63227  0.99530  0.95939  1.0000
  C   C803      1.0  0.55628  0.36662  0.73519  1.0000
  C   C804      1.0  0.96561  0.46827  0.00431  1.0000
  C   C805      1.0  0.85913  0.43470  0.86145  1.0000
  C   C806      1.0  0.56476  0.45720  0.81470  1.0000
  S   S111      1.0  0.80844  0.46885  0.73632  1.0000
  C   C807      1.0  0.87165  0.45372  0.88338  1.0000
  H   H677      1.0  0.85414  0.42750  0.76685  1.0000
  H   H678      1.0  0.89968  0.44004  0.80034  1.0000
  C   C808      1.0  0.65718  0.98744  0.01384  1.0000
  S   S112      1.0  0.53826  0.47548  0.97261  1.0000
  H   H679      1.0  0.93634  0.10343  0.92888  1.0000
  C   C809      1.0  0.61338  0.42835  0.75958  1.0000
  H   H680      1.0  0.92482  0.04038  0.85815  1.0000
  H   H681      1.0  0.53961  0.30615  0.79610  1.0000
  H   H682      1.0  0.53206  0.46118  0.87976  1.0000
  H   H683      1.0  0.53193  0.36585  0.86874  1.0000
  C   C810      1.0  0.97020  0.11885  0.96063  1.0000
  C   C811      1.0  0.51415  0.42516  0.81746  1.0000
  C   C812      1.0  0.55189  0.31044  0.75283  1.0000
  C   C813      1.0  0.58257  0.44107  0.75109  1.0000
  H   H684      1.0  0.82784  0.43439  0.82520  1.0000
  C   C814      1.0  0.54403  0.32307  0.77901  1.0000
  C   C815      1.0  0.90650  0.04699  0.87354  1.0000
  H   H685      1.0  0.86914  0.05492  0.84234  1.0000
  H   H686      1.0  0.61470  0.40857  0.77476  1.0000
  H   H687      1.0  0.89377  0.05442  0.94318  1.0000
  C   C816      1.0  0.49399  0.07505  0.71776  1.0000
  P   P27       1.0  0.54509  0.42425  0.76591  1.0000
  S   S113      1.0  0.50813  0.30132  0.85094  1.0000
  C   C817      1.0  0.49897  0.09326  0.69343  1.0000
  C   C818      1.0  0.85696  0.06268  0.91185  1.0000
  H   H688      1.0  0.48544  0.07735  0.76197  1.0000
  C   C819      1.0  0.48788  0.09168  0.74319  1.0000
  H   H689      1.0  0.58561  0.46688  0.80323  1.0000
  C   C820      1.0  0.91385  0.04647  0.90206  1.0000
  H   H690      1.0  0.88896  0.44269  0.89792  1.0000
  C   C821      1.0  0.64155  0.46694  0.72926  1.0000
  H   H691      1.0  0.48822  0.17168  0.72087  1.0000
  C   C822      1.0  0.55835  0.33220  0.73098  1.0000
  C   C823      1.0  0.54760  0.37956  0.76131  1.0000
  H   H692      1.0  0.48619  0.32462  0.70046  1.0000
  C   C824      1.0  0.95669  0.09572  0.94203  1.0000
  C   C825      1.0  0.86027  0.45309  0.77163  1.0000
  C   C826      1.0  0.51541  0.35700  0.88470  1.0000
  H   H693      1.0  0.93853  0.39211  0.98302  1.0000
  H   H694      1.0  0.86675  0.40901  0.85895  1.0000
  C   C827      1.0  0.51052  0.37646  0.90894  1.0000
  P   P28       1.0  0.95457  0.03435  0.91431  1.0000
  H   H695      1.0  0.55331  0.28374  0.74964  1.0000
  H   H696      1.0  0.53681  0.36610  0.80410  1.0000
  C   C828      1.0  0.88885  0.05477  0.92112  1.0000
  C   C829      1.0  0.49954  0.32600  0.88115  1.0000
  H   H697      1.0  0.56153  0.38318  0.71806  1.0000
  H   H698      1.0  0.83752  0.06807  0.92664  1.0000
  C   C830      1.0  0.87471  0.05530  0.86436  1.0000
  C   C831      1.0  0.88619  0.46011  0.79059  1.0000
  C   C832      1.0  0.83719  0.44899  0.84248  1.0000
  H   H699      1.0  0.49824  0.00919  0.96153  1.0000
  C   C833      1.0  0.54145  0.43603  0.80202  1.0000
  C   C834      1.0  0.64274  0.44127  0.74868  1.0000
  C   C835      1.0  0.95288  0.99287  0.92894  1.0000
  C   C836      1.0  0.53456  0.45438  0.85804  1.0000
  C   C837      1.0  0.97013  0.06353  0.93991  1.0000
  C   C838      1.0  0.50111  0.47475  0.75221  1.0000
  H   H700      1.0  0.97287  0.42010  0.73922  1.0000
  H   H701      1.0  0.94063  0.45078  0.96744  1.0000
  C   C839      1.0  0.50914  0.44104  0.74846  1.0000
  C   C840      1.0  0.98278  0.03441  0.88531  1.0000
  S   S114      1.0  0.69339  0.99599  0.99358  1.0000
  C   C841      1.0  0.94921  0.41104  0.99639  1.0000
  Fe  Fe55      1.0  0.95080  0.98604  0.76911  1.0000
  H   H702      1.0  0.49539  0.40971  0.80793  1.0000
  C   C842      1.0  0.88975  0.01925  0.00617  1.0000
  C   C843      1.0  0.48556  0.12667  0.74468  1.0000
  H   H703      1.0  0.66649  0.43151  0.75533  1.0000
  H   H704      1.0  0.93210  0.02997  0.98079  1.0000
  H   H705      1.0  0.74456  0.98731  0.81305  1.0000
  H   H706      1.0  0.83297  0.99622  0.81097  1.0000
  H   H707      1.0  0.49089  0.42376  0.85748  1.0000
  C   C844      1.0  0.48859  0.99913  0.98070  1.0000
  S   S115      1.0  0.48434  0.38691  0.96239  1.0000
  H   H708      1.0  0.49508  0.39545  0.72721  1.0000
  S   S116      1.0  0.96120  0.47994  0.89791  1.0000
  Fe  Fe56      1.0  0.96431  0.48110  0.85097  1.0000
  C   C845      1.0  0.58160  0.46649  0.73116  1.0000
  H   H709      1.0  0.87646  0.00640  0.98974  1.0000
  H   H710      1.0  0.55845  0.47652  0.72368  1.0000
  H   H711      1.0  0.89963  0.99236  0.93563  1.0000
  C   C846      1.0  0.49668  0.12825  0.69490  1.0000
  C   C847      1.0  0.48959  0.14481  0.72018  1.0000
  C   C848      1.0  0.48995  0.42160  0.73023  1.0000
  H   H712      1.0  0.49569  0.98680  0.76173  1.0000
  C   C849      1.0  0.56118  0.46641  0.84258  1.0000
  H   H713      1.0  0.66427  0.47705  0.72076  1.0000
  C   C850      1.0  0.84788  0.98610  0.82758  1.0000
  C   C851      1.0  0.61101  0.47947  0.72048  1.0000
  H   H714      1.0  0.58009  0.98562  0.80976  1.0000
  H   H715      1.0  0.57917  0.48275  0.85232  1.0000
  H   H716      1.0  0.80718  0.98541  0.85686  1.0000
  H   H717      1.0  0.96857  0.98546  0.87067  1.0000
  H   H718      1.0  0.82983  0.84768  0.18528  1.0000
  C   C852      1.0  0.72157  0.55606  0.02360  1.0000
  Fe  Fe57      1.0  0.93674  0.68564  0.04141  1.0000
  H   H719      1.0  0.89557  0.54653  0.11389  1.0000
  Fe  Fe58      1.0  0.95240  0.74461  0.08338  1.0000
  S   S117      1.0  0.90480  0.77022  0.07363  1.0000
  Fe  Fe59      1.0  0.88195  0.71949  0.07515  1.0000
  S   S118      1.0  0.83426  0.71219  0.09859  1.0000
  S   S119      1.0  0.53895  0.76676  0.34563  1.0000
  C   C853      1.0  0.95319  0.53870  0.06278  1.0000
  S   S120      1.0  0.92889  0.69377  0.08758  1.0000
  C   C854      1.0  0.50868  0.97373  0.28624  1.0000
  Fe  Fe60      1.0  0.70717  0.52482  0.17569  1.0000
  S   S121      1.0  0.72386  0.57506  0.16094  1.0000
  Fe  Fe61      1.0  0.76226  0.52280  0.22231  1.0000
  S   S122      1.0  0.78152  0.57273  0.21003  1.0000
  Fe  Fe62      1.0  0.72836  0.58798  0.20614  1.0000
  S   S123      1.0  0.71485  0.63740  0.22504  1.0000
  Fe  Fe63      1.0  0.77537  0.55475  0.16636  1.0000
  S   S124      1.0  0.81666  0.56274  0.13581  1.0000
  S   S125      1.0  0.70867  0.53935  0.22115  1.0000
  P   P29       1.0  0.75876  0.56312  0.04385  1.0000
  H   H720      1.0  0.95053  0.81391  0.25624  1.0000
  H   H721      1.0  0.51708  0.80558  0.22820  1.0000
  C   C855      1.0  0.91597  0.53614  0.10204  1.0000
  H   H722      1.0  0.74884  0.97197  0.04234  1.0000
  Fe  Fe64      1.0  0.53008  0.77471  0.29956  1.0000
  S   S126      1.0  0.58079  0.75635  0.28718  1.0000
  H   H723      1.0  0.83144  0.86924  0.09828  1.0000
  H   H724      1.0  0.89441  0.83229  0.20161  1.0000
  Fe  Fe65      1.0  0.55746  0.70543  0.28617  1.0000
  S   S127      1.0  0.56484  0.66403  0.25481  1.0000
  S   S128      1.0  0.50604  0.72383  0.29575  1.0000
  C   C856      1.0  0.88445  0.50464  0.26769  1.0000
  Fe  Fe66      1.0  0.52025  0.71416  0.34051  1.0000
  H   H725      1.0  0.56787  0.92635  0.17786  1.0000
  H   H726      1.0  0.63899  0.54239  0.06371  1.0000
  Fe  Fe67      1.0  0.49081  0.95620  0.14941  1.0000
  C   C857      1.0  0.51252  0.83211  0.22852  1.0000
  C   C858      1.0  0.91226  0.93421  0.02833  1.0000
  H   H727      1.0  0.57612  0.50818  0.26830  1.0000
  S   S129      1.0  0.94741  0.97898  0.22128  1.0000
  C   C859      1.0  0.97740  0.85276  0.31529  1.0000
  C   C860      1.0  0.67334  0.64282  0.23484  1.0000
  C   C861      1.0  0.66478  0.67025  0.25136  1.0000
  C   C862      1.0  0.63158  0.67622  0.25829  1.0000
  C   C863      1.0  0.60674  0.65516  0.24825  1.0000
  C   C864      1.0  0.61537  0.62721  0.23228  1.0000
  C   C865      1.0  0.64869  0.62091  0.22572  1.0000
  H   H728      1.0  0.68381  0.68716  0.25857  1.0000
  H   H729      1.0  0.62517  0.69760  0.27087  1.0000
  H   H730      1.0  0.59632  0.61075  0.22454  1.0000
  H   H731      1.0  0.65519  0.59974  0.21293  1.0000
  H   H732      1.0  0.84733  0.81084  0.08812  1.0000
  C   C866      1.0  0.58607  0.64180  0.16275  1.0000
  C   C867      1.0  0.73409  0.49015  0.09929  1.0000
  H   H733      1.0  0.53720  0.60635  0.21728  1.0000
  C   C868      1.0  0.79573  0.56350  0.02262  1.0000
  H   H734      1.0  0.85271  0.68576  0.29864  1.0000
  C   C869      1.0  0.62953  0.98072  0.19432  1.0000
  C   C870      1.0  0.76140  0.53001  0.06911  1.0000
  C   C871      1.0  0.52760  0.53510  0.11707  1.0000
  C   C872      1.0  0.55980  0.61957  0.16645  1.0000
  C   C873      1.0  0.50512  0.96769  0.31462  1.0000
  H   H735      1.0  0.79126  0.79703  0.01894  1.0000
  S   S130      1.0  0.58440  0.50541  0.04059  1.0000
  C   C874      1.0  0.76690  0.63187  0.05032  1.0000
  H   H736      1.0  0.81504  0.52984  0.07177  1.0000
  H   H737      1.0  0.97990  0.79196  0.34153  1.0000
  C   C875      1.0  0.92720  0.55230  0.07824  1.0000
  H   H738      1.0  0.91574  0.57540  0.07161  1.0000
  H   H739      1.0  0.96155  0.56556  0.21355  1.0000
  H   H740      1.0  0.79269  0.55114  0.30568  1.0000
  C   C876      1.0  0.83069  0.67095  0.11010  1.0000
  C   C877      1.0  0.80857  0.66314  0.13146  1.0000
  C   C878      1.0  0.80443  0.62996  0.13981  1.0000
  C   C879      1.0  0.82253  0.60461  0.12687  1.0000
  C   C880      1.0  0.84537  0.61260  0.10615  1.0000
  C   C881      1.0  0.84939  0.64569  0.09770  1.0000
  H   H741      1.0  0.79427  0.68266  0.14125  1.0000
  H   H742      1.0  0.78695  0.62396  0.15600  1.0000
  H   H743      1.0  0.85956  0.59311  0.09625  1.0000
  H   H744      1.0  0.86647  0.65153  0.08118  1.0000
  H   H745      1.0  0.92284  0.78489  0.19120  1.0000
  H   H746      1.0  0.78141  0.78540  0.16682  1.0000
  C   C882      1.0  0.85163  0.50739  0.25761  1.0000
  C   C883      1.0  0.91537  0.63887  0.32375  1.0000
  H   H747      1.0  0.60787  0.96468  0.15556  1.0000
  C   C884      1.0  0.65471  0.49777  0.29982  1.0000
  C   C885      1.0  0.65518  0.96415  0.31266  1.0000
  C   C886      1.0  0.49681  0.50368  0.31299  1.0000
  S   S131      1.0  0.57004  0.69367  0.33025  1.0000
  C   C887      1.0  0.64853  0.52394  0.10506  1.0000
  C   C888      1.0  0.50865  0.84969  0.20331  1.0000
  H   H748      1.0  0.81979  0.77302  0.24232  1.0000
  H   H749      1.0  0.66879  0.54089  0.10900  1.0000
  H   H750      1.0  0.90512  0.76389  0.25716  1.0000
  H   H751      1.0  0.82286  0.88742  0.14702  1.0000
  C   C889      1.0  0.91253  0.56620  0.19580  1.0000
  C   C890      1.0  0.93619  0.57383  0.21607  1.0000
  H   H752      1.0  0.91946  0.55205  0.17754  1.0000
  H   H753      1.0  0.85660  0.77125  0.12623  1.0000
  H   H754      1.0  0.94588  0.59786  0.25505  1.0000
  C   C891      1.0  0.93968  0.84577  0.15760  1.0000
  C   C892      1.0  0.75384  0.81187  0.11066  1.0000
  C   C893      1.0  0.56627  0.58474  0.33741  1.0000
  H   H755      1.0  0.57867  0.61979  0.30493  1.0000
  S   S132      1.0  0.78303  0.49766  0.26151  1.0000
  C   C894      1.0  0.92781  0.90987  0.04468  1.0000
  C   C895      1.0  0.94615  0.81965  0.13859  1.0000
  C   C896      1.0  0.75471  0.60236  0.06208  1.0000
  C   C897      1.0  0.74958  0.91832  0.04186  1.0000
  H   H756      1.0  0.72178  0.63547  0.12116  1.0000
  S   S133      1.0  0.95381  0.88839  0.20135  1.0000
  H   H757      1.0  0.60208  0.54695  0.15702  1.0000
  P   P30       1.0  0.60900  0.57251  0.34361  1.0000
  H   H758      1.0  0.96079  0.55126  0.04405  1.0000
  C   C898      1.0  0.61205  0.95134  0.02883  1.0000
  H   H759      1.0  0.56735  0.92016  0.22860  1.0000
  C   C899      1.0  0.87026  0.69340  0.28295  1.0000
  S   S134      1.0  0.88799  0.70932  0.02973  1.0000
  H   H760      1.0  0.58179  0.66835  0.16439  1.0000
  H   H761      1.0  0.53522  0.62935  0.17026  1.0000
  H   H762      1.0  0.85440  0.71158  0.15897  1.0000
  C   C900      1.0  0.61793  0.62978  0.15739  1.0000
  H   H763      1.0  0.63839  0.64695  0.15501  1.0000
  C   C901      1.0  0.49153  0.60390  0.23933  1.0000
  H   H764      1.0  0.69426  0.97558  0.06528  1.0000
  C   C902      1.0  0.69839  0.58171  0.01951  1.0000
  H   H765      1.0  0.90324  0.86366  0.24471  1.0000
  H   H766      1.0  0.87055  0.85009  0.28675  1.0000
  H   H767      1.0  0.55326  0.52771  0.11935  1.0000
  H   H768      1.0  0.84527  0.60294  0.22476  1.0000
  C   C903      1.0  0.87983  0.57683  0.19908  1.0000
  C   C904      1.0  0.65897  0.86286  0.27285  1.0000
  C   C905      1.0  0.63429  0.83880  0.27576  1.0000
  C   C906      1.0  0.60125  0.84853  0.27852  1.0000
  C   C907      1.0  0.59282  0.88224  0.27880  1.0000
  C   C908      1.0  0.61751  0.90660  0.27631  1.0000
  C   C909      1.0  0.65057  0.89663  0.27261  1.0000
  P   P31       1.0  0.60638  0.94985  0.27299  1.0000
  C   C910      1.0  0.50340  0.88323  0.25373  1.0000
  H   H769      1.0  0.51361  0.86400  0.09942  1.0000
  H   H770      1.0  0.49588  0.92746  0.22880  1.0000
  H   H771      1.0  0.54140  0.97362  0.25135  1.0000
  C   C911      1.0  0.85351  0.57925  0.01655  1.0000
  H   H772      1.0  0.50103  0.89644  0.27321  1.0000
  H   H773      1.0  0.51033  0.83630  0.18386  1.0000
  C   C912      1.0  0.66039  0.61490  0.32614  1.0000
  C   C913      1.0  0.87603  0.90300  0.32252  1.0000
  H   H774      1.0  0.49833  0.62414  0.25316  1.0000
  C   C914      1.0  0.50024  0.90095  0.22849  1.0000
  C   C915      1.0  0.66728  0.67135  0.34304  1.0000
  H   H775      1.0  0.70822  0.52418  0.07298  1.0000
  H   H776      1.0  0.92887  0.90491  0.10484  1.0000
  C   C916      1.0  0.53231  0.95700  0.33020  1.0000
  H   H777      1.0  0.93348  0.82444  0.30484  1.0000
  C   C917      1.0  0.63313  0.61048  0.34388  1.0000
  H   H778      1.0  0.64399  0.50782  0.34240  1.0000
  H   H779      1.0  0.69177  0.97533  0.34392  1.0000
  H   H780      1.0  0.64072  0.81260  0.27619  1.0000
  H   H781      1.0  0.58209  0.82990  0.28057  1.0000
  H   H782      1.0  0.56698  0.88902  0.28056  1.0000
  H   H783      1.0  0.66988  0.91494  0.26958  1.0000
  C   C918      1.0  0.95700  0.49282  0.09504  1.0000
  H   H784      1.0  0.84703  0.51740  0.23716  1.0000
  C   C919      1.0  0.49141  0.87187  0.08860  1.0000
  C   C920      1.0  0.66018  0.83765  0.03423  1.0000
  H   H785      1.0  0.58394  0.94401  0.32967  1.0000
  H   H786      1.0  0.92553  0.95613  0.02178  1.0000
  H   H787      1.0  0.86363  0.85493  0.04921  1.0000
  C   C921      1.0  0.63951  0.50107  0.12551  1.0000
  C   C922      1.0  0.57467  0.51591  0.20251  1.0000
  H   H788      1.0  0.95998  0.93522  0.33977  1.0000
  C   C923      1.0  0.56295  0.95208  0.31736  1.0000
  Fe  Fe68      1.0  0.91595  0.75759  0.02946  1.0000
  C   C924      1.0  0.87934  0.92997  0.01977  1.0000
  H   H789      1.0  0.73976  0.74648  0.06731  1.0000
  H   H790      1.0  0.51712  0.88369  0.05117  1.0000
  H   H791      1.0  0.83703  0.71284  0.21351  1.0000
  C   C925      1.0  0.70499  0.95142  0.06083  1.0000
  C   C926      1.0  0.73592  0.94939  0.04803  1.0000
  H   H792      1.0  0.92470  0.66242  0.23535  1.0000
  Fe  Fe69      1.0  0.97744  0.93213  0.22612  1.0000
  C   C927      1.0  0.70058  0.89112  0.06025  1.0000
  C   C928      1.0  0.68718  0.92248  0.06671  1.0000
  H   H793      1.0  0.81848  0.65852  0.26052  1.0000
  C   C929      1.0  0.82476  0.57871  0.03267  1.0000
  C   C930      1.0  0.64058  0.51635  0.32135  1.0000
  H   H794      1.0  0.58481  0.53881  0.21089  1.0000
  C   C931      1.0  0.50224  0.88420  0.20299  1.0000
  H   H795      1.0  0.67968  0.69526  0.34224  1.0000
  H   H796      1.0  0.74471  0.68700  0.10067  1.0000
  C   C932      1.0  0.72893  0.83338  0.10142  1.0000
  C   C933      1.0  0.96477  0.85866  0.17502  1.0000
  H   H797      1.0  0.82857  0.80526  0.28516  1.0000
  C   C934      1.0  0.53057  0.53246  0.27932  1.0000
  C   C935      1.0  0.64412  0.86058  0.09042  1.0000
  C   C936      1.0  0.90709  0.61480  0.30361  1.0000
  C   C937      1.0  0.63356  0.81518  0.03498  1.0000
  C   C938      1.0  0.59146  0.87328  0.12706  1.0000
  C   C939      1.0  0.61901  0.85509  0.13600  1.0000
  C   C940      1.0  0.64529  0.84875  0.11780  1.0000
  C   C941      1.0  0.90970  0.88160  0.05265  1.0000
  C   C942      1.0  0.79851  0.57532  0.29707  1.0000
  C   C943      1.0  0.70745  0.82364  0.07991  1.0000
  C   C944      1.0  0.58447  0.93757  0.21932  1.0000
  H   H798      1.0  0.66294  0.92503  0.07589  1.0000
  C   C945      1.0  0.52681  0.62059  0.31362  1.0000
  C   C946      1.0  0.58505  0.94065  0.19048  1.0000
  H   H799      1.0  0.82521  0.59012  0.05306  1.0000
  H   H800      1.0  0.77060  0.81979  0.12691  1.0000
  H   H801      1.0  0.72680  0.85791  0.11066  1.0000
  C   C947      1.0  0.78045  0.62661  0.27584  1.0000
  C   C948      1.0  0.50450  0.56887  0.19956  1.0000
  H   H802      1.0  0.84910  0.77697  0.02372  1.0000
  P   P32       1.0  0.53200  0.55618  0.17190  1.0000
  C   C949      1.0  0.73639  0.77059  0.07706  1.0000
  H   H803      1.0  0.57116  0.87837  0.14120  1.0000
  H   H804      1.0  0.61995  0.84598  0.15713  1.0000
  C   C950      1.0  0.93819  0.71024  0.16108  1.0000
  C   C951      1.0  0.75482  0.74202  0.17954  1.0000
  C   C952      1.0  0.75626  0.71165  0.19347  1.0000
  C   C953      1.0  0.78589  0.70128  0.20571  1.0000
  C   C954      1.0  0.81420  0.72124  0.20395  1.0000
  C   C955      1.0  0.81314  0.75150  0.18939  1.0000
  C   C956      1.0  0.78308  0.76197  0.17760  1.0000
  P   P33       1.0  0.84996  0.77696  0.18658  1.0000
  C   C957      1.0  0.85722  0.79933  0.21873  1.0000
  C   C958      1.0  0.88467  0.75050  0.17748  1.0000
  C   C959      1.0  0.91742  0.76099  0.18205  1.0000
  C   C960      1.0  0.94399  0.74094  0.17382  1.0000
  H   H805      1.0  0.61001  0.58064  0.28300  1.0000
  C   C961      1.0  0.90575  0.69956  0.15644  1.0000
  C   C962      1.0  0.87916  0.71976  0.16419  1.0000
  C   C963      1.0  0.83844  0.79230  0.24251  1.0000
  C   C964      1.0  0.84335  0.81054  0.26697  1.0000
  C   C965      1.0  0.86694  0.83592  0.26788  1.0000
  C   C966      1.0  0.88538  0.84342  0.24428  1.0000
  C   C967      1.0  0.88051  0.82530  0.21982  1.0000
  C   C968      1.0  0.84451  0.80652  0.15871  1.0000
  C   C969      1.0  0.84915  0.79649  0.13109  1.0000
  C   C970      1.0  0.84413  0.81898  0.10940  1.0000
  C   C971      1.0  0.83497  0.85180  0.11512  1.0000
  C   C972      1.0  0.83007  0.86198  0.14255  1.0000
  C   C973      1.0  0.83439  0.83937  0.16426  1.0000
  H   H806      1.0  0.73174  0.75002  0.17018  1.0000
  H   H807      1.0  0.73439  0.69609  0.19483  1.0000
  H   H808      1.0  0.78677  0.67753  0.21631  1.0000
  S   S135      1.0  0.96545  0.73405  0.03835  1.0000
  C   C974      1.0  0.59726  0.57332  0.15915  1.0000
  C   C975      1.0  0.50178  0.53060  0.29518  1.0000
  C   C976      1.0  0.56552  0.58511  0.16596  1.0000
  C   C977      1.0  0.50945  0.84862  0.25402  1.0000
  C   C978      1.0  0.62338  0.59555  0.15516  1.0000
  Fe  Fe70      1.0  0.58807  0.74628  0.33260  1.0000
  C   C979      1.0  0.53925  0.96856  0.27329  1.0000
  C   C980      1.0  0.51115  0.52842  0.09211  1.0000
  C   C981      1.0  0.54862  0.51674  0.18317  1.0000
  H   H809      1.0  0.64792  0.58606  0.15060  1.0000
  S   S136      1.0  0.51195  0.82732  0.28670  1.0000
  H   H810      1.0  0.73136  0.50356  0.01732  1.0000
  C   C982      1.0  0.88741  0.66951  0.26717  1.0000
  S   S137      1.0  0.49621  0.90452  0.17020  1.0000
  C   C983      1.0  0.89992  0.73765  0.25983  1.0000
  H   H811      1.0  0.86341  0.74554  0.29168  1.0000
  C   C984      1.0  0.89413  0.60218  0.24340  1.0000
  P   P34       1.0  0.67772  0.85317  0.06633  1.0000
  H   H812      1.0  0.83086  0.98304  0.30579  1.0000
  C   C985      1.0  0.73398  0.63451  0.10118  1.0000
  C   C986      1.0  0.60602  0.95649  0.23598  1.0000
  H   H813      1.0  0.85089  0.56756  0.29953  1.0000
  C   C987      1.0  0.60445  0.50345  0.07387  1.0000
  C   C988      1.0  0.63420  0.97687  0.29196  1.0000
  H   H814      1.0  0.61456  0.88758  0.06053  1.0000
  C   C989      1.0  0.75767  0.78050  0.09845  1.0000
  S   S138      1.0  0.56349  0.96690  0.06699  1.0000
  H   H815      1.0  0.59945  0.92775  0.02745  1.0000
  C   C990      1.0  0.74670  0.66359  0.08957  1.0000
  C   C991      1.0  0.90925  0.89362  0.32471  1.0000
  H   H816      1.0  0.91489  0.85581  0.15897  1.0000
  H   H817      1.0  0.92636  0.80974  0.12588  1.0000
  C   C992      1.0  0.51093  0.55075  0.13906  1.0000
  H   H818      1.0  0.83648  0.89800  0.02043  1.0000
  H   H819      1.0  0.48767  0.98227  0.27422  1.0000
  C   C993      1.0  0.56649  0.95712  0.28874  1.0000
  C   C994      1.0  0.92712  0.59196  0.23971  1.0000
  C   C995      1.0  0.76330  0.66225  0.06422  1.0000
  C   C996      1.0  0.62158  0.55716  0.28803  1.0000
  H   H820      1.0  0.56127  0.88652  0.33540  1.0000
  C   C997      1.0  0.55911  0.60872  0.31713  1.0000
  C   C998      1.0  0.61606  0.87833  0.08154  1.0000
  C   C999      1.0  0.59007  0.88497  0.09985  1.0000
  H   H821      1.0  0.56896  0.89957  0.09300  1.0000
  C   C1000     1.0  0.85360  0.89445  0.34328  1.0000
  H   H822      1.0  0.68461  0.85531  0.27087  1.0000
  C   C1001     1.0  0.93946  0.57415  0.32912  1.0000
  H   H823      1.0  0.52193  0.64030  0.29891  1.0000
  C   C1002     1.0  0.77296  0.59624  0.28828  1.0000
  S   S139      1.0  0.94272  0.63153  0.02503  1.0000
  C   C1003     1.0  0.86172  0.90162  0.02755  1.0000
  C   C1004     1.0  0.91886  0.58219  0.30683  1.0000
  H   H824      1.0  0.90477  0.51259  0.25474  1.0000
  C   C1005     1.0  0.81342  0.63586  0.27172  1.0000
  H   H825      1.0  0.53457  0.55340  0.26565  1.0000
  H   H826      1.0  0.77743  0.76404  0.10525  1.0000
  H   H827      1.0  0.91253  0.56289  0.29201  1.0000
  C   C1006     1.0  0.63139  0.52485  0.07940  1.0000
  C   C1007     1.0  0.91077  0.68017  0.24759  1.0000
  P   P35       1.0  0.88195  0.62559  0.27381  1.0000
  C   C1008     1.0  0.59966  0.97599  0.04691  1.0000
  C   C1009     1.0  0.87645  0.72732  0.27921  1.0000
  C   C1010     1.0  0.73213  0.88932  0.04812  1.0000
  H   H828      1.0  0.77956  0.63152  0.03061  1.0000
  H   H829      1.0  0.72837  0.58173  0.09714  1.0000
  C   C1011     1.0  0.51345  0.59404  0.21845  1.0000
  H   H830      1.0  0.66627  0.83460  0.12521  1.0000
  H   H831      1.0  0.77419  0.68466  0.05575  1.0000
  C   C1012     1.0  0.83155  0.58477  0.29351  1.0000
  H   H832      1.0  0.92166  0.49354  0.12855  1.0000
  C   C1013     1.0  0.83930  0.61537  0.28114  1.0000
  H   H833      1.0  0.77332  0.91660  0.03155  1.0000
  C   C1014     1.0  0.79222  0.51857  0.07865  1.0000
  C   C1015     1.0  0.73803  0.60398  0.08757  1.0000
  H   H834      1.0  0.93562  0.72197  0.22936  1.0000
  H   H835      1.0  0.95886  0.69528  0.15395  1.0000
  C   C1016     1.0  0.55427  0.50725  0.28112  1.0000
  C   C1017     1.0  0.71138  0.79202  0.06776  1.0000
  H   H836      1.0  0.90644  0.66409  0.32229  1.0000
  H   H837      1.0  0.62278  0.80794  0.05461  1.0000
  C   C1018     1.0  0.63634  0.53885  0.26665  1.0000
  C   C1019     1.0  0.50126  0.60879  0.33031  1.0000
  H   H838      1.0  0.86784  0.91753  0.30486  1.0000
  S   S140      1.0  0.75900  0.50321  0.17834  1.0000
  C   C1020     1.0  0.87068  0.59484  0.22272  1.0000
  H   H839      1.0  0.74293  0.86546  0.04276  1.0000
  C   C1021     1.0  0.60755  0.96225  0.17795  1.0000
  C   C1022     1.0  0.87693  0.87744  0.04393  1.0000
  H   H840      1.0  0.74739  0.58844  0.29029  1.0000
  H   H841      1.0  0.63572  0.54815  0.24557  1.0000
  S   S141      1.0  0.97730  0.93593  0.27302  1.0000
  C   C1023     1.0  0.62357  0.54610  0.31564  1.0000
  C   C1024     1.0  0.79389  0.49299  0.09821  1.0000
  H   H842      1.0  0.69579  0.78407  0.05070  1.0000
  H   H843      1.0  0.61073  0.81553  0.33143  1.0000
  C   C1025     1.0  0.65269  0.50904  0.27252  1.0000
  H   H844      1.0  0.63111  0.87382  0.33352  1.0000
  Fe  Fe71      1.0  0.94931  0.98384  0.26798  1.0000
  C   C1026     1.0  0.62903  0.97767  0.22323  1.0000
  C   C1027     1.0  0.94882  0.92172  0.11016  1.0000
  C   C1028     1.0  0.91704  0.71408  0.24406  1.0000
  H   H845      1.0  0.76061  0.64251  0.26856  1.0000
  H   H846      1.0  0.65571  0.93784  0.31732  1.0000
  C   C1029     1.0  0.73234  0.51559  0.07966  1.0000
  H   H847      1.0  0.86145  0.57099  0.18335  1.0000
  H   H848      1.0  0.92619  0.90099  0.30847  1.0000
  H   H849      1.0  0.90111  0.67615  0.14585  1.0000
  H   H850      1.0  0.94863  0.54902  0.33128  1.0000
  H   H851      1.0  0.70307  0.60666  0.02706  1.0000
  C   C1030     1.0  0.93077  0.50633  0.11036  1.0000
  C   C1031     1.0  0.96656  0.82773  0.27014  1.0000
  H   H852      1.0  0.66457  0.49507  0.25600  1.0000
  C   C1032     1.0  0.82499  0.49640  0.27368  1.0000
  S   S142      1.0  0.66080  0.49822  0.15817  1.0000
  H   H853      1.0  0.92108  0.86226  0.06510  1.0000
  C   C1033     1.0  0.95704  0.83381  0.29760  1.0000
  H   H854      1.0  0.69726  0.64908  0.31107  1.0000
  C   C1034     1.0  0.84606  0.98152  0.32425  1.0000
  H   H855      1.0  0.82802  0.90255  0.34190  1.0000
  H   H856      1.0  0.66869  0.59530  0.31241  1.0000
  C   C1035     1.0  0.89126  0.49145  0.29418  1.0000
  Fe  Fe72      1.0  0.53600  0.48868  0.01838  1.0000
  H   H857      1.0  0.48333  0.55008  0.29371  1.0000
  C   C1036     1.0  0.49323  0.88315  0.06121  1.0000
  C   C1037     1.0  0.67709  0.64539  0.32552  1.0000
  H   H858      1.0  0.52412  0.51599  0.07533  1.0000
  C   C1038     1.0  0.97784  0.80555  0.13686  1.0000
  H   H859      1.0  0.93315  0.92589  0.15277  1.0000
  S   S143      1.0  0.48440  0.95397  0.10283  1.0000
  H   H860      1.0  0.96921  0.74972  0.17641  1.0000
  H   H861      1.0  0.87578  0.59121  0.02443  1.0000
  C   C1039     1.0  0.64323  0.85478  0.34562  1.0000
  C   C1040     1.0  0.63185  0.82182  0.34424  1.0000
  C   C1041     1.0  0.95121  0.93342  0.13744  1.0000
  C   C1042     1.0  0.96896  0.50932  0.07148  1.0000
  S   S144      1.0  0.93352  0.48777  0.30525  1.0000
  C   C1043     1.0  0.89989  0.98318  0.34610  1.0000
  C   C1044     1.0  0.88070  0.98477  0.32190  1.0000
  C   C1045     1.0  0.53583  0.48667  0.17276  1.0000
  H   H862      1.0  0.96468  0.85832  0.01661  1.0000
  C   C1046     1.0  0.97734  0.95422  0.14528  1.0000
  C   C1047     1.0  0.93579  0.63059  0.34618  1.0000
  C   C1048     1.0  0.97261  0.93086  0.09043  1.0000
  P   P36       1.0  0.97056  0.91429  0.05552  1.0000
  C   C1049     1.0  0.98133  0.85114  0.03322  1.0000
  H   H863      1.0  0.97937  0.96306  0.16649  1.0000
  C   C1050     1.0  0.58894  0.48556  0.21009  1.0000
  H   H864      1.0  0.51548  0.48654  0.15808  1.0000
  H   H865      1.0  0.71119  0.62900  0.46076  1.0000
  C   C1051     1.0  0.54021  0.57301  0.35411  1.0000
  Fe  Fe73      1.0  0.78066  0.94809  0.41922  1.0000
  S   S145      1.0  0.76790  0.89551  0.40699  1.0000
  Fe  Fe74      1.0  0.71648  0.95489  0.45590  1.0000
  S   S146      1.0  0.70039  0.90320  0.44545  1.0000
  Fe  Fe75      1.0  0.75377  0.88900  0.45169  1.0000
  S   S147      1.0  0.76444  0.84468  0.47891  1.0000
  Fe  Fe76      1.0  0.71605  0.91518  0.40212  1.0000
  S   S148      1.0  0.68139  0.90525  0.36637  1.0000
  S   S149      1.0  0.76941  0.94016  0.46473  1.0000
  S   S150      1.0  0.72923  0.96838  0.41161  1.0000
  P   P37       1.0  0.70188  0.58673  0.55854  1.0000
  C   C1052     1.0  0.89116  0.55653  0.52342  1.0000
  C   C1053     1.0  0.86745  0.59076  0.47678  1.0000
  H   H866      1.0  0.90083  0.54336  0.54120  1.0000
  H   H867      1.0  0.64312  0.58908  0.39661  1.0000
  H   H868      1.0  0.78197  0.61728  0.64130  1.0000
  C   C1054     1.0  0.66954  0.86335  0.36321  1.0000
  C   C1055     1.0  0.68556  0.83858  0.37846  1.0000
  C   C1056     1.0  0.67497  0.80537  0.37630  1.0000
  H   H869      1.0  0.87952  0.51184  0.50064  1.0000
  H   H870      1.0  0.68684  0.82126  0.43810  1.0000
  H   H871      1.0  0.55074  0.82400  0.67127  1.0000
  H   H872      1.0  0.70614  0.84499  0.39185  1.0000
  H   H873      1.0  0.68745  0.78620  0.38806  1.0000
  H   H874      1.0  0.65439  0.92367  0.49914  1.0000
  C   C1057     1.0  0.71766  0.54484  0.56143  1.0000
  H   H875      1.0  0.98279  0.85458  0.58538  1.0000
  C   C1058     1.0  0.64093  0.66675  0.36131  1.0000
  H   H876      1.0  0.68171  0.63188  0.51255  1.0000
  C   C1059     1.0  0.80538  0.82986  0.48133  1.0000
  C   C1060     1.0  0.83089  0.84311  0.46517  1.0000
  C   C1061     1.0  0.86321  0.83024  0.46747  1.0000
  H   H877      1.0  0.82561  0.86301  0.45078  1.0000
  H   H878      1.0  0.88281  0.84017  0.45471  1.0000
  C   C1062     1.0  0.54051  0.83839  0.39025  1.0000
  H   H879      1.0  0.57743  0.77819  0.40482  1.0000
  C   C1063     1.0  0.81115  0.89652  0.53310  1.0000
  H   H880      1.0  0.72571  0.63474  0.60127  1.0000
  H   H881      1.0  0.52358  0.92260  0.41562  1.0000
  H   H882      1.0  0.84687  0.86989  0.38239  1.0000
  H   H883      1.0  0.87312  0.91028  0.46762  1.0000
  C   C1064     1.0  0.53319  0.64305  0.39683  1.0000
  C   C1065     1.0  0.54215  0.61647  0.41447  1.0000
  H   H884      1.0  0.55194  0.65699  0.38600  1.0000
  H   H885      1.0  0.56799  0.61004  0.41694  1.0000
  H   H886      1.0  0.48951  0.54248  0.63870  1.0000
  H   H887      1.0  0.88260  0.52647  0.63423  1.0000
  Fe  Fe77      1.0  0.94626  0.68794  0.54412  1.0000
  S   S151      1.0  0.89556  0.70389  0.53008  1.0000
  H   H888      1.0  0.60272  0.63383  0.37516  1.0000
  S   S152      1.0  0.90558  0.77169  0.56855  1.0000
  Fe  Fe78      1.0  0.88795  0.71922  0.57440  1.0000
  S   S153      1.0  0.84140  0.71010  0.59875  1.0000
  Fe  Fe79      1.0  0.91833  0.75462  0.52557  1.0000
  S   S154      1.0  0.91043  0.78805  0.48851  1.0000
  S   S155      1.0  0.93693  0.70010  0.58933  1.0000
  C   C1066     1.0  0.91791  0.97851  0.54343  1.0000
  H   H889      1.0  0.65289  0.95161  0.41074  1.0000
  S   S156      1.0  0.81249  0.55738  0.61933  1.0000
  H   H890      1.0  0.69689  0.79619  0.60240  1.0000
  H   H891      1.0  0.62269  0.93723  0.45353  1.0000
  C   C1067     1.0  0.61310  0.75172  0.67508  1.0000
  C   C1068     1.0  0.66212  0.48733  0.60671  1.0000
  S   S157      1.0  0.56625  0.94824  0.56670  1.0000
  C   C1069     1.0  0.96972  0.49451  0.63952  1.0000
  C   C1070     1.0  0.65871  0.58319  0.60378  1.0000
  C   C1071     1.0  0.94525  0.83981  0.67008  1.0000
  H   H892      1.0  0.59085  0.83438  0.50117  1.0000
  H   H893      1.0  0.64285  0.80826  0.62410  1.0000
  C   C1072     1.0  0.87015  0.80455  0.48625  1.0000
  C   C1073     1.0  0.84477  0.79176  0.50271  1.0000
  C   C1074     1.0  0.81242  0.80413  0.50001  1.0000
  H   H894      1.0  0.84994  0.77197  0.51723  1.0000
  H   H895      1.0  0.79278  0.79386  0.51256  1.0000
  C   C1075     1.0  0.83283  0.66765  0.60380  1.0000
  C   C1076     1.0  0.80771  0.65820  0.62218  1.0000
  C   C1077     1.0  0.80104  0.62438  0.62683  1.0000
  C   C1078     1.0  0.81922  0.59990  0.61287  1.0000
  C   C1079     1.0  0.84355  0.60940  0.59382  1.0000
  C   C1080     1.0  0.85075  0.64318  0.58961  1.0000
  H   H896      1.0  0.79370  0.67706  0.63311  1.0000
  H   H897      1.0  0.85702  0.59057  0.58247  1.0000
  H   H898      1.0  0.87000  0.65027  0.57524  1.0000
  C   C1081     1.0  0.98100  0.81420  0.63525  1.0000
  P   P38       1.0  0.92122  0.91757  0.51411  1.0000
  H   H899      1.0  0.97941  0.75019  0.66709  1.0000
  H   H900      1.0  0.64762  0.83274  0.52018  1.0000
  C   C1082     1.0  0.87914  0.60838  0.50003  1.0000
  C   C1083     1.0  0.97272  0.95977  0.53054  1.0000
  H   H901      1.0  0.59842  0.54148  0.51766  1.0000
  H   H902      1.0  0.54448  0.55632  0.37116  1.0000
  C   C1084     1.0  0.50084  0.93166  0.40633  1.0000
  C   C1085     1.0  0.92547  0.96729  0.64934  1.0000
  C   C1086     1.0  0.82064  0.92743  0.52272  1.0000
  C   C1087     1.0  0.73582  0.53563  0.58503  1.0000
  H   H903      1.0  0.52334  0.81867  0.39537  1.0000
  C   C1088     1.0  0.75045  0.50416  0.58656  1.0000
  C   C1089     1.0  0.85395  0.93393  0.51719  1.0000
  H   H904      1.0  0.50558  0.73334  0.47920  1.0000
  C   C1090     1.0  0.58347  0.89001  0.37615  1.0000
  S   S158      1.0  0.63427  0.75560  0.35783  1.0000
  H   H905      1.0  0.58261  0.50914  0.36421  1.0000
  C   C1091     1.0  0.72406  0.79824  0.64088  1.0000
  C   C1092     1.0  0.95614  0.92598  0.46449  1.0000
  C   C1093     1.0  0.62745  0.95966  0.41341  1.0000
  C   C1094     1.0  0.61032  0.95147  0.43752  1.0000
  H   H906      1.0  0.87970  0.63528  0.50030  1.0000
  H   H907      1.0  0.70369  0.65150  0.64658  1.0000
  C   C1095     1.0  0.79566  0.95216  0.59024  1.0000
  C   C1096     1.0  0.84650  0.94752  0.61720  1.0000
  C   C1097     1.0  0.87833  0.90992  0.52299  1.0000
  H   H908      1.0  0.82423  0.56358  0.35509  1.0000
  P   P39       1.0  0.85053  0.61252  0.44724  1.0000
  C   C1098     1.0  0.86979  0.65303  0.44480  1.0000
  C   C1099     1.0  0.85937  0.58871  0.41618  1.0000
  C   C1100     1.0  0.89024  0.57296  0.41318  1.0000
  C   C1101     1.0  0.89712  0.55407  0.38950  1.0000
  C   C1102     1.0  0.87335  0.55066  0.36859  1.0000
  C   C1103     1.0  0.84264  0.56635  0.37131  1.0000
  C   C1104     1.0  0.83562  0.58536  0.39498  1.0000
  C   C1105     1.0  0.89781  0.65796  0.42809  1.0000
  C   C1106     1.0  0.91285  0.68926  0.42681  1.0000
  C   C1107     1.0  0.89994  0.71590  0.44204  1.0000
  C   C1108     1.0  0.87208  0.71123  0.45866  1.0000
  C   C1109     1.0  0.85718  0.67991  0.46023  1.0000
  C   C1110     1.0  0.80629  0.61747  0.45154  1.0000
  C   C1111     1.0  0.78840  0.59631  0.46914  1.0000
  C   C1112     1.0  0.73764  0.62573  0.45815  1.0000
  C   C1113     1.0  0.75521  0.64675  0.44047  1.0000
  C   C1114     1.0  0.78937  0.64259  0.43709  1.0000
  C   C1115     1.0  0.59771  0.84584  0.65908  1.0000
  H   H909      1.0  0.90915  0.57530  0.42908  1.0000
  H   H910      1.0  0.92111  0.54225  0.38731  1.0000
  H   H911      1.0  0.96276  0.80995  0.44247  1.0000
  C   C1116     1.0  0.72913  0.49064  0.54098  1.0000
  H   H912      1.0  0.81164  0.59715  0.39664  1.0000
  H   H913      1.0  0.90848  0.63769  0.41633  1.0000
  H   H914      1.0  0.93480  0.69274  0.41431  1.0000
  H   H915      1.0  0.91167  0.74014  0.44133  1.0000
  H   H916      1.0  0.86241  0.73187  0.47071  1.0000
  H   H917      1.0  0.83610  0.67668  0.47379  1.0000
  H   H918      1.0  0.74235  0.66634  0.42939  1.0000
  H   H919      1.0  0.80258  0.65902  0.42321  1.0000
  C   C1117     1.0  0.66574  0.82449  0.45169  1.0000
  H   H920      1.0  0.69569  0.82622  0.48867  1.0000
  C   C1118     1.0  0.52098  0.74345  0.46291  1.0000
  H   H921      1.0  0.80199  0.94598  0.51814  1.0000
  C   C1119     1.0  0.71506  0.52237  0.53911  1.0000
  C   C1120     1.0  0.73540  0.61409  0.54829  1.0000
  C   C1121     1.0  0.76740  0.60139  0.54366  1.0000
  C   C1122     1.0  0.79368  0.62286  0.53779  1.0000
  C   C1123     1.0  0.78845  0.65717  0.53673  1.0000
  C   C1124     1.0  0.75679  0.67006  0.54126  1.0000
  C   C1125     1.0  0.73038  0.64868  0.54707  1.0000
  H   H922      1.0  0.59461  0.51452  0.64191  1.0000
  H   H923      1.0  0.70220  0.52918  0.52026  1.0000
  H   H924      1.0  0.77259  0.57506  0.54529  1.0000
  H   H925      1.0  0.81840  0.61293  0.53502  1.0000
  H   H926      1.0  0.80914  0.67383  0.53322  1.0000
  H   H927      1.0  0.75298  0.69676  0.54104  1.0000
  H   H928      1.0  0.70628  0.65921  0.55163  1.0000
  C   C1126     1.0  0.67076  0.82716  0.48029  1.0000
  H   H929      1.0  0.74766  0.79245  0.63130  1.0000
  C   C1127     1.0  0.55143  0.88600  0.47967  1.0000
  H   H930      1.0  0.94647  0.85668  0.48702  1.0000
  H   H931      1.0  0.63893  0.87448  0.64309  1.0000
  H   H932      1.0  0.94233  0.64917  0.36156  1.0000
  C   C1128     1.0  0.56127  0.76897  0.42102  1.0000
  C   C1129     1.0  0.61312  0.58669  0.49728  1.0000
  C   C1130     1.0  0.53063  0.90628  0.49559  1.0000
  H   H933      1.0  0.90015  0.68069  0.65421  1.0000
  H   H934      1.0  0.60295  0.88554  0.41739  1.0000
  C   C1131     1.0  0.75421  0.60047  0.47240  1.0000
  C   C1132     1.0  0.96841  0.82831  0.37346  1.0000
  Fe  Fe80      1.0  0.78130  0.54667  0.65700  1.0000
  H   H935      1.0  0.80070  0.57667  0.48049  1.0000
  C   C1133     1.0  0.64352  0.49961  0.62894  1.0000
  H   H936      1.0  0.85777  0.54162  0.45990  1.0000
  C   C1134     1.0  0.64155  0.94324  0.51022  1.0000
  C   C1135     1.0  0.61246  0.48517  0.57712  1.0000
  H   H937      1.0  0.64642  0.56315  0.59291  1.0000
  H   H938      1.0  0.54102  0.92619  0.50820  1.0000
  H   H939      1.0  0.63386  0.63173  0.48089  1.0000
  C   C1136     1.0  0.52980  0.72338  0.44034  1.0000
  H   H940      1.0  0.63025  0.82399  0.41846  1.0000
  H   H941      1.0  0.92999  0.80091  0.64146  1.0000
  C   C1137     1.0  0.96431  0.83312  0.40216  1.0000
  C   C1138     1.0  0.87926  0.53879  0.50052  1.0000
  C   C1139     1.0  0.61542  0.93529  0.52850  1.0000
  C   C1140     1.0  0.70295  0.62349  0.60831  1.0000
  C   C1141     1.0  0.92505  0.92042  0.47670  1.0000
  C   C1142     1.0  0.64368  0.83092  0.49799  1.0000
  C   C1143     1.0  0.86718  0.55580  0.47737  1.0000
  C   C1144     1.0  0.69069  0.63300  0.63429  1.0000
  C   C1145     1.0  0.48468  0.60684  0.42540  1.0000
  C   C1146     1.0  0.72215  0.80326  0.66954  1.0000
  C   C1147     1.0  0.85000  0.97447  0.37439  1.0000
  C   C1148     1.0  0.68653  0.59905  0.59242  1.0000
  H   H942      1.0  0.90023  0.60507  0.54097  1.0000
  C   C1149     1.0  0.63371  0.82635  0.44066  1.0000
  H   H943      1.0  0.51094  0.49923  0.37440  1.0000
  H   H944      1.0  0.62601  0.57927  0.63885  1.0000
  H   H945      1.0  0.56792  0.50300  0.59630  1.0000
  C   C1150     1.0  0.60647  0.83099  0.45825  1.0000
  H   H946      1.0  0.82746  0.84794  0.54553  1.0000
  H   H947      1.0  0.90821  0.54490  0.59033  1.0000
  C   C1151     1.0  0.89082  0.59127  0.52327  1.0000
  C   C1152     1.0  0.64692  0.59232  0.62998  1.0000
  C   C1153     1.0  0.66736  0.58690  0.53420  1.0000
  C   C1154     1.0  0.58487  0.87621  0.40269  1.0000
  H   H948      1.0  0.73932  0.55297  0.60204  1.0000
  C   C1155     1.0  0.56375  0.84993  0.40978  1.0000
  C   C1156     1.0  0.49940  0.50100  0.61165  1.0000
  H   H949      1.0  0.96855  0.62952  0.43124  1.0000
  C   C1157     1.0  0.95529  0.49246  0.66580  1.0000
  C   C1158     1.0  0.61158  0.83227  0.48708  1.0000
  C   C1159     1.0  0.62908  0.55149  0.42538  1.0000
  H   H950      1.0  0.55716  0.72041  0.40213  1.0000
  C   C1160     1.0  0.89865  0.56951  0.65733  1.0000
  C   C1161     1.0  0.86563  0.86870  0.61002  1.0000
  S   S159      1.0  0.76355  0.49470  0.66571  1.0000
  S   S160      1.0  0.51334  0.52866  0.52759  1.0000
  C   C1162     1.0  0.83085  0.97592  0.35019  1.0000
  C   C1163     1.0  0.96922  0.61520  0.50093  1.0000
  H   H951      1.0  0.92976  0.88927  0.62134  1.0000
  C   C1164     1.0  0.85502  0.81323  0.62731  1.0000
  C   C1165     1.0  0.59590  0.52109  0.38107  1.0000
  H   H952      1.0  0.63314  0.68700  0.37471  1.0000
  H   H953      1.0  0.87887  0.91486  0.41744  1.0000
  C   C1166     1.0  0.62955  0.56616  0.39912  1.0000
  H   H954      1.0  0.52514  0.79150  0.48216  1.0000
  H   H955      1.0  0.52249  0.84203  0.34818  1.0000
  C   C1167     1.0  0.85863  0.93790  0.67735  1.0000
  C   C1168     1.0  0.63678  0.61199  0.49595  1.0000
  C   C1169     1.0  0.62366  0.63666  0.36146  1.0000
  C   C1170     1.0  0.83506  0.87229  0.53845  1.0000
  C   C1171     1.0  0.51801  0.59808  0.42888  1.0000
  C   C1172     1.0  0.61668  0.56126  0.51668  1.0000
  C   C1173     1.0  0.90056  0.91771  0.43056  1.0000
  C   C1174     1.0  0.69544  0.80031  0.62460  1.0000
  S   S161      1.0  0.53121  0.56440  0.45050  1.0000
  P   P40       1.0  0.87097  0.92553  0.64277  1.0000
  C   C1175     1.0  0.64360  0.56131  0.53499  1.0000
  H   H956      1.0  0.60839  0.90954  0.53119  1.0000
  P   P41       1.0  0.56507  0.83249  0.44415  1.0000
  C   C1176     1.0  0.86431  0.87615  0.36615  1.0000
  C   C1177     1.0  0.94650  0.88353  0.52615  1.0000
  H   H957      1.0  0.88632  0.85904  0.53667  1.0000
  S   S162      1.0  0.83195  0.96901  0.40789  1.0000
  H   H958      1.0  0.95867  0.85755  0.41042  1.0000
  H   H959      1.0  0.80548  0.91283  0.61906  1.0000
  H   H960      1.0  0.78512  0.89091  0.53604  1.0000
  H   H961      1.0  0.85060  0.61850  0.66871  1.0000
  C   C1178     1.0  0.61219  0.55158  0.37685  1.0000
  C   C1179     1.0  0.93139  0.92392  0.41870  1.0000
  H   H962      1.0  0.95391  0.49781  0.62154  1.0000
  H   H963      1.0  0.96429  0.59190  0.36581  1.0000
  C   C1180     1.0  0.66491  0.80734  0.63695  1.0000
  C   C1181     1.0  0.53961  0.85183  0.36358  1.0000
  H   H964      1.0  0.87038  0.88499  0.59266  1.0000
  C   C1182     1.0  0.81508  0.93531  0.60973  1.0000
  C   C1183     1.0  0.56173  0.98115  0.42069  1.0000
  C   C1184     1.0  0.59510  0.50679  0.40749  1.0000
  C   C1185     1.0  0.59403  0.49832  0.59911  1.0000
  C   C1186     1.0  0.61245  0.87034  0.64243  1.0000
  C   C1187     1.0  0.66385  0.61207  0.51421  1.0000
  C   C1188     1.0  0.59870  0.96022  0.54363  1.0000
  C   C1189     1.0  0.94813  0.59832  0.34867  1.0000
  C   C1190     1.0  0.95924  0.92780  0.43563  1.0000
  C   C1191     1.0  0.86851  0.87881  0.53336  1.0000
  H   H965      1.0  0.76488  0.49749  0.60466  1.0000
  C   C1192     1.0  0.49651  0.90066  0.49564  1.0000
  C   C1193     1.0  0.89736  0.91572  0.45934  1.0000
  S   S163      1.0  0.48746  0.68511  0.37100  1.0000
  C   C1194     1.0  0.48305  0.87518  0.47933  1.0000
  H   H966      1.0  0.60434  0.90888  0.61196  1.0000
  C   C1195     1.0  0.60936  0.50506  0.62493  1.0000
  H   H967      1.0  0.64587  0.54102  0.54955  1.0000
  H   H968      1.0  0.60086  0.90935  0.37054  1.0000
  C   C1196     1.0  0.59302  0.88999  0.62486  1.0000
  H   H969      1.0  0.57775  0.89119  0.47959  1.0000
  H   H970      1.0  0.92562  0.73554  0.64555  1.0000
  H   H971      1.0  0.95948  0.65856  0.47624  1.0000
  Fe  Fe81      1.0  0.51017  0.52511  0.48072  1.0000
  H   H972      1.0  0.77147  0.94259  0.58451  1.0000
  C   C1197     1.0  0.92868  0.61103  0.63115  1.0000
  H   H973      1.0  0.61000  0.51145  0.45026  1.0000
  C   C1198     1.0  0.55019  0.73605  0.41956  1.0000
  H   H974      1.0  0.74059  0.58417  0.48611  1.0000
  S   S164      1.0  0.73184  0.57035  0.66383  1.0000
  C   C1199     1.0  0.85415  0.82574  0.65439  1.0000
  Fe  Fe82      1.0  0.71451  0.51920  0.67514  1.0000
  C   C1200     1.0  0.53186  0.77648  0.46436  1.0000
  C   C1201     1.0  0.97607  0.79636  0.36344  1.0000
  C   C1202     1.0  0.97539  0.85575  0.56378  1.0000
  H   H975      1.0  0.59194  0.58671  0.48332  1.0000
  C   C1203     1.0  0.93820  0.95497  0.53005  1.0000
  C   C1204     1.0  0.49991  0.65173  0.39322  1.0000
  C   C1205     1.0  0.55111  0.78982  0.44289  1.0000
  C   C1206     1.0  0.50792  0.58478  0.35038  1.0000
  H   H976      1.0  0.93677  0.59957  0.58796  1.0000
  H   H977      1.0  0.49264  0.51437  0.59295  1.0000
  C   C1207     1.0  0.92364  0.68676  0.66400  1.0000
  C   C1208     1.0  0.91049  0.56019  0.60873  1.0000
  C   C1209     1.0  0.93788  0.71790  0.65910  1.0000
  C   C1210     1.0  0.53828  0.85923  0.46432  1.0000
  H   H978      1.0  0.60604  0.69861  0.67148  1.0000
  C   C1211     1.0  0.57749  0.96175  0.44105  1.0000
  C   C1212     1.0  0.66267  0.61744  0.64512  1.0000
  P   P42       1.0  0.96355  0.86303  0.34996  1.0000
  C   C1213     1.0  0.95623  0.88228  0.55411  1.0000
  H   H979      1.0  0.64176  0.56327  0.44262  1.0000
  H   H980      1.0  0.62527  0.98438  0.37405  1.0000
  H   H981      1.0  0.80424  0.97332  0.35150  1.0000
  H   H982      1.0  0.54372  0.90079  0.61035  1.0000
  H   H983      1.0  0.90482  0.85221  0.38624  1.0000
  C   C1214     1.0  0.56314  0.84189  0.65825  1.0000
  C   C1215     1.0  0.95000  0.81700  0.64801  1.0000
  C   C1216     1.0  0.85885  0.85979  0.65933  1.0000
  C   C1217     1.0  0.97424  0.77454  0.41026  1.0000
  C   C1218     1.0  0.95896  0.97573  0.64763  1.0000
  Fe  Fe83      1.0  0.95529  0.75217  0.58104  1.0000
  C   C1219     1.0  0.89749  0.86642  0.36832  1.0000
  H   H984      1.0  0.92860  0.49394  0.66801  1.0000
  S   S165      1.0  0.96983  0.73815  0.53707  1.0000
  C   C1220     1.0  0.86060  0.83477  0.60516  1.0000
  H   H985      1.0  0.86049  0.95724  0.50744  1.0000
  H   H986      1.0  0.56472  0.95464  0.45977  1.0000
  C   C1221     1.0  0.92642  0.59099  0.60743  1.0000
  C   C1222     1.0  0.55876  0.88550  0.62391  1.0000
  C   C1223     1.0  0.95516  0.85731  0.50828  1.0000
  C   C1224     1.0  0.61183  0.97820  0.39275  1.0000
  C   C1225     1.0  0.91424  0.93636  0.63940  1.0000
  C   C1226     1.0  0.56127  0.87735  0.35645  1.0000
  C   C1227     1.0  0.86479  0.88148  0.63714  1.0000
  H   H987      1.0  0.48845  0.57679  0.36426  1.0000
  H   H988      1.0  0.93347  0.92592  0.39639  1.0000
  H   H989      1.0  0.94131  0.63466  0.62964  1.0000
  H   H990      1.0  0.52965  0.95220  0.35217  1.0000
  H   H991      1.0  0.65383  0.62404  0.66564  1.0000
  H   H992      1.0  0.52091  0.69795  0.43896  1.0000
  H   H993      1.0  0.86130  0.82506  0.58420  1.0000
  C   C1228     1.0  0.89631  0.54964  0.63356  1.0000
  C   C1229     1.0  0.97873  0.58166  0.44931  1.0000
  C   C1230     1.0  0.54385  0.86156  0.64062  1.0000
  H   H994      1.0  0.85021  0.80890  0.67154  1.0000
  H   H995      1.0  0.94892  0.90172  0.56844  1.0000
  C   C1231     1.0  0.61143  0.52211  0.42966  1.0000
  S   S166      1.0  0.96532  0.63541  0.53388  1.0000
  C   C1232     1.0  0.50382  0.85465  0.46356  1.0000
  H   H996      1.0  0.49301  0.83505  0.45098  1.0000
  H   H997      1.0  0.51716  0.85855  0.64020  1.0000
  C   C1233     1.0  0.64783  0.79705  0.35946  1.0000
  C   C1234     1.0  0.91486  0.60036  0.65632  1.0000
  C   C1235     1.0  0.97449  0.83091  0.51803  1.0000
  H   H998      1.0  0.85166  0.78678  0.62345  1.0000
  C   C1236     1.0  0.93723  0.91382  0.62814  1.0000
  C   C1237     1.0  0.97078  0.92234  0.62660  1.0000
  C   C1238     1.0  0.97707  0.58101  0.49994  1.0000
  S   S167      1.0  0.66108  0.50599  0.66258  1.0000
  C   C1239     1.0  0.88457  0.97858  0.37215  1.0000
  C   C1240     1.0  0.96679  0.80626  0.42041  1.0000
  C   C1241     1.0  0.98156  0.56426  0.47433  1.0000
  C   C1242     1.0  0.65119  0.97641  0.50655  1.0000
  Fe  Fe84      1.0  0.52900  0.97208  0.59715  1.0000
  H   H999      1.0  0.48589  0.88279  0.39265  1.0000
  H   H1000     1.0  0.63332  0.75176  0.66045  1.0000
  H   H1001     1.0  0.87887  0.53591  0.35027  1.0000
  C   C1243     1.0  0.80733  0.98139  0.57814  1.0000
  C   C1244     1.0  0.66282  0.81268  0.66572  1.0000
  H   H1002     1.0  0.97991  0.56746  0.51912  1.0000
  C   C1245     1.0  0.85809  0.97689  0.60486  1.0000
  C   C1246     1.0  0.49257  0.96559  0.40738  1.0000
  S   S168      1.0  0.53367  0.97488  0.64405  1.0000
  H   H1003     1.0  0.97814  0.92852  0.47708  1.0000
  H   H1004     1.0  0.89154  0.97511  0.54485  1.0000
  C   C1247     1.0  0.96550  0.63233  0.47591  1.0000
  C   C1248     1.0  0.50540  0.49924  0.66157  1.0000
  H   H1005     1.0  0.88747  0.56096  0.67643  1.0000
  C   C1249     1.0  0.98078  0.93032  0.35332  1.0000
  H   H1006     1.0  0.85830  0.86895  0.68041  1.0000
  H   H1007     1.0  0.81339  0.96307  0.66502  1.0000
  C   C1250     1.0  0.97055  0.61573  0.45037  1.0000
  C   C1251     1.0  0.96819  0.72621  0.67130  1.0000
  H   H1008     1.0  0.89957  0.97849  0.39071  1.0000
  C   C1252     1.0  0.97906  0.76962  0.38182  1.0000
  C   C1253     1.0  0.49740  0.51675  0.63747  1.0000
  C   C1254     1.0  0.97091  0.86102  0.67918  1.0000
  H   H1009     1.0  0.97638  0.75382  0.42450  1.0000
  C   C1255     1.0  0.98164  0.95323  0.63640  1.0000
  H   H1010     1.0  0.98071  0.81043  0.50430  1.0000
  Fe  Fe85      1.0  0.48479  0.94788  0.64484  1.0000
  H   H1011     1.0  0.90845  0.98473  0.65889  1.0000
  H   H1012     1.0  0.92159  0.84081  0.68041  1.0000
  C   C1256     1.0  0.92040  0.87530  0.34768  1.0000
  S   S169      1.0  0.96340  0.88813  0.70807  1.0000
  S   S170      1.0  0.94837  0.97952  0.72247  1.0000
  Fe  Fe86      1.0  0.78344  0.94956  0.92489  1.0000
  S   S171      1.0  0.76657  0.89765  0.91450  1.0000
  Fe  Fe87      1.0  0.72116  0.96149  0.96325  1.0000
  S   S172      1.0  0.70111  0.91077  0.95420  1.0000
  Fe  Fe88      1.0  0.75360  0.89350  0.95951  1.0000
  S   S173      1.0  0.76211  0.84860  0.98628  1.0000
  Fe  Fe89      1.0  0.71608  0.92040  0.91028  1.0000
  S   S174      1.0  0.68164  0.90944  0.87457  1.0000
  S   S175      1.0  0.77354  0.94364  0.97096  1.0000
  H   H1013     1.0  0.87220  0.50118  0.90361  1.0000
  C   C1257     1.0  0.82043  0.56311  0.83748  1.0000
  Fe  Fe90      1.0  0.77879  0.50597  0.71005  1.0000
  S   S176      1.0  0.79970  0.55614  0.70025  1.0000
  Fe  Fe91      1.0  0.74812  0.57488  0.70808  1.0000
  S   S177      1.0  0.74058  0.62177  0.73308  1.0000
  C   C1258     1.0  0.84080  0.50190  0.86696  1.0000
  S   S178      1.0  0.72779  0.52535  0.72064  1.0000
  C   C1259     1.0  0.52255  0.89109  0.71125  1.0000
  C   C1260     1.0  0.73873  0.57297  0.90374  1.0000
  C   C1261     1.0  0.97680  0.58872  0.70258  1.0000
  H   H1014     1.0  0.86712  0.58960  0.83525  1.0000
  C   C1262     1.0  0.93028  0.58242  0.73379  1.0000
  C   C1263     1.0  0.89377  0.49309  0.79753  1.0000
  H   H1015     1.0  0.53238  0.56792  0.87337  1.0000
  Fe  Fe92      1.0  0.55151  0.76965  0.79102  1.0000
  S   S179      1.0  0.60302  0.75079  0.78192  1.0000
  Fe  Fe93      1.0  0.54063  0.71166  0.83487  1.0000
  S   S180      1.0  0.59114  0.69079  0.82727  1.0000
  Fe  Fe94      1.0  0.60834  0.74380  0.82781  1.0000
  S   S181      1.0  0.65264  0.75693  0.85425  1.0000
  Fe  Fe95      1.0  0.58019  0.69994  0.78232  1.0000
  S   S182      1.0  0.58995  0.66010  0.75027  1.0000
  S   S183      1.0  0.55863  0.76500  0.83752  1.0000
  S   S184      1.0  0.52803  0.71829  0.78917  1.0000
  C   C1264     1.0  0.49366  0.87936  0.69837  1.0000
  H   H1016     1.0  0.67266  0.83868  0.96427  1.0000
  C   C1265     1.0  0.78487  0.56963  0.79694  1.0000
  C   C1266     1.0  0.86028  0.56746  0.88971  1.0000
  H   H1017     1.0  0.89836  0.93680  0.95599  1.0000
  C   C1267     1.0  0.88065  0.65107  0.72922  1.0000
  C   C1268     1.0  0.81087  0.80903  0.00747  1.0000
  C   C1269     1.0  0.69871  0.63322  0.73634  1.0000
  C   C1270     1.0  0.69041  0.66264  0.75040  1.0000
  C   C1271     1.0  0.65705  0.67116  0.75469  1.0000
  C   C1272     1.0  0.63189  0.65054  0.74448  1.0000
  C   C1273     1.0  0.64023  0.62172  0.72957  1.0000
  C   C1274     1.0  0.67358  0.61294  0.72564  1.0000
  H   H1018     1.0  0.70979  0.67864  0.75834  1.0000
  H   H1019     1.0  0.65077  0.69359  0.76597  1.0000
  H   H1020     1.0  0.62084  0.60577  0.72152  1.0000
  H   H1021     1.0  0.67977  0.59028  0.71461  1.0000
  H   H1022     1.0  0.90362  0.65580  0.74022  1.0000
  C   C1275     1.0  0.97521  0.48875  0.68930  1.0000
  C   C1276     1.0  0.87593  0.51876  0.78450  1.0000
  C   C1277     1.0  0.85028  0.51181  0.76542  1.0000
  H   H1023     1.0  0.88197  0.54428  0.78932  1.0000
  H   H1024     1.0  0.83667  0.53191  0.75587  1.0000
  C   C1278     1.0  0.67211  0.86719  0.87003  1.0000
  C   C1279     1.0  0.68771  0.84301  0.88618  1.0000
  C   C1280     1.0  0.68060  0.80926  0.88175  1.0000
  C   C1281     1.0  0.65802  0.79950  0.86120  1.0000
  C   C1282     1.0  0.64126  0.82376  0.84586  1.0000
  C   C1283     1.0  0.64861  0.85759  0.85007  1.0000
  H   H1025     1.0  0.70542  0.85026  0.90195  1.0000
  H   H1026     1.0  0.69239  0.79067  0.89448  1.0000
  H   H1027     1.0  0.62317  0.81641  0.83042  1.0000
  H   H1028     1.0  0.63609  0.87633  0.83788  1.0000
  C   C1284     1.0  0.48386  0.96485  0.98344  1.0000
  H   H1029     1.0  0.77428  0.53638  0.98804  1.0000
  C   C1285     1.0  0.78378  0.52077  0.91079  1.0000
  C   C1286     1.0  0.88608  0.96166  0.87110  1.0000
  C   C1287     1.0  0.98098  0.94211  0.94325  1.0000
  C   C1288     1.0  0.56626  0.94931  0.93757  1.0000
  C   C1289     1.0  0.80344  0.83562  0.98979  1.0000
  C   C1290     1.0  0.82888  0.85116  0.97507  1.0000
  C   C1291     1.0  0.86167  0.83991  0.97798  1.0000
  H   H1030     1.0  0.82331  0.87180  0.96149  1.0000
  H   H1031     1.0  0.88144  0.85216  0.96692  1.0000
  C   C1292     1.0  0.95098  0.92893  0.95249  1.0000
  C   C1293     1.0  0.91878  0.57851  0.89776  1.0000
  H   H1032     1.0  0.58451  0.89634  0.98667  1.0000
  C   C1294     1.0  0.49834  0.64413  0.91329  1.0000
  C   C1295     1.0  0.96971  0.67254  0.69407  1.0000
  C   C1296     1.0  0.80837  0.59033  0.78471  1.0000
  H   H1033     1.0  0.62601  0.79848  0.96598  1.0000
  H   H1034     1.0  0.90118  0.95213  0.88779  1.0000
  C   C1297     1.0  0.83776  0.59773  0.79883  1.0000
  H   H1035     1.0  0.76225  0.56369  0.78575  1.0000
  C   C1298     1.0  0.98192  0.55374  0.74319  1.0000
  H   H1036     1.0  0.63481  0.92037  0.74145  1.0000
  C   C1299     1.0  0.52487  0.83999  0.96999  1.0000
  C   C1300     1.0  0.84382  0.58419  0.82509  1.0000
  H   H1037     1.0  0.69065  0.81379  0.70422  1.0000
  H   H1038     1.0  0.79780  0.66501  0.73536  1.0000
  H   H1039     1.0  0.90474  0.58696  0.73943  1.0000
  H   H1040     1.0  0.64296  0.82624  0.78279  1.0000
  C   C1301     1.0  0.70741  0.66344  0.82291  1.0000
  C   C1302     1.0  0.73726  0.64840  0.81533  1.0000
  C   C1303     1.0  0.76352  0.64738  0.83425  1.0000
  C   C1304     1.0  0.75969  0.66061  0.86095  1.0000
  C   C1305     1.0  0.72943  0.67495  0.86891  1.0000
  C   C1306     1.0  0.70369  0.67722  0.84934  1.0000
  P   P43       1.0  0.72428  0.69239  0.90324  1.0000
  C   C1307     1.0  0.68068  0.69157  0.91202  1.0000
  C   C1308     1.0  0.74825  0.66835  0.92786  1.0000
  C   C1309     1.0  0.73352  0.64344  0.94404  1.0000
  C   C1310     1.0  0.75254  0.62547  0.96316  1.0000
  C   C1311     1.0  0.78618  0.63261  0.96658  1.0000
  C   C1312     1.0  0.80094  0.65748  0.95075  1.0000
  C   C1313     1.0  0.78219  0.67506  0.93132  1.0000
  C   C1314     1.0  0.66518  0.71951  0.92383  1.0000
  C   C1315     1.0  0.63105  0.71932  0.92880  1.0000
  C   C1316     1.0  0.61206  0.69145  0.92176  1.0000
  C   C1317     1.0  0.62730  0.66345  0.91026  1.0000
  C   C1318     1.0  0.66147  0.66338  0.90553  1.0000
  C   C1319     1.0  0.74022  0.73435  0.90388  1.0000
  C   C1320     1.0  0.74551  0.75193  0.87918  1.0000
  C   C1321     1.0  0.75910  0.78394  0.88006  1.0000
  C   C1322     1.0  0.76745  0.79858  0.90546  1.0000
  C   C1323     1.0  0.76211  0.78127  0.93008  1.0000
  C   C1324     1.0  0.74840  0.74938  0.92936  1.0000
  H   H1041     1.0  0.68696  0.66445  0.80834  1.0000
  H   H1042     1.0  0.74003  0.63773  0.79474  1.0000
  H   H1043     1.0  0.78682  0.63622  0.82822  1.0000
  H   H1044     1.0  0.78036  0.65956  0.87520  1.0000
  H   H1045     1.0  0.68056  0.68952  0.85438  1.0000
  H   H1046     1.0  0.70743  0.63784  0.94209  1.0000
  C   C1325     1.0  0.62928  0.87697  0.71545  1.0000
  C   C1326     1.0  0.51013  0.92163  0.89587  1.0000
  H   H1047     1.0  0.82688  0.66349  0.95379  1.0000
  H   H1048     1.0  0.79419  0.69427  0.91925  1.0000
  H   H1049     1.0  0.67908  0.74183  0.92851  1.0000
  C   C1327     1.0  0.63451  0.82393  0.73876  1.0000
  H   H1050     1.0  0.79806  0.63695  0.68967  1.0000
  H   H1051     1.0  0.61236  0.64209  0.90442  1.0000
  H   H1052     1.0  0.67268  0.64172  0.89598  1.0000
  H   H1053     1.0  0.73841  0.74145  0.85932  1.0000
  H   H1054     1.0  0.76223  0.79779  0.86111  1.0000
  H   H1055     1.0  0.77769  0.82349  0.90616  1.0000
  H   H1056     1.0  0.76852  0.79266  0.94977  1.0000
  H   H1057     1.0  0.74433  0.73642  0.94871  1.0000
  C   C1328     1.0  0.85818  0.84482  0.74288  1.0000
  C   C1329     1.0  0.88924  0.85799  0.74944  1.0000
  C   C1330     1.0  0.89481  0.87222  0.77552  1.0000
  C   C1331     1.0  0.86957  0.87255  0.79533  1.0000
  C   C1332     1.0  0.83858  0.85836  0.78920  1.0000
  C   C1333     1.0  0.83274  0.84548  0.76250  1.0000
  P   P44       1.0  0.80584  0.85950  0.81464  1.0000
  C   C1334     1.0  0.77610  0.82652  0.80810  1.0000
  C   C1335     1.0  0.82484  0.85276  0.84824  1.0000
  C   C1336     1.0  0.83416  0.87996  0.86491  1.0000
  C   C1337     1.0  0.84983  0.87483  0.89045  1.0000
  C   C1338     1.0  0.85661  0.84257  0.89947  1.0000
  C   C1339     1.0  0.84785  0.81539  0.88294  1.0000
  C   C1340     1.0  0.83222  0.82041  0.85737  1.0000
  C   C1341     1.0  0.74197  0.83198  0.81171  1.0000
  C   C1342     1.0  0.71944  0.80597  0.80777  1.0000
  C   C1343     1.0  0.73055  0.77429  0.80036  1.0000
  C   C1344     1.0  0.76434  0.76864  0.79638  1.0000
  C   C1345     1.0  0.78701  0.79463  0.80010  1.0000
  C   C1346     1.0  0.78602  0.89986  0.81373  1.0000
  C   C1347     1.0  0.76550  0.91002  0.83566  1.0000
  C   C1348     1.0  0.75067  0.94145  0.83535  1.0000
  C   C1349     1.0  0.87910  0.92998  0.69994  1.0000
  H   H1058     1.0  0.61029  0.49924  0.70522  1.0000
  C   C1350     1.0  0.79126  0.92159  0.79140  1.0000
  H   H1059     1.0  0.85389  0.83410  0.72257  1.0000
  H   H1060     1.0  0.55981  0.69699  0.70507  1.0000
  H   H1061     1.0  0.91874  0.88317  0.78027  1.0000
  H   H1062     1.0  0.87429  0.88409  0.81530  1.0000
  H   H1063     1.0  0.80861  0.83591  0.75678  1.0000
  H   H1064     1.0  0.82972  0.90523  0.85818  1.0000
  H   H1065     1.0  0.85685  0.89595  0.90321  1.0000
  H   H1066     1.0  0.86892  0.83860  0.91915  1.0000
  H   H1067     1.0  0.85334  0.79040  0.88997  1.0000
  H   H1068     1.0  0.82621  0.79891  0.84491  1.0000
  H   H1069     1.0  0.73242  0.85602  0.81791  1.0000
  H   H1070     1.0  0.69325  0.81023  0.81082  1.0000
  H   H1071     1.0  0.71288  0.75414  0.79786  1.0000
  H   H1072     1.0  0.77291  0.74404  0.79051  1.0000
  H   H1073     1.0  0.81313  0.78972  0.79700  1.0000
  H   H1074     1.0  0.76087  0.89364  0.85300  1.0000
  H   H1075     1.0  0.56850  0.80213  0.71783  1.0000
  H   H1076     1.0  0.87613  0.56439  0.97806  1.0000
  H   H1077     1.0  0.65414  0.97597  0.91417  1.0000
  H   H1078     1.0  0.80710  0.91461  0.77427  1.0000
  H   H1079     1.0  0.87158  0.62237  0.94321  1.0000
  H   H1080     1.0  0.93020  0.61272  0.93091  1.0000
  C   C1351     1.0  0.60220  0.82694  0.90984  1.0000
  C   C1352     1.0  0.57861  0.80235  0.90438  1.0000
  C   C1353     1.0  0.77620  0.95296  0.79111  1.0000
  C   C1354     1.0  0.53929  0.84477  0.89079  1.0000
  C   C1355     1.0  0.56270  0.86972  0.89662  1.0000
  C   C1356     1.0  0.59440  0.86050  0.90587  1.0000
  P   P45       1.0  0.55336  0.91279  0.88921  1.0000
  C   C1357     1.0  0.57817  0.93903  0.91157  1.0000
  C   C1358     1.0  0.61003  0.94870  0.90336  1.0000
  C   C1359     1.0  0.79034  0.54563  0.89116  1.0000
  H   H1081     1.0  0.50625  0.96158  0.86594  1.0000
  H   H1082     1.0  0.63467  0.79698  0.73844  1.0000
  C   C1360     1.0  0.56281  0.92109  0.85326  1.0000
  C   C1361     1.0  0.56415  0.89501  0.83381  1.0000
  C   C1362     1.0  0.57123  0.90160  0.80604  1.0000
  C   C1363     1.0  0.57681  0.93420  0.79731  1.0000
  H   H1083     1.0  0.58542  0.69165  0.92476  1.0000
  H   H1084     1.0  0.98202  0.65591  0.70832  1.0000
  H   H1085     1.0  0.62694  0.81997  0.91623  1.0000
  H   H1086     1.0  0.58510  0.77628  0.90619  1.0000
  H   H1087     1.0  0.92667  0.96210  0.84163  1.0000
  C   C1364     1.0  0.56103  0.74968  0.71319  1.0000
  H   H1088     1.0  0.61350  0.87899  0.90930  1.0000
  H   H1089     1.0  0.51531  0.85099  0.88211  1.0000
  H   H1090     1.0  0.48536  0.80668  0.73523  1.0000
  C   C1365     1.0  0.57155  0.72048  0.70014  1.0000
  H   H1091     1.0  0.55984  0.86945  0.83979  1.0000
  H   H1092     1.0  0.57227  0.88124  0.79129  1.0000
  C   C1366     1.0  0.55615  0.85464  0.97175  1.0000
  C   C1367     1.0  0.85366  0.56424  0.99037  1.0000
  H   H1093     1.0  0.93855  0.54990  0.76874  1.0000
  C   C1368     1.0  0.56014  0.88512  0.98530  1.0000
  H   H1094     1.0  0.83788  0.96988  0.75163  1.0000
  C   C1369     1.0  0.63987  0.87519  0.76496  1.0000
  H   H1095     1.0  0.48757  0.53216  0.83808  1.0000
  H   H1096     1.0  0.77237  0.53983  0.83217  1.0000
  H   H1097     1.0  0.48633  0.60905  0.94591  1.0000
  H   H1098     1.0  0.67743  0.49208  0.99490  1.0000
  H   H1099     1.0  0.48821  0.66523  0.92439  1.0000
  C   C1370     1.0  0.52477  0.62120  0.87269  1.0000
  C   C1371     1.0  0.51208  0.64901  0.88674  1.0000
  S   S185      1.0  0.49767  0.52910  0.01176  1.0000
  H   H1100     1.0  0.78049  0.96976  0.77401  1.0000
  C   C1372     1.0  0.85233  0.58944  0.91147  1.0000
  C   C1373     1.0  0.84295  0.96025  0.73103  1.0000
  C   C1374     1.0  0.49277  0.90344  0.91592  1.0000
  H   H1101     1.0  0.80085  0.61919  0.98168  1.0000
  C   C1375     1.0  0.86901  0.81290  0.99526  1.0000
  C   C1376     1.0  0.93972  0.66362  0.68119  1.0000
  C   C1377     1.0  0.76785  0.57205  0.88813  1.0000
  H   H1102     1.0  0.62005  0.94052  0.88368  1.0000
  C   C1378     1.0  0.56866  0.95383  0.84437  1.0000
  H   H1103     1.0  0.85626  0.61325  0.78911  1.0000
  H   H1104     1.0  0.64375  0.88790  0.78458  1.0000
  P   P46       1.0  0.62310  0.82045  0.68167  1.0000
  C   C1379     1.0  0.98199  0.97391  0.93156  1.0000
  H   H1105     1.0  0.52191  0.81624  0.95951  1.0000
  S   S186      1.0  0.50627  0.54265  0.92470  1.0000
  C   C1380     1.0  0.95322  0.57960  0.98805  1.0000
  H   H1106     1.0  0.72110  0.59296  0.90067  1.0000
  C   C1381     1.0  0.79610  0.54849  0.99625  1.0000
  C   C1382     1.0  0.82964  0.95646  0.68200  1.0000
  C   C1383     1.0  0.85226  0.96836  0.87588  1.0000
  S   S187      1.0  0.73303  0.97293  0.91825  1.0000
  H   H1107     1.0  0.82533  0.53708  0.95999  1.0000
  H   H1108     1.0  0.96395  0.48750  0.70969  1.0000
  H   H1109     1.0  0.93537  0.56635  0.00046  1.0000
  C   C1384     1.0  0.91068  0.60023  0.91938  1.0000
  S   S188      1.0  0.54292  0.82172  0.77143  1.0000
  C   C1385     1.0  0.75478  0.52194  0.92661  1.0000
  H   H1110     1.0  0.94461  0.57400  0.89268  1.0000
  H   H1111     1.0  0.77265  0.59173  0.87347  1.0000
  C   C1386     1.0  0.82121  0.64087  0.70067  1.0000
  S   S189      1.0  0.90999  0.79849  0.99794  1.0000
  C   C1387     1.0  0.79077  0.55615  0.82322  1.0000
  C   C1388     1.0  0.75598  0.96291  0.81311  1.0000
  C   C1389     1.0  0.49739  0.85595  0.98164  1.0000
  C   C1390     1.0  0.85075  0.66181  0.74080  1.0000
  Fe  Fe96      1.0  0.49876  0.51459  0.96632  1.0000
  C   C1391     1.0  0.87752  0.60570  0.92623  1.0000
  C   C1392     1.0  0.88096  0.63477  0.70340  1.0000
  C   C1393     1.0  0.53280  0.90103  0.99720  1.0000
  H   H1112     1.0  0.96211  0.53767  0.96047  1.0000
  S   S190      1.0  0.83583  0.96441  0.91027  1.0000
  H   H1113     1.0  0.53530  0.62427  0.85226  1.0000
  H   H1114     1.0  0.53319  0.91444  0.70466  1.0000
  C   C1394     1.0  0.89372  0.56233  0.88289  1.0000
  C   C1395     1.0  0.49723  0.61217  0.92562  1.0000
  C   C1396     1.0  0.52300  0.58914  0.88476  1.0000
  H   H1115     1.0  0.70956  0.54861  0.93508  1.0000
  H   H1116     1.0  0.73503  0.94920  0.85244  1.0000
  C   C1397     1.0  0.94920  0.56102  0.75033  1.0000
  C   C1398     1.0  0.52410  0.84242  0.74232  1.0000
  H   H1117     1.0  0.61916  0.74110  0.93746  1.0000
  C   C1399     1.0  0.50104  0.88683  0.99506  1.0000
  C   C1400     1.0  0.83311  0.97992  0.85365  1.0000
  C   C1401     1.0  0.66146  0.83227  0.98397  1.0000
  C   C1402     1.0  0.49600  0.83004  0.72867  1.0000
  C   C1403     1.0  0.59762  0.72146  0.68116  1.0000
  H   H1118     1.0  0.53657  0.92427  0.00834  1.0000
  C   C1404     1.0  0.87129  0.94111  0.72663  1.0000
  C   C1405     1.0  0.50927  0.58426  0.91133  1.0000
  C   C1406     1.0  0.82105  0.65669  0.72651  1.0000
  P   P47       1.0  0.92014  0.62406  0.68789  1.0000
  H   H1119     1.0  0.82685  0.59393  0.91725  1.0000
  H   H1120     1.0  0.74114  0.60618  0.97550  1.0000
  C   C1407     1.0  0.53737  0.87294  0.73315  1.0000
  H   H1121     1.0  0.90897  0.85750  0.73425  1.0000
  P   P48       1.0  0.82821  0.54489  0.87124  1.0000
  H   H1122     1.0  0.90050  0.54549  0.86624  1.0000
  H   H1123     1.0  0.80389  0.60018  0.76412  1.0000
  C   C1408     1.0  0.49354  0.94690  0.88133  1.0000
  H   H1124     1.0  0.57659  0.97743  0.97493  1.0000
  C   C1409     1.0  0.54703  0.81131  0.89522  1.0000
  H   H1125     1.0  0.63627  0.53717  0.98907  1.0000
  H   H1126     1.0  0.50513  0.88438  0.92780  1.0000
  C   C1410     1.0  0.57659  0.77983  0.70729  1.0000
  C   C1411     1.0  0.94425  0.59712  0.71012  1.0000
  C   C1412     1.0  0.63962  0.84046  0.76397  1.0000
  H   H1127     1.0  0.86750  0.94830  0.00669  1.0000
  H   H1128     1.0  0.57737  0.84232  0.96275  1.0000
  H   H1129     1.0  0.95014  0.90411  0.96125  1.0000
  S   S191      1.0  0.92445  0.50417  0.82262  1.0000
  S   S192      1.0  0.51124  0.68989  0.87167  1.0000
  H   H1130     1.0  0.54216  0.94159  0.94466  1.0000
  H   H1131     1.0  0.85062  0.67439  0.76070  1.0000
  H   H1132     1.0  0.58197  0.93914  0.77567  1.0000
  H   H1133     1.0  0.64978  0.93744  0.99900  1.0000
  C   C1413     1.0  0.82500  0.54888  0.98022  1.0000
  H   H1134     1.0  0.55938  0.88268  0.74300  1.0000
  C   C1414     1.0  0.61719  0.97949  0.94619  1.0000
  C   C1415     1.0  0.57561  0.96032  0.81649  1.0000
  C   C1416     1.0  0.82192  0.96763  0.70878  1.0000
  C   C1417     1.0  0.60266  0.78121  0.68819  1.0000
  C   C1418     1.0  0.73222  0.54798  0.92305  1.0000
  C   C1419     1.0  0.63477  0.89344  0.74069  1.0000
  C   C1420     1.0  0.62110  0.80133  0.01041  1.0000
  C   C1421     1.0  0.90071  0.96728  0.84487  1.0000
  C   C1422     1.0  0.58570  0.96955  0.95480  1.0000
  C   C1423     1.0  0.62944  0.96882  0.92060  1.0000
  H   H1135     1.0  0.48942  0.94869  0.96610  1.0000
  H   H1136     1.0  0.54111  0.74895  0.72821  1.0000
  C   C1424     1.0  0.62883  0.84204  0.71433  1.0000
  H   H1137     1.0  0.80004  0.98270  0.71221  1.0000
  H   H1138     1.0  0.52898  0.79213  0.89037  1.0000
  H   H1139     1.0  0.62515  0.89159  0.69698  1.0000
  H   H1140     1.0  0.90167  0.91597  0.69678  1.0000
  C   C1425     1.0  0.92188  0.94742  0.94977  1.0000
  H   H1141     1.0  0.74428  0.80129  0.68218  1.0000
  C   C1426     1.0  0.96118  0.61282  0.99496  1.0000
  C   C1427     1.0  0.69166  0.81041  0.68196  1.0000
  H   H1142     1.0  0.88789  0.93589  0.74381  1.0000
  C   C1428     1.0  0.67384  0.84631  0.00849  1.0000
  C   C1429     1.0  0.63525  0.80965  0.98494  1.0000
  C   C1430     1.0  0.92279  0.97923  0.93814  1.0000
  H   H1143     1.0  0.60073  0.78382  0.01118  1.0000
  C   C1431     1.0  0.88191  0.98041  0.82307  1.0000
  C   C1432     1.0  0.68372  0.51726  0.00114  1.0000
  C   C1433     1.0  0.66050  0.54270  0.99779  1.0000
  C   C1434     1.0  0.85105  0.63009  0.68901  1.0000
  H   H1144     1.0  0.51548  0.49018  0.76628  1.0000
  C   C1435     1.0  0.96834  0.56319  0.96532  1.0000
  H   H1145     1.0  0.56785  0.97438  0.85897  1.0000
  C   C1436     1.0  0.84359  0.79767  0.01020  1.0000
  H   H1146     1.0  0.69438  0.86345  0.00712  1.0000
  H   H1147     1.0  0.64962  0.59448  0.00446  1.0000
  C   C1437     1.0  0.66800  0.57498  0.00664  1.0000
  C   C1438     1.0  0.64061  0.95684  0.01256  1.0000
  H   H1148     1.0  0.74961  0.50240  0.94142  1.0000
  H   H1149     1.0  0.80086  0.50031  0.91378  1.0000
  H   H1150     1.0  0.96633  0.49380  0.99723  1.0000
  C   C1439     1.0  0.86231  0.48707  0.88632  1.0000
  H   H1151     1.0  0.81205  0.49298  0.82951  1.0000
  C   C1440     1.0  0.71421  0.52389  0.01385  1.0000
  H   H1152     1.0  0.50389  0.51151  0.68155  1.0000
