data_image0
_chemical_formula_structural       S2FeHSHCSH2C2SHCHCH2CH4CHC2H2SH2C2FeC3HCH2C3HCH2CH4C3HPH2C2H2CH2SHCFeHFeS2FeS2FeSFeS3FeS2CHFeS3FeS2FeS2FeSFeS3FeS2H2CHS2C6H5C7HCHCHC3H2C6H4C6H4C6H4C6H2C2HCH3CHCFeCHCHSC3H2CH3CH2C7PC6H10C2H4C5H2C2HFeC4HCH4CHC3PC2H3SCHFeC3PH2CPH2C2HSC2HC2H2CHFeCSHCHC2HC4H2C8PC18H20C7HCHCHCHC2H2CFeHCH2CH4CPHC2HC3H5C2HC6PHC6H2C5HC3H4C2H4C3H2CHCH3CHCH2C2H2C2HC4HCHC2HC2HC4HCH2C2H3C4H3CH2CHC2HC3HCSC4H2SCSC3SH2FeSH6CHCH3SC5HCH2C2HC7H4CPHC2HC6H2PHC2PH2CH2C6PC8HCH2C4HCHC2H8C4H3CHCHC5FeCH6C2HCHCHC5H2C2H3CHCSCH2C2H2CHCSC3H2CSH5CFeS2FeHCFeSC2S2FeHFeHSCFeS2FeS2FeSFeS3C7H4C5H4C7H4C4HFePHC2HC3FeH5SHSCH2C5H2C3H2PC5HC6H2SH8CHCHCFePHCH3CHCHCHCHCHCH2CHC2H3C2H3C2HC4PH4C4HC4HCH2C3HCH2C4HSCHCH2C2HCHC3HC3HC7PC7H2C9H11CH2CSCHFeHC2HC3HSCHC9HSC4H2C4HCH3C2HSH2SFeHFeS2FeS2FeSFeS3FeS2FeSFeS3CH2C6H2C6H6C4HC6H3C3HC2FeHC5HC3H8C4H2C2HCHC2HCH2C2H2C2SC3HC2H2CH6CH4C2HCH2SH2C2H2C2HCHCH2CHC2PC7HCH2C7H10C2H3CH2CHPH2C2HC2HCH2C11HCHC3H3C2H6C2HC2SC4H5CHC4PC2H3CH2SCHCHCHCH2CHC2HCSCPCH4CHCH2CH2CHC2HCHC5HPC2HCH4C2HC4H3CSCHCFeSFeS2HFeS2FeS2FeSFeS3FeS2FeSFeSFeS3H2CHCHC7H2CHC6H4C2HC6H4C6H4C6H4C6H4C6PC5HC12H6CHCH11C12H9C2HCHC5HFeCH3C4H2PCHCHCHC5HC2HPCHCHCH2CH5C9PC18H12CH8C3HFeHPH2SHC3HSCPH2CS2C2HC6HCHC3HC4FeCSHFeCHC2HCH3C2SPH3CH2CHCH3CHC3HSC3H4C2H7C2HCHC3HC2H3CSC5H3C2SHCHC3H5C2H4SCFeHFeSC2SFeS2CPCFeHFeS3FeS2FeS2FeSFeS3C7H3C7H4CHC4H3C6H4C7H2C2HSC2SHCHCH2SC2SC2FeH4C2PHSC4HC2H2CHC4HCH2C2H4C6PC18H23C2H5CHC2FeH2CHC2FeHC5H2CHC2HCHC2HCHC6H2C3HC5HCHC3H3C3SH3CH2CHFeC2H3C3HCPHC3H2CHC4HCH2CHC4SH2SPC4H4C2HCHCH2C2H3CFeS2FeS2FeSFeS3FeS2FeSFeCS2C6H4C2HCHC2HC4HC7H5C3HC4HC8PHCSC3H7CH4CHC3HCH4C2HFeCH6CHSH4C2H3C6PC4H2CH2CHC2H7C5H5C2H2C3HC2SHCHCHC3H3C2H3C2H8SH3C2HCHC9PCHCSHC2H2C3H2CH2C3H4C4HC4PC14H2C2H2CHC3HC2HCH3CHCH2C2H4CHC2H3CHC2HPC2HCH3C2HCHC2FeS2FeS2FeSFeS3FeHSFeS2FeSCS2HS2FeS2FeS2Fe2S3HC3FeHC2HCHC8H4C6HCH2C2H2C2H4C6H4C6H4C6H3CH2C6PC7HCHC2H6SH5CH2C3H3PC2H7SCH2C2HCH2CH2C4H3C8HCPC6HPH2CHCH2FeCHCHC2H4C2H2C2H2CH2CPC6PC18H5CH12CH3CHCH2C2H3CHC5SHC4HSHCH2C4HCH4CHCSC3HCH2CH2C10H2C2HCH3C2HC3PCH2C3HC4HSFeC2FeCH5C3H3C2H4CH3C2HCFeSC3HCS2H2FeH7C4H6C2FeS2FeS2FeSFeS3FeS2FeCFeS3FeS2FeS2FeSFeS3FeS2FeSFeCS2C2H2C3H2C6H4C3H2C5H2C6H4C3HC7H4C6H3C7H2Fe2HC11H9C2HC2HC2H2C3HC3H3CHCHC2H3CHCH2C2HC12H3C2HCH2C4HC3H12CH2C7PC4H2C12H6CH8C2H2PHSH2SHCH3C3SC4PCHC2S2CHPHCPHCHCSHCH2C4H2C5HC3HC3H7CHC3H2C4H2C2H2CH2C8HC2HPHC2H4C4HCHC2H2PH2C4HCH2C3H4C3H2C2HCH2CH2CHC2H6C5H3C2HCH3CH3CH2S2C3H4C2HC3H3C6HCH4C4HCHCPCHCHC3HC3H2C3HCHC5HC3PC5HPC7HFeH2C2H3C4H5C4HC2H4CHC2H3C2H3CHSCH2CH4CHC3H3C2HCH2C2HC
_chemical_formula_sum              "S224 Fe112 H1344 C1680 P56"
_cell_length_a       51.2766
_cell_length_b       51.3064
_cell_length_c       66.7716
_cell_angle_alpha    87.9943
_cell_angle_beta     87.795
_cell_angle_gamma    119.939

_space_group_name_H-M_alt    "P 1"
_space_group_IT_number       1

loop_
  _space_group_symop_operation_xyz
  'x, y, z'

loop_
  _atom_site_type_symbol
  _atom_site_label
  _atom_site_symmetry_multiplicity
  _atom_site_fract_x
  _atom_site_fract_y
  _atom_site_fract_z
  _atom_site_occupancy
  S   S1        1.0  0.45415  0.24326  0.27371  1.0000
  S   S2        1.0  0.45614  0.18146  0.27538  1.0000
  Fe  Fe1       1.0  0.43869  0.20371  0.29601  1.0000
  H   H1        1.0  0.27317  0.20434  0.28580  1.0000
  S   S3        1.0  0.18429  0.38681  0.30103  1.0000
  H   H2        1.0  0.45707  0.20515  0.18131  1.0000
  C   C1        1.0  0.22086  0.28321  0.29528  1.0000
  S   S4        1.0  0.18928  0.45432  0.26635  1.0000
  H   H3        1.0  0.23374  0.27930  0.26489  1.0000
  H   H4        1.0  0.34030  0.11470  0.30703  1.0000
  C   C2        1.0  0.33317  0.19293  0.28679  1.0000
  C   C3        1.0  0.32335  0.16926  0.27402  1.0000
  S   S5        1.0  0.25473  0.46374  0.27766  1.0000
  H   H5        1.0  0.30416  0.29598  0.26060  1.0000
  C   C4        1.0  0.33690  0.07976  0.26421  1.0000
  H   H6        1.0  0.34813  0.08440  0.24935  1.0000
  C   C5        1.0  0.34670  0.10257  0.27767  1.0000
  H   H7        1.0  0.25638  0.16297  0.26285  1.0000
  H   H8        1.0  0.28827  0.14022  0.25537  1.0000
  C   C6        1.0  0.29845  0.04504  0.28926  1.0000
  H   H9        1.0  0.44801  0.14005  0.23847  1.0000
  H   H10       1.0  0.25568  0.13188  0.30695  1.0000
  H   H11       1.0  0.27992  0.02264  0.29339  1.0000
  H   H12       1.0  0.33741  0.15942  0.27087  1.0000
  C   C7        1.0  0.47178  0.14761  0.23594  1.0000
  H   H13       1.0  0.20813  0.34655  0.27277  1.0000
  C   C8        1.0  0.22173  0.31387  0.26648  1.0000
  C   C9        1.0  0.30833  0.06781  0.30293  1.0000
  H   H14       1.0  0.13815  0.42632  0.30074  1.0000
  H   H15       1.0  0.29032  0.32025  0.28727  1.0000
  S   S6        1.0  0.38946  0.17610  0.30800  1.0000
  H   H16       1.0  0.32009  0.25915  0.26966  1.0000
  H   H17       1.0  0.15525  0.47756  0.24742  1.0000
  C   C10       1.0  0.28754  0.19497  0.28245  1.0000
  C   C11       1.0  0.21174  0.32882  0.27896  1.0000
  Fe  Fe2       1.0  0.20681  0.43679  0.29073  1.0000
  C   C12       1.0  0.30451  0.28996  0.27628  1.0000
  C   C13       1.0  0.29573  0.15849  0.26535  1.0000
  C   C14       1.0  0.27783  0.17137  0.26955  1.0000
  H   H18       1.0  0.32536  0.00149  0.29097  1.0000
  C   C15       1.0  0.31271  0.05105  0.26997  1.0000
  H   H19       1.0  0.32710  0.47312  0.27144  1.0000
  H   H20       1.0  0.30079  0.47317  0.24095  1.0000
  C   C16       1.0  0.33233  0.09669  0.29684  1.0000
  C   C17       1.0  0.31543  0.20607  0.29110  1.0000
  C   C18       1.0  0.29673  0.30363  0.29128  1.0000
  H   H21       1.0  0.30506  0.03343  0.25948  1.0000
  C   C19       1.0  0.22621  0.29103  0.27462  1.0000
  H   H22       1.0  0.22584  0.31995  0.25048  1.0000
  H   H23       1.0  0.47046  0.32628  0.04716  1.0000
  C   C20       1.0  0.31336  0.26898  0.28146  1.0000
  H   H24       1.0  0.36564  0.12487  0.27339  1.0000
  H   H25       1.0  0.35463  0.20076  0.29326  1.0000
  H   H26       1.0  0.28990  0.11149  0.30523  1.0000
  H   H27       1.0  0.37416  0.29280  0.28707  1.0000
  C   C21       1.0  0.36838  0.25628  0.30759  1.0000
  C   C22       1.0  0.31429  0.26139  0.30175  1.0000
  C   C23       1.0  0.21087  0.29818  0.30795  1.0000
  H   H28       1.0  0.20416  0.47778  0.20023  1.0000
  P   P1        1.0  0.32750  0.23573  0.30843  1.0000
  H   H29       1.0  0.47453  0.16513  0.20571  1.0000
  H   H30       1.0  0.10811  0.37069  0.30545  1.0000
  C   C24       1.0  0.38518  0.28335  0.29570  1.0000
  C   C25       1.0  0.20620  0.32094  0.29955  1.0000
  H   H31       1.0  0.46282  0.35466  0.24720  1.0000
  H   H32       1.0  0.42969  0.31920  0.28541  1.0000
  C   C26       1.0  0.41675  0.29846  0.29467  1.0000
  H   H33       1.0  0.22447  0.26548  0.30120  1.0000
  H   H34       1.0  0.19824  0.33274  0.30886  1.0000
  S   S7        1.0  0.46864  0.22046  0.22120  1.0000
  H   H35       1.0  0.45622  0.29810  0.30440  1.0000
  C   C27       1.0  0.43177  0.28664  0.30540  1.0000
  Fe  Fe3       1.0  0.47573  0.22311  0.25460  1.0000
  H   H36       1.0  0.47640  0.13393  0.26590  1.0000
  Fe  Fe4       1.0  0.12810  0.29704  0.40915  1.0000
  S   S8        1.0  0.11288  0.25144  0.39739  1.0000
  S   S9        1.0  0.13504  0.33935  0.39191  1.0000
  Fe  Fe5       1.0  0.13445  0.27699  0.45190  1.0000
  S   S10       1.0  0.12042  0.23028  0.44316  1.0000
  S   S11       1.0  0.15233  0.28870  0.48276  1.0000
  Fe  Fe6       1.0  0.14986  0.25174  0.41496  1.0000
  S   S12       1.0  0.18928  0.24573  0.40479  1.0000
  Fe  Fe7       1.0  0.08462  0.23378  0.42673  1.0000
  S   S13       1.0  0.03714  0.19539  0.43441  1.0000
  S   S14       1.0  0.16662  0.29855  0.42488  1.0000
  S   S15       1.0  0.09699  0.27942  0.43732  1.0000
  Fe  Fe8       1.0  0.09444  0.28639  0.59033  1.0000
  S   S16       1.0  0.07146  0.23771  0.60040  1.0000
  S   S17       1.0  0.08356  0.29899  0.56021  1.0000
  C   C28       1.0  0.02211  0.33782  0.37630  1.0000
  H   H37       1.0  0.35568  0.08237  0.32782  1.0000
  Fe  Fe9       1.0  0.11513  0.24740  0.61328  1.0000
  S   S18       1.0  0.12780  0.21212  0.60493  1.0000
  S   S19       1.0  0.08097  0.30018  0.61870  1.0000
  S   S20       1.0  0.13909  0.29561  0.60077  1.0000
  Fe  Fe10      1.0  0.21987  0.11172  0.40344  1.0000
  S   S21       1.0  0.25338  0.14027  0.42513  1.0000
  S   S22       1.0  0.18572  0.12216  0.39021  1.0000
  Fe  Fe11      1.0  0.24088  0.06528  0.40415  1.0000
  S   S23       1.0  0.27608  0.09107  0.42572  1.0000
  S   S24       1.0  0.24111  0.02292  0.39613  1.0000
  Fe  Fe12      1.0  0.24032  0.09641  0.44222  1.0000
  S   S25       1.0  0.22479  0.08115  0.47504  1.0000
  Fe  Fe13      1.0  0.28610  0.13217  0.40645  1.0000
  S   S26       1.0  0.33454  0.16814  0.39705  1.0000
  S   S27       1.0  0.20440  0.06812  0.42161  1.0000
  S   S28       1.0  0.25322  0.10617  0.38381  1.0000
  Fe  Fe14      1.0  0.27057  0.13925  0.58104  1.0000
  S   S29       1.0  0.22276  0.12161  0.59291  1.0000
  S   S30       1.0  0.28925  0.15742  0.54912  1.0000
  H   H38       1.0  0.20054  0.06492  0.35378  1.0000
  H   H39       1.0  0.30703  0.14497  0.35933  1.0000
  C   C29       1.0  0.23563  0.17665  0.54173  1.0000
  H   H40       1.0  0.30586  0.07201  0.45950  1.0000
  S   S31       1.0  0.27589  0.10321  0.59711  1.0000
  S   S32       1.0  0.29034  0.17169  0.60528  1.0000
  C   C30       1.0  0.24344  0.10251  0.49538  1.0000
  C   C31       1.0  0.27009  0.13029  0.49245  1.0000
  C   C32       1.0  0.28409  0.14672  0.50909  1.0000
  C   C33       1.0  0.27149  0.13560  0.52871  1.0000
  C   C34       1.0  0.24494  0.10771  0.53163  1.0000
  C   C35       1.0  0.23101  0.09125  0.51501  1.0000
  H   H41       1.0  0.27994  0.13901  0.47738  1.0000
  H   H42       1.0  0.30483  0.16809  0.50680  1.0000
  H   H43       1.0  0.23511  0.09886  0.54668  1.0000
  H   H44       1.0  0.21049  0.06971  0.51737  1.0000
  H   H45       1.0  0.23527  0.04488  0.35294  1.0000
  C   C36       1.0  0.28293  0.19233  0.33576  1.0000
  C   C37       1.0  0.17569  0.45904  0.37579  1.0000
  C   C38       1.0  0.31178  0.21811  0.33323  1.0000
  C   C39       1.0  0.26777  0.20450  0.46115  1.0000
  C   C40       1.0  0.15565  0.20406  0.61320  1.0000
  C   C41       1.0  0.16067  0.18331  0.60293  1.0000
  C   C42       1.0  0.18265  0.17622  0.60878  1.0000
  H   H46       1.0  0.29961  0.21674  0.41349  1.0000
  C   C43       1.0  0.98249  0.19970  0.63248  1.0000
  H   H47       1.0  0.18621  0.16018  0.60078  1.0000
  C   C44       1.0  0.10981  0.47329  0.35370  1.0000
  H   H48       1.0  0.00923  0.19890  0.60724  1.0000
  C   C45       1.0  0.01176  0.27011  0.42312  1.0000
  C   C46       1.0  0.00696  0.18555  0.41880  1.0000
  C   C47       1.0  0.01137  0.19808  0.39916  1.0000
  H   H49       1.0  0.01197  0.16580  0.48837  1.0000
  H   H50       1.0  0.03390  0.21414  0.39310  1.0000
  C   C48       1.0  0.18703  0.21053  0.40201  1.0000
  C   C49       1.0  0.16031  0.18500  0.39742  1.0000
  C   C50       1.0  0.16019  0.15806  0.39371  1.0000
  C   C51       1.0  0.18646  0.15614  0.39527  1.0000
  C   C52       1.0  0.21301  0.18156  0.40016  1.0000
  C   C53       1.0  0.21335  0.20872  0.40325  1.0000
  H   H51       1.0  0.13994  0.18617  0.39633  1.0000
  H   H52       1.0  0.13959  0.13851  0.38984  1.0000
  H   H53       1.0  0.23339  0.18042  0.40111  1.0000
  H   H54       1.0  0.23414  0.22855  0.40648  1.0000
  C   C54       1.0  0.13113  0.28941  0.50388  1.0000
  C   C55       1.0  0.13819  0.28361  0.52301  1.0000
  C   C56       1.0  0.12353  0.28623  0.54037  1.0000
  C   C57       1.0  0.10178  0.29487  0.53867  1.0000
  C   C58       1.0  0.09423  0.30011  0.51952  1.0000
  C   C59       1.0  0.10882  0.29728  0.50212  1.0000
  H   H55       1.0  0.15495  0.27688  0.52438  1.0000
  H   H56       1.0  0.12914  0.28174  0.55505  1.0000
  H   H57       1.0  0.07735  0.30672  0.51817  1.0000
  H   H58       1.0  0.10352  0.30209  0.48742  1.0000
  C   C60       1.0  0.17210  0.37389  0.32657  1.0000
  C   C61       1.0  0.15534  0.34272  0.33170  1.0000
  C   C62       1.0  0.14497  0.33168  0.35177  1.0000
  C   C63       1.0  0.15061  0.35177  0.36685  1.0000
  C   C64       1.0  0.16756  0.38288  0.36173  1.0000
  C   C65       1.0  0.17845  0.39390  0.34177  1.0000
  H   H59       1.0  0.03363  0.28172  0.31840  1.0000
  H   H60       1.0  0.13222  0.30770  0.35548  1.0000
  H   H61       1.0  0.17237  0.39860  0.37325  1.0000
  H   H62       1.0  0.19144  0.41789  0.33817  1.0000
  C   C66       1.0  0.34982  0.17011  0.37228  1.0000
  C   C67       1.0  0.38128  0.18585  0.36815  1.0000
  C   C68       1.0  0.39395  0.18756  0.34865  1.0000
  C   C69       1.0  0.37519  0.17386  0.33304  1.0000
  C   C70       1.0  0.34380  0.15874  0.33711  1.0000
  C   C71       1.0  0.33119  0.15672  0.35658  1.0000
  H   H63       1.0  0.39593  0.19648  0.38013  1.0000
  H   H64       1.0  0.41818  0.19950  0.34570  1.0000
  C   C72       1.0  0.01076  0.25531  0.44136  1.0000
  C   C73       1.0  0.09844  0.38059  0.42105  1.0000
  H   H65       1.0  0.24884  0.35175  0.32630  1.0000
  C   C74       1.0  0.13575  0.43324  0.33221  1.0000
  H   H66       1.0  0.03028  0.26444  0.45027  1.0000
  H   H67       1.0  0.07669  0.13727  0.59641  1.0000
  H   H68       1.0  0.27455  0.22104  0.54066  1.0000
  C   C75       1.0  0.29085  0.20380  0.47143  1.0000
  H   H69       1.0  0.03197  0.29114  0.41836  1.0000
  C   C76       1.0  0.24008  0.00516  0.46637  1.0000
  Fe  Fe15      1.0  0.29268  0.13454  0.62253  1.0000
  C   C77       1.0  0.01019  0.18474  0.49342  1.0000
  H   H70       1.0  0.19449  0.22746  0.33014  1.0000
  C   C78       1.0  0.28566  0.05359  0.46712  1.0000
  H   H71       1.0  0.34976  0.25068  0.34889  1.0000
  S   S33       1.0  0.22858  0.18257  0.63265  1.0000
  C   C79       1.0  0.36052  0.10660  0.37483  1.0000
  C   C80       1.0  0.14191  0.26292  0.32674  1.0000
  C   C81       1.0  0.98654  0.18929  0.38724  1.0000
  H   H72       1.0  0.98565  0.13546  0.54410  1.0000
  H   H73       1.0  0.06775  0.37691  0.44534  1.0000
  C   C82       1.0  0.26118  0.26936  0.36403  1.0000
  H   H74       1.0  0.23200  0.01441  0.31489  1.0000
  H   H75       1.0  0.29618  0.01947  0.35685  1.0000
  H   H76       1.0  0.27197  0.02747  0.44099  1.0000
  C   C83       1.0  0.23283  0.18870  0.50079  1.0000
  H   H77       1.0  0.19607  0.34304  0.39203  1.0000
  H   H78       1.0  0.21067  0.10864  0.33113  1.0000
  C   C84       1.0  0.09563  0.43099  0.40678  1.0000
  C   C85       1.0  0.15809  0.14212  0.44388  1.0000
  C   C86       1.0  0.15856  0.11513  0.44411  1.0000
  C   C87       1.0  0.18102  0.11279  0.45379  1.0000
  C   C88       1.0  0.20336  0.13756  0.46291  1.0000
  C   C89       1.0  0.20310  0.16475  0.46275  1.0000
  C   C90       1.0  0.18035  0.16694  0.45302  1.0000
  P   P2        1.0  0.23271  0.19661  0.47421  1.0000
  C   C91       1.0  0.22525  0.22742  0.47145  1.0000
  C   C92       1.0  0.23764  0.24854  0.45489  1.0000
  C   C93       1.0  0.20505  0.26833  0.46391  1.0000
  C   C94       1.0  0.19345  0.24828  0.48088  1.0000
  C   C95       1.0  0.20336  0.22777  0.48459  1.0000
  C   C96       1.0  0.27110  0.20883  0.44015  1.0000
  H   H79       1.0  0.14093  0.14409  0.43612  1.0000
  H   H80       1.0  0.14190  0.09624  0.43642  1.0000
  H   H81       1.0  0.18142  0.09188  0.45399  1.0000
  H   H82       1.0  0.22099  0.13559  0.47001  1.0000
  H   H83       1.0  0.17982  0.18776  0.45200  1.0000
  H   H84       1.0  0.19437  0.14321  0.50225  1.0000
  H   H85       1.0  0.19680  0.28365  0.46067  1.0000
  H   H86       1.0  0.17622  0.24822  0.49085  1.0000
  H   H87       1.0  0.19299  0.21140  0.49723  1.0000
  H   H88       1.0  0.25285  0.20740  0.43182  1.0000
  C   C97       1.0  0.23929  0.00389  0.32598  1.0000
  C   C98       1.0  0.36948  0.10123  0.35614  1.0000
  H   H89       1.0  0.26166  0.39713  0.34440  1.0000
  H   H90       1.0  0.27132  0.23250  0.50489  1.0000
  H   H91       1.0  0.23576  0.28387  0.43771  1.0000
  H   H92       1.0  0.42690  0.25023  0.32520  1.0000
  C   C99       1.0  0.98319  0.20448  0.51248  1.0000
  C   C100      1.0  0.22981  0.37286  0.36944  1.0000
  C   C101      1.0  0.25087  0.46882  0.63688  1.0000
  C   C102      1.0  0.99177  0.11915  0.60834  1.0000
  C   C103      1.0  0.03894  0.16643  0.62668  1.0000
  H   H93       1.0  0.09408  0.45034  0.40158  1.0000
  H   H94       1.0  0.99507  0.27948  0.34279  1.0000
  C   C104      1.0  0.25156  0.03211  0.49684  1.0000
  C   C105      1.0  0.27808  0.05544  0.48713  1.0000
  H   H95       1.0  0.33423  0.20661  0.46889  1.0000
  Fe  Fe16      1.0  0.12404  0.30598  0.63034  1.0000
  C   C106      1.0  0.15215  0.23955  0.35517  1.0000
  C   C107      1.0  0.26663  0.02848  0.45673  1.0000
  C   C108      1.0  0.12139  0.21846  0.35815  1.0000
  C   C109      1.0  0.98498  0.22815  0.44778  1.0000
  H   H96       1.0  0.08775  0.34622  0.33957  1.0000
  C   C110      1.0  0.06010  0.27702  0.34100  1.0000
  H   H97       1.0  0.02699  0.18691  0.57552  1.0000
  H   H98       1.0  0.24586  0.03463  0.51213  1.0000
  H   H99       1.0  0.29223  0.07542  0.49495  1.0000
  H   H100      1.0  0.18188  0.29716  0.37392  1.0000
  C   C111      1.0  0.99032  0.23441  0.55616  1.0000
  H   H101      1.0  0.14999  0.32709  0.32004  1.0000
  C   C112      1.0  0.24693  0.28427  0.35615  1.0000
  C   C113      1.0  0.22288  0.26947  0.34371  1.0000
  C   C114      1.0  0.99040  0.10244  0.56242  1.0000
  P   P3        1.0  0.20281  0.28775  0.33461  1.0000
  C   C115      1.0  0.16276  0.26178  0.33928  1.0000
  C   C116      1.0  0.21346  0.32104  0.34833  1.0000
  H   H102      1.0  0.23530  0.39291  0.37730  1.0000
  H   H103      1.0  0.31411  0.03442  0.58904  1.0000
  H   H104      1.0  0.24518  0.48192  0.62674  1.0000
  S   S34       1.0  0.18934  0.03919  0.61257  1.0000
  C   C117      1.0  0.19938  0.31877  0.36727  1.0000
  H   H105      1.0  0.14764  0.17289  0.59025  1.0000
  Fe  Fe17      1.0  0.06054  0.25149  0.62944  1.0000
  C   C118      1.0  0.25652  0.20460  0.53232  1.0000
  C   C119      1.0  0.31694  0.20803  0.46089  1.0000
  C   C120      1.0  0.11110  0.24203  0.32995  1.0000
  P   P4        1.0  0.98948  0.27571  0.38672  1.0000
  H   H106      1.0  0.08132  0.27146  0.36676  1.0000
  H   H107      1.0  0.03065  0.33266  0.36287  1.0000
  C   C121      1.0  0.99733  0.24648  0.57497  1.0000
  P   P5        1.0  0.13551  0.44304  0.37314  1.0000
  H   H108      1.0  0.25427  0.30700  0.36027  1.0000
  H   H109      1.0  0.23861  0.02574  0.61250  1.0000
  C   C122      1.0  0.23679  0.34938  0.34051  1.0000
  C   C123      1.0  0.01615  0.27414  0.36892  1.0000
  H   H110      1.0  0.26499  0.41079  0.63706  1.0000
  S   S35       1.0  0.24620  0.11599  0.63759  1.0000
  C   C124      1.0  0.30641  0.27521  0.31672  1.0000
  C   C125      1.0  0.10083  0.21982  0.34566  1.0000
  H   H111      1.0  0.37710  0.11859  0.38560  1.0000
  C   C126      1.0  0.03123  0.36795  0.37928  1.0000
  C   C127      1.0  0.19632  0.47960  0.36074  1.0000
  H   H112      1.0  0.02730  0.39875  0.39855  1.0000
  H   H113      1.0  0.18849  0.01112  0.37410  1.0000
  C   C128      1.0  0.02048  0.37542  0.39640  1.0000
  H   H114      1.0  0.14529  0.02232  0.53579  1.0000
  Fe  Fe18      1.0  0.24272  0.15122  0.61851  1.0000
  C   C129      1.0  0.26712  0.02078  0.33453  1.0000
  S   S36       1.0  0.33844  0.14613  0.63459  1.0000
  H   H115      1.0  0.18485  0.01256  0.46888  1.0000
  C   C130      1.0  0.21167  0.16074  0.51041  1.0000
  H   H116      1.0  0.12927  0.39001  0.39567  1.0000
  C   C131      1.0  0.42612  0.32557  0.63982  1.0000
  C   C132      1.0  0.30876  0.03422  0.60492  1.0000
  H   H117      1.0  0.15706  0.00256  0.50570  1.0000
  C   C133      1.0  0.19054  0.00534  0.61111  1.0000
  C   C134      1.0  0.04322  0.16059  0.60690  1.0000
  C   C135      1.0  0.20762  0.34465  0.37774  1.0000
  C   C136      1.0  0.12509  0.41971  0.35171  1.0000
  H   H118      1.0  0.04329  0.26889  0.39117  1.0000
  H   H119      1.0  0.28853  0.19890  0.48745  1.0000
  C   C137      1.0  0.31773  0.07803  0.34632  1.0000
  C   C138      1.0  0.10058  0.37056  0.33746  1.0000
  C   C139      1.0  0.26122  0.22792  0.58305  1.0000
  C   C140      1.0  0.29221  0.24726  0.57942  1.0000
  C   C141      1.0  0.30291  0.27444  0.56801  1.0000
  C   C142      1.0  0.28257  0.28212  0.56009  1.0000
  C   C143      1.0  0.25136  0.26221  0.56304  1.0000
  C   C144      1.0  0.24087  0.23547  0.57508  1.0000
  P   P6        1.0  0.22503  0.27285  0.55401  1.0000
  C   C145      1.0  0.22228  0.29587  0.57286  1.0000
  C   C146      1.0  0.23613  0.29201  0.52937  1.0000
  C   C147      1.0  0.22238  0.30811  0.52250  1.0000
  C   C148      1.0  0.22991  0.32224  0.50321  1.0000
  C   C149      1.0  0.25128  0.32044  0.49063  1.0000
  C   C150      1.0  0.26441  0.30366  0.49710  1.0000
  C   C151      1.0  0.25657  0.28914  0.51632  1.0000
  C   C152      1.0  0.20725  0.28228  0.59152  1.0000
  C   C153      1.0  0.20525  0.29964  0.60652  1.0000
  C   C154      1.0  0.21834  0.33080  0.60300  1.0000
  C   C155      1.0  0.23411  0.34467  0.58462  1.0000
  C   C156      1.0  0.23642  0.32735  0.56966  1.0000
  C   C157      1.0  0.18901  0.23969  0.55107  1.0000
  C   C158      1.0  0.18789  0.21471  0.54232  1.0000
  C   C159      1.0  0.16021  0.18867  0.54025  1.0000
  C   C160      1.0  0.13340  0.18766  0.54651  1.0000
  C   C161      1.0  0.13425  0.21288  0.55447  1.0000
  C   C162      1.0  0.16194  0.23885  0.55675  1.0000
  H   H120      1.0  0.25292  0.20709  0.59219  1.0000
  H   H121      1.0  0.30784  0.24117  0.58561  1.0000
  H   H122      1.0  0.32696  0.28965  0.56549  1.0000
  H   H123      1.0  0.29116  0.30364  0.55179  1.0000
  H   H124      1.0  0.21699  0.22054  0.57852  1.0000
  H   H125      1.0  0.20555  0.30950  0.53199  1.0000
  H   H126      1.0  0.21856  0.33396  0.49785  1.0000
  H   H127      1.0  0.25678  0.33110  0.47558  1.0000
  H   H128      1.0  0.28006  0.30131  0.48702  1.0000
  H   H129      1.0  0.26612  0.27539  0.52080  1.0000
  H   H130      1.0  0.19676  0.25816  0.59436  1.0000
  H   H131      1.0  0.25251  0.44099  0.61401  1.0000
  H   H132      1.0  0.30752  0.27021  0.33244  1.0000
  H   H133      1.0  0.24431  0.36883  0.58192  1.0000
  H   H134      1.0  0.24917  0.33859  0.55569  1.0000
  H   H135      1.0  0.20845  0.21528  0.53732  1.0000
  H   H136      1.0  0.15959  0.16921  0.53395  1.0000
  H   H137      1.0  0.11200  0.16729  0.54534  1.0000
  H   H138      1.0  0.11351  0.21216  0.55947  1.0000
  H   H139      1.0  0.16203  0.25793  0.56324  1.0000
  C   C163      1.0  0.41526  0.25975  0.31720  1.0000
  C   C164      1.0  0.20015  0.19015  0.62487  1.0000
  C   C165      1.0  0.24453  0.37521  0.35088  1.0000
  C   C166      1.0  0.28787  0.18991  0.37157  1.0000
  C   C167      1.0  0.32029  0.21306  0.44002  1.0000
  C   C168      1.0  0.02960  0.23851  0.49259  1.0000
  C   C169      1.0  0.03197  0.21398  0.48647  1.0000
  H   H140      1.0  0.98018  0.24686  0.60484  1.0000
  C   C170      1.0  0.16045  0.01341  0.53659  1.0000
  H   H141      1.0  0.11345  0.20138  0.37045  1.0000
  C   C171      1.0  0.00515  0.23380  0.50533  1.0000
  H   H142      1.0  0.34011  0.21546  0.43178  1.0000
  C   C172      1.0  0.34813  0.08656  0.34205  1.0000
  H   H143      1.0  0.43355  0.22263  0.61573  1.0000
  C   C173      1.0  0.22569  0.09950  0.33027  1.0000
  C   C174      1.0  0.17310  0.21796  0.62930  1.0000
  H   H144      1.0  0.27908  0.28056  0.37411  1.0000
  H   H145      1.0  0.25441  0.24909  0.44441  1.0000
  C   C175      1.0  0.08051  0.38953  0.43163  1.0000
  Fe  Fe19      1.0  0.22932  0.08734  0.61089  1.0000
  H   H146      1.0  0.09972  0.36107  0.42644  1.0000
  C   C176      1.0  0.21988  0.07476  0.34298  1.0000
  H   H147      1.0  0.09720  0.45328  0.34555  1.0000
  H   H148      1.0  0.98471  0.21602  0.46145  1.0000
  C   C177      1.0  0.27107  0.17828  0.35488  1.0000
  H   H149      1.0  0.06474  0.17506  0.59877  1.0000
  H   H150      1.0  0.23754  0.17154  0.55732  1.0000
  H   H151      1.0  0.04660  0.26116  0.48724  1.0000
  H   H152      1.0  0.05058  0.21759  0.47621  1.0000
  C   C178      1.0  0.32783  0.23044  0.35026  1.0000
  P   P7        1.0  0.29001  0.06076  0.32787  1.0000
  H   H153      1.0  0.00326  0.25303  0.50952  1.0000
  C   C179      1.0  0.11375  0.42214  0.39604  1.0000
  C   C180      1.0  0.38376  0.24473  0.31835  1.0000
  H   H154      1.0  0.14911  0.45745  0.32962  1.0000
  C   C181      1.0  0.00100  0.35283  0.41075  1.0000
  C   C182      1.0  0.25478  0.21085  0.51204  1.0000
  C   C183      1.0  0.03557  0.27891  0.33433  1.0000
  H   H155      1.0  0.24905  0.15805  0.35682  1.0000
  H   H156      1.0  0.19271  0.28870  0.62064  1.0000
  H   H157      1.0  0.02057  0.26222  0.57789  1.0000
  H   H158      1.0  0.00848  0.24150  0.54479  1.0000
  H   H159      1.0  0.16754  0.23837  0.36531  1.0000
  C   C184      1.0  0.19529  0.21108  0.63504  1.0000
  C   C185      1.0  0.11511  0.39696  0.40347  1.0000
  H   H160      1.0  0.17207  0.43690  0.40499  1.0000
  C   C186      1.0  0.05091  0.21407  0.54881  1.0000
  C   C187      1.0  0.06540  0.21566  0.53030  1.0000
  C   C188      1.0  0.06801  0.19118  0.52444  1.0000
  C   C189      1.0  0.05631  0.16512  0.53720  1.0000
  C   C190      1.0  0.04226  0.16356  0.55605  1.0000
  C   C191      1.0  0.03886  0.18793  0.56150  1.0000
  P   P8        1.0  0.02588  0.12927  0.57199  1.0000
  H   H161      1.0  0.07694  0.20371  0.34823  1.0000
  C   C192      1.0  0.05163  0.11468  0.57080  1.0000
  C   C193      1.0  0.07413  0.12257  0.58455  1.0000
  C   C194      1.0  0.09411  0.11152  0.58314  1.0000
  C   C195      1.0  0.09211  0.09278  0.56790  1.0000
  C   C196      1.0  0.07004  0.08500  0.55404  1.0000
  C   C197      1.0  0.04989  0.09586  0.55547  1.0000
  H   H162      1.0  0.29184  0.30705  0.32308  1.0000
  H   H163      1.0  0.05710  0.18510  0.63366  1.0000
  C   C198      1.0  0.01366  0.27746  0.34821  1.0000
  C   C199      1.0  0.30884  0.08266  0.36538  1.0000
  C   C200      1.0  0.98742  0.12531  0.62805  1.0000
  C   C201      1.0  0.01987  0.13664  0.59762  1.0000
  C   C202      1.0  0.07925  0.41483  0.42457  1.0000
  H   H164      1.0  0.32951  0.22454  0.38216  1.0000
  C   C203      1.0  0.10681  0.38813  0.35409  1.0000
  C   C204      1.0  0.22775  0.22474  0.34721  1.0000
  C   C205      1.0  0.04065  0.27175  0.37543  1.0000
  H   H165      1.0  0.04928  0.23327  0.55341  1.0000
  H   H166      1.0  0.07450  0.23582  0.52042  1.0000
  H   H167      1.0  0.07915  0.19254  0.50998  1.0000
  H   H168      1.0  0.05823  0.14627  0.53227  1.0000
  C   C206      1.0  0.98732  0.25723  0.41080  1.0000
  C   C207      1.0  0.97771  0.16426  0.42641  1.0000
  H   H169      1.0  0.11121  0.11755  0.59394  1.0000
  H   H170      1.0  0.10768  0.08429  0.56689  1.0000
  H   H171      1.0  0.06855  0.07051  0.54219  1.0000
  H   H172      1.0  0.03309  0.08971  0.54448  1.0000
  C   C208      1.0  0.21756  0.00489  0.61154  1.0000
  C   C209      1.0  0.33016  0.09688  0.37954  1.0000
  C   C210      1.0  0.12981  0.47460  0.36797  1.0000
  H   H173      1.0  0.26968  0.18275  0.32304  1.0000
  H   H174      1.0  0.39307  0.10891  0.35245  1.0000
  C   C211      1.0  0.23964  0.06340  0.34242  1.0000
  H   H175      1.0  0.43892  0.36319  0.61855  1.0000
  C   C212      1.0  0.29748  0.21376  0.42969  1.0000
  H   H176      1.0  0.28550  0.07547  0.36932  1.0000
  H   H177      1.0  0.31615  0.07944  0.60309  1.0000
  H   H178      1.0  0.99278  0.35862  0.42409  1.0000
  C   C213      1.0  0.99193  0.32267  0.40787  1.0000
  H   H179      1.0  0.99009  0.19880  0.37200  1.0000
  C   C214      1.0  0.22731  0.26867  0.45106  1.0000
  H   H180      1.0  0.06549  0.42187  0.43288  1.0000
  H   H181      1.0  0.19755  0.13284  0.53803  1.0000
  C   C215      1.0  0.21313  0.15480  0.53082  1.0000
  C   C216      1.0  0.30085  0.00871  0.61753  1.0000
  H   H182      1.0  0.09784  0.37657  0.36863  1.0000
  H   H183      1.0  0.07737  0.27870  0.33031  1.0000
  C   C217      1.0  0.00219  0.31488  0.39053  1.0000
  C   C218      1.0  0.11200  0.38429  0.31826  1.0000
  H   H184      1.0  0.32327  0.10120  0.39400  1.0000
  C   C219      1.0  0.21351  0.23961  0.33923  1.0000
  C   C220      1.0  0.06245  0.27315  0.36152  1.0000
  C   C221      1.0  0.17385  0.01388  0.55453  1.0000
  C   C222      1.0  0.18691  0.45181  0.39273  1.0000
  H   H185      1.0  0.32911  0.14882  0.32510  1.0000
  C   C223      1.0  0.31613  0.21605  0.36927  1.0000
  H   H186      1.0  0.16902  0.02293  0.56771  1.0000
  C   C224      1.0  0.44000  0.23388  0.62963  1.0000
  C   C225      1.0  0.98601  0.17995  0.50652  1.0000
  H   H187      1.0  0.21968  0.20133  0.34440  1.0000
  C   C226      1.0  0.23235  0.00669  0.48656  1.0000
  C   C227      1.0  0.27052  0.10091  0.31584  1.0000
  H   H188      1.0  0.04655  0.38549  0.36822  1.0000
  C   C228      1.0  0.25156  0.23963  0.35960  1.0000
  C   C229      1.0  0.20829  0.98946  0.39078  1.0000
  C   C230      1.0  0.26504  0.07621  0.32872  1.0000
  C   C231      1.0  0.27541  0.00684  0.34947  1.0000
  H   H189      1.0  0.37139  0.22380  0.32741  1.0000
  C   C232      1.0  0.30961  0.05948  0.61279  1.0000
  H   H190      1.0  0.21584  0.34409  0.61441  1.0000
  H   H191      1.0  0.98740  0.06413  0.57929  1.0000
  C   C233      1.0  0.98683  0.18972  0.61412  1.0000
  C   C234      1.0  0.01103  0.14887  0.63724  1.0000
  H   H192      1.0  0.26193  0.22781  0.36630  1.0000
  H   H193      1.0  0.16942  0.23387  0.63737  1.0000
  H   H194      1.0  0.27924  0.17834  0.38625  1.0000
  C   C235      1.0  0.18665  0.98988  0.37883  1.0000
  C   C236      1.0  0.25505  0.44580  0.62971  1.0000
  C   C237      1.0  0.16712  0.00208  0.51956  1.0000
  C   C238      1.0  0.20061  0.99167  0.53850  1.0000
  H   H195      1.0  0.40759  0.31009  0.63135  1.0000
  H   H196      1.0  0.22639  0.45746  0.40683  1.0000
  H   H197      1.0  0.15042  0.99811  0.44139  1.0000
  C   C239      1.0  0.19392  0.00301  0.55545  1.0000
  H   H198      1.0  0.20451  0.00362  0.56928  1.0000
  H   H199      1.0  0.29983  0.98900  0.61135  1.0000
  C   C240      1.0  0.30204  0.05912  0.63317  1.0000
  H   H200      1.0  0.22527  0.98625  0.45788  1.0000
  C   C241      1.0  0.23816  0.48331  0.37853  1.0000
  C   C242      1.0  0.46447  0.23563  0.63931  1.0000
  H   H201      1.0  0.09517  0.24292  0.32016  1.0000
  C   C243      1.0  0.18714  0.99095  0.52044  1.0000
  C   C244      1.0  0.21797  0.46370  0.39396  1.0000
  C   C245      1.0  0.16908  0.98887  0.46722  1.0000
  H   H202      1.0  0.40462  0.24462  0.63024  1.0000
  C   C246      1.0  0.29382  0.00846  0.63802  1.0000
  S   S37       1.0  0.21188  0.47187  0.31152  1.0000
  C   C247      1.0  0.12922  0.41562  0.31563  1.0000
  C   C248      1.0  0.25102  0.11259  0.31672  1.0000
  C   C249      1.0  0.44403  0.35557  0.63241  1.0000
  C   C250      1.0  0.42336  0.24606  0.63807  1.0000
  H   H203      1.0  0.14928  0.27975  0.31441  1.0000
  H   H204      1.0  0.30258  0.07887  0.63897  1.0000
  S   S38       1.0  0.15960  0.34953  0.64337  1.0000
  C   C251      1.0  0.26189  0.42856  0.64287  1.0000
  S   S39       1.0  0.10270  0.25795  0.64350  1.0000
  C   C252      1.0  0.46871  0.37566  0.64275  1.0000
  C   C253      1.0  0.29759  0.29619  0.31147  1.0000
  C   C254      1.0  0.00371  0.40739  0.73806  1.0000
  S   S40       1.0  0.44935  0.23234  0.75527  1.0000
  H   H205      1.0  0.39949  0.47471  0.68949  1.0000
  H   H206      1.0  0.40072  0.22790  0.69574  1.0000
  Fe  Fe20      1.0  0.44452  0.20424  0.72887  1.0000
  S   S41       1.0  0.39664  0.17088  0.72000  1.0000
  H   H207      1.0  0.00427  0.28866  0.69931  1.0000
  H   H208      1.0  0.26823  0.43440  0.81070  1.0000
  H   H209      1.0  0.06844  0.42011  0.69388  1.0000
  H   H210      1.0  0.04703  0.42560  0.75014  1.0000
  H   H211      1.0  0.15016  0.43468  0.66357  1.0000
  H   H212      1.0  0.13911  0.46500  0.79354  1.0000
  C   C255      1.0  0.98232  0.27958  0.69318  1.0000
  H   H213      1.0  0.36517  0.43228  0.71367  1.0000
  C   C256      1.0  0.35616  0.43832  0.70104  1.0000
  H   H214      1.0  0.34757  0.08218  0.65761  1.0000
  H   H215      1.0  0.17942  0.48170  0.68113  1.0000
  H   H216      1.0  0.19844  0.40826  0.65663  1.0000
  S   S42       1.0  0.15961  0.41248  0.72455  1.0000
  C   C257      1.0  0.14036  0.47782  0.69724  1.0000
  C   C258      1.0  0.13863  0.44224  0.67372  1.0000
  C   C259      1.0  0.05010  0.44682  0.72074  1.0000
  C   C260      1.0  0.28718  0.98543  0.69145  1.0000
  C   C261      1.0  0.15510  0.46864  0.68362  1.0000
  H   H217      1.0  0.18742  0.36801  0.73210  1.0000
  C   C262      1.0  0.45591  0.26214  0.66579  1.0000
  H   H218      1.0  0.34503  0.07394  0.73197  1.0000
  H   H219      1.0  0.46411  0.32820  0.68129  1.0000
  C   C263      1.0  0.24333  0.07965  0.69119  1.0000
  C   C264      1.0  0.45792  0.33570  0.66781  1.0000
  H   H220      1.0  0.12185  0.42316  0.77059  1.0000
  C   C265      1.0  0.15771  0.36681  0.66567  1.0000
  C   C266      1.0  0.18086  0.39635  0.66839  1.0000
  C   C267      1.0  0.18162  0.41055  0.68623  1.0000
  C   C268      1.0  0.15904  0.39550  0.70162  1.0000
  C   C269      1.0  0.13556  0.36610  0.69882  1.0000
  C   C270      1.0  0.13485  0.35180  0.68096  1.0000
  C   C271      1.0  0.98737  0.40823  0.72201  1.0000
  H   H221      1.0  0.19973  0.43310  0.68813  1.0000
  H   H222      1.0  0.11796  0.35419  0.71063  1.0000
  H   H223      1.0  0.11692  0.32904  0.67916  1.0000
  H   H224      1.0  0.98960  0.42899  0.69291  1.0000
  C   C272      1.0  0.27211  0.47663  0.80072  1.0000
  P   P9        1.0  0.28596  0.03416  0.67246  1.0000
  H   H225      1.0  0.31431  0.18791  0.65189  1.0000
  C   C273      1.0  0.34663  0.07929  0.67378  1.0000
  C   C274      1.0  0.34555  0.07489  0.71571  1.0000
  H   H226      1.0  0.32430  0.46144  0.65635  1.0000
  C   C275      1.0  0.38094  0.16624  0.69610  1.0000
  C   C276      1.0  0.34937  0.15190  0.69517  1.0000
  C   C277      1.0  0.33590  0.14625  0.67654  1.0000
  C   C278      1.0  0.35385  0.15411  0.65859  1.0000
  C   C279      1.0  0.38537  0.16833  0.65955  1.0000
  C   C280      1.0  0.39890  0.17489  0.67811  1.0000
  H   H227      1.0  0.33523  0.14498  0.70897  1.0000
  H   H228      1.0  0.31165  0.13526  0.67609  1.0000
  P   P10       1.0  0.41044  0.27672  0.66710  1.0000
  H   H229      1.0  0.42315  0.18574  0.67853  1.0000
  C   C281      1.0  0.26889  0.99616  0.68377  1.0000
  C   C282      1.0  0.28263  0.45867  0.80929  1.0000
  P   P11       1.0  0.09040  0.47208  0.71952  1.0000
  H   H230      1.0  0.28772  0.98843  0.64744  1.0000
  H   H231      1.0  0.28325  0.07889  0.69820  1.0000
  C   C283      1.0  0.09251  0.43433  0.69088  1.0000
  H   H232      1.0  0.00744  0.15421  0.65230  1.0000
  H   H233      1.0  0.41223  0.31696  0.69817  1.0000
  C   C284      1.0  0.26403  0.33026  0.66675  1.0000
  C   C285      1.0  0.23535  0.31526  0.65931  1.0000
  C   C286      1.0  0.21842  0.32966  0.65801  1.0000
  C   C287      1.0  0.23019  0.35906  0.66400  1.0000
  C   C288      1.0  0.25890  0.37434  0.67159  1.0000
  C   C289      1.0  0.27575  0.35963  0.67296  1.0000
  P   P12       1.0  0.27279  0.41169  0.68051  1.0000
  C   C290      1.0  0.26426  0.43403  0.66338  1.0000
  C   C291      1.0  0.25481  0.40898  0.70494  1.0000
  C   C292      1.0  0.27038  0.43035  0.71899  1.0000
  C   C293      1.0  0.25655  0.42852  0.73783  1.0000
  C   C294      1.0  0.22678  0.40583  0.74265  1.0000
  C   C295      1.0  0.21090  0.38487  0.72864  1.0000
  C   C296      1.0  0.22481  0.38635  0.70988  1.0000
  C   C297      1.0  0.26070  0.45763  0.67037  1.0000
  H   H234      1.0  0.39944  0.17419  0.64580  1.0000
  C   C298      1.0  0.35646  0.27420  0.65797  1.0000
  H   H235      1.0  0.24950  0.46628  0.79560  1.0000
  H   H236      1.0  0.36713  0.21378  0.66097  1.0000
  C   C299      1.0  0.31317  0.43068  0.68255  1.0000
  C   C300      1.0  0.33281  0.45456  0.66881  1.0000
  C   C301      1.0  0.23561  0.03810  0.66273  1.0000
  C   C302      1.0  0.37196  0.25821  0.65991  1.0000
  H   H237      1.0  0.47369  0.14172  0.76902  1.0000
  C   C303      1.0  0.32513  0.42260  0.69864  1.0000
  H   H238      1.0  0.27703  0.31895  0.66791  1.0000
  C   C304      1.0  0.32611  0.21207  0.65343  1.0000
  C   C305      1.0  0.21850  0.06855  0.67939  1.0000
  H   H239      1.0  0.21664  0.36973  0.66293  1.0000
  H   H240      1.0  0.29782  0.37058  0.67885  1.0000
  H   H241      1.0  0.29304  0.44892  0.71538  1.0000
  H   H242      1.0  0.26874  0.44534  0.74845  1.0000
  H   H243      1.0  0.19594  0.31804  0.65255  1.0000
  H   H244      1.0  0.19588  0.03988  0.65558  1.0000
  H   H245      1.0  0.21165  0.37025  0.69922  1.0000
  H   H246      1.0  0.26292  0.46263  0.68605  1.0000
  C   C306      1.0  0.25378  0.47477  0.65717  1.0000
  C   C307      1.0  0.32007  0.05792  0.68480  1.0000
  C   C308      1.0  0.35621  0.22687  0.65833  1.0000
  C   C309      1.0  0.10739  0.42502  0.67742  1.0000
  H   H247      1.0  0.99407  0.26110  0.66824  1.0000
  H   H248      1.0  0.39168  0.11117  0.71225  1.0000
  H   H249      1.0  0.09486  0.40403  0.67019  1.0000
  C   C310      1.0  0.03496  0.42663  0.73748  1.0000
  H   H250      1.0  0.31035  0.40450  0.70955  1.0000
  C   C311      1.0  0.40789  0.27321  0.69417  1.0000
  H   H251      1.0  0.46280  0.18402  0.83668  1.0000
  C   C312      1.0  0.36383  0.47029  0.67130  1.0000
  C   C313      1.0  0.40228  0.26670  0.73627  1.0000
  C   C314      1.0  0.39964  0.24310  0.72510  1.0000
  C   C315      1.0  0.40262  0.24636  0.70413  1.0000
  C   C316      1.0  0.43249  0.31564  0.65786  1.0000
  Fe  Fe21      1.0  0.19627  0.46016  0.73085  1.0000
  C   C317      1.0  0.37549  0.46223  0.68743  1.0000
  H   H252      1.0  0.40080  0.26434  0.75253  1.0000
  H   H253      1.0  0.20865  0.22190  0.64753  1.0000
  H   H254      1.0  0.40909  0.31164  0.73515  1.0000
  H   H255      1.0  0.21568  0.40496  0.75700  1.0000
  H   H256      1.0  0.29931  0.04017  0.71472  1.0000
  H   H257      1.0  0.45732  0.08847  0.77897  1.0000
  C   C318      1.0  0.11920  0.44242  0.76688  1.0000
  C   C319      1.0  0.10763  0.44446  0.74862  1.0000
  H   H258      1.0  0.99215  0.39180  0.75099  1.0000
  C   C320      1.0  0.32625  0.25931  0.65313  1.0000
  H   H259      1.0  0.36756  0.29803  0.66038  1.0000
  C   C321      1.0  0.21470  0.04785  0.66513  1.0000
  H   H260      1.0  0.31982  0.45822  0.82290  1.0000
  C   C322      1.0  0.40696  0.29332  0.72646  1.0000
  C   C323      1.0  0.31164  0.47208  0.81618  1.0000
  C   C324      1.0  0.12888  0.46593  0.77981  1.0000
  C   C325      1.0  0.37192  0.09584  0.70461  1.0000
  C   C326      1.0  0.03352  0.44761  0.70471  1.0000
  H   H261      1.0  0.39546  0.22227  0.73273  1.0000
  H   H262      1.0  0.24671  0.09632  0.70187  1.0000
  C   C327      1.0  0.26409  0.06963  0.68902  1.0000
  C   C328      1.0  0.31974  0.05593  0.70587  1.0000
  H   H263      1.0  0.31150  0.99965  0.69054  1.0000
  H   H264      1.0  0.46256  0.27350  0.67963  1.0000
  H   H265      1.0  0.23249  0.02240  0.65138  1.0000
  C   C329      1.0  0.40924  0.29641  0.70547  1.0000
  H   H266      1.0  0.10124  0.42646  0.73850  1.0000
  C   C330      1.0  0.26014  0.04841  0.67494  1.0000
  S   S43       1.0  0.22831  0.47237  0.75574  1.0000
  C   C331      1.0  0.37247  0.09793  0.68368  1.0000
  H   H267      1.0  0.22613  0.29239  0.65471  1.0000
  H   H268      1.0  0.04484  0.46307  0.69170  1.0000
  C   C332      1.0  0.29447  0.03375  0.64601  1.0000
  C   C333      1.0  0.43081  0.25969  0.65647  1.0000
  H   H269      1.0  0.39270  0.11483  0.67515  1.0000
  H   H270      1.0  0.20263  0.07661  0.68087  1.0000
  C   C334      1.0  0.10541  0.46998  0.74322  1.0000
  H   H271      1.0  0.47214  0.31613  0.77352  1.0000
  C   C335      1.0  0.00227  0.42834  0.70535  1.0000
  S   S44       1.0  0.01335  0.22716  0.64492  1.0000
  C   C336      1.0  0.10889  0.46107  0.70077  1.0000
  C   C337      1.0  0.47256  0.24996  0.65730  1.0000
  C   C338      1.0  0.31117  0.22830  0.65070  1.0000
  H   H272      1.0  0.28776  0.21671  0.64703  1.0000
  H   H273      1.0  0.31431  0.27162  0.65148  1.0000
  C   C339      1.0  0.47574  0.36567  0.66039  1.0000
  S   S45       1.0  0.24553  0.52325  0.27386  1.0000
  H   H274      1.0  0.21814  0.56311  0.28034  1.0000
  H   H275      1.0  0.35722  0.75140  0.10307  1.0000
  H   H276      1.0  0.26763  0.68098  0.29451  1.0000
  H   H277      1.0  0.25725  0.80029  0.29155  1.0000
  H   H278      1.0  0.12169  0.49801  0.24085  1.0000
  C   C340      1.0  0.36068  0.57164  0.19526  1.0000
  Fe  Fe22      1.0  0.21555  0.70864  0.24610  1.0000
  S   S46       1.0  0.24647  0.69506  0.25984  1.0000
  S   S47       1.0  0.20107  0.70058  0.21423  1.0000
  Fe  Fe23      1.0  0.20780  0.73655  0.28458  1.0000
  H   H279      1.0  0.36865  0.53396  0.19510  1.0000
  C   C341      1.0  0.25609  0.92081  0.30146  1.0000
  Fe  Fe24      1.0  0.26764  0.74086  0.27226  1.0000
  S   S48       1.0  0.31760  0.77241  0.26867  1.0000
  C   C342      1.0  0.33625  0.49318  0.26143  1.0000
  C   C343      1.0  0.33760  0.74041  0.05015  1.0000
  S   S49       1.0  0.23880  0.75547  0.25665  1.0000
  S   S50       1.0  0.18148  0.69058  0.27271  1.0000
  Fe  Fe25      1.0  0.43868  0.67287  0.28598  1.0000
  H   H280      1.0  0.44220  0.68694  0.20447  1.0000
  Fe  Fe26      1.0  0.42396  0.72053  0.29821  1.0000
  H   H281      1.0  0.24301  0.70152  0.10576  1.0000
  S   S51       1.0  0.40487  0.68503  0.27595  1.0000
  C   C344      1.0  0.34619  0.55911  0.15530  1.0000
  Fe  Fe27      1.0  0.30562  0.64027  0.09063  1.0000
  S   S52       1.0  0.26236  0.62719  0.10911  1.0000
  S   S53       1.0  0.31028  0.65127  0.05564  1.0000
  Fe  Fe28      1.0  0.33927  0.64847  0.13044  1.0000
  S   S54       1.0  0.29855  0.63639  0.15067  1.0000
  S   S55       1.0  0.38284  0.65840  0.14467  1.0000
  Fe  Fe29      1.0  0.27437  0.59955  0.12991  1.0000
  S   S56       1.0  0.23888  0.55329  0.14351  1.0000
  Fe  Fe30      1.0  0.29002  0.66486  0.12882  1.0000
  S   S57       1.0  0.27897  0.70082  0.13757  1.0000
  S   S58       1.0  0.31567  0.60964  0.11036  1.0000
  S   S59       1.0  0.33253  0.67967  0.10963  1.0000
  C   C345      1.0  0.39939  0.70937  0.07791  1.0000
  C   C346      1.0  0.30992  0.64525  0.02894  1.0000
  C   C347      1.0  0.31515  0.66870  0.01475  1.0000
  C   C348      1.0  0.31442  0.66473  0.99374  1.0000
  C   C349      1.0  0.30827  0.63706  0.98627  1.0000
  C   C350      1.0  0.30336  0.61372  0.00047  1.0000
  C   C351      1.0  0.30423  0.61773  0.02147  1.0000
  H   H282      1.0  0.31973  0.69017  0.02000  1.0000
  H   H283      1.0  0.30890  0.69615  0.26801  1.0000
  H   H284      1.0  0.29868  0.59222  0.99517  1.0000
  H   H285      1.0  0.30041  0.59937  0.03188  1.0000
  C   C352      1.0  0.41199  0.70466  0.20426  1.0000
  C   C353      1.0  0.38913  0.70571  0.19390  1.0000
  C   C354      1.0  0.37870  0.69010  0.17634  1.0000
  C   C355      1.0  0.39204  0.67437  0.16838  1.0000
  C   C356      1.0  0.41457  0.67285  0.17889  1.0000
  H   H286      1.0  0.41073  0.61606  0.25148  1.0000
  H   H287      1.0  0.37982  0.71920  0.19929  1.0000
  H   H288      1.0  0.36132  0.69143  0.16845  1.0000
  H   H289      1.0  0.42499  0.66068  0.17289  1.0000
  C   C357      1.0  0.38456  0.75618  0.06622  1.0000
  C   C358      1.0  0.22314  0.69870  0.19382  1.0000
  C   C359      1.0  0.25181  0.70211  0.19582  1.0000
  C   C360      1.0  0.26863  0.70114  0.17882  1.0000
  C   C361      1.0  0.25695  0.69716  0.15974  1.0000
  C   C362      1.0  0.22837  0.69387  0.15790  1.0000
  C   C363      1.0  0.21146  0.69419  0.17482  1.0000
  H   H290      1.0  0.26125  0.70615  0.21034  1.0000
  H   H291      1.0  0.29098  0.70440  0.18036  1.0000
  H   H292      1.0  0.21940  0.69150  0.14327  1.0000
  H   H293      1.0  0.18947  0.69174  0.17309  1.0000
  C   C364      1.0  0.33810  0.75966  0.28217  1.0000
  C   C365      1.0  0.36239  0.51934  0.26588  1.0000
  C   C366      1.0  0.20722  0.54491  0.09721  1.0000
  C   C367      1.0  0.26568  0.93327  0.28166  1.0000
  H   H294      1.0  0.42404  0.75130  0.15483  1.0000
  Fe  Fe31      1.0  0.25857  0.50008  0.29708  1.0000
  P   P13       1.0  0.20175  0.60245  0.05592  1.0000
  H   H295      1.0  0.24346  0.53564  0.10064  1.0000
  C   C368      1.0  0.11510  0.58396  0.05020  1.0000
  C   C369      1.0  0.39836  0.75054  0.10827  1.0000
  H   H296      1.0  0.39023  0.71136  0.04657  1.0000
  C   C370      1.0  0.27328  0.54080  0.19477  1.0000
  C   C371      1.0  0.26978  0.55399  0.17694  1.0000
  C   C372      1.0  0.24284  0.53946  0.16727  1.0000
  Fe  Fe32      1.0  0.19829  0.49194  0.28645  1.0000
  H   H297      1.0  0.33635  0.77396  0.03058  1.0000
  H   H298      1.0  0.29470  0.55142  0.20151  1.0000
  H   H299      1.0  0.28819  0.57497  0.17035  1.0000
  H   H300      1.0  0.37777  0.65943  0.04106  1.0000
  H   H301      1.0  0.10344  0.59660  0.04883  1.0000
  S   S60       1.0  0.23876  0.72565  0.30111  1.0000
  H   H302      1.0  0.12998  0.53159  0.30850  1.0000
  S   S61       1.0  0.25690  0.49359  0.22275  1.0000
  C   C373      1.0  0.36196  0.54773  0.18654  1.0000
  H   H303      1.0  0.34700  0.68074  0.27226  1.0000
  H   H304      1.0  0.41917  0.80270  0.05910  1.0000
  C   C374      1.0  0.25383  0.68327  0.08029  1.0000
  C   C375      1.0  0.36524  0.75304  0.13428  1.0000
  C   C376      1.0  0.38615  0.65033  0.07115  1.0000
  C   C377      1.0  0.29061  0.96224  0.27790  1.0000
  C   C378      1.0  0.23490  0.54730  0.09155  1.0000
  H   H305      1.0  0.35353  0.60943  0.18952  1.0000
  H   H306      1.0  0.33995  0.59754  0.15469  1.0000
  C   C379      1.0  0.20930  0.59769  0.29070  1.0000
  C   C380      1.0  0.20168  0.56766  0.28749  1.0000
  C   C381      1.0  0.25201  0.56565  0.07468  1.0000
  H   H307      1.0  0.22136  0.65696  0.02943  1.0000
  H   H308      1.0  0.23168  0.61602  0.28615  1.0000
  P   P14       1.0  0.37109  0.58030  0.22074  1.0000
  C   C382      1.0  0.35878  0.54589  0.23614  1.0000
  C   C383      1.0  0.41143  0.60522  0.22052  1.0000
  C   C384      1.0  0.42994  0.61119  0.20289  1.0000
  C   C385      1.0  0.33264  0.51936  0.23176  1.0000
  C   C386      1.0  0.21717  0.82153  0.25602  1.0000
  H   H309      1.0  0.16718  0.62135  0.19381  1.0000
  C   C387      1.0  0.35127  0.59806  0.23118  1.0000
  C   C388      1.0  0.36570  0.62953  0.23180  1.0000
  C   C389      1.0  0.35011  0.64320  0.23951  1.0000
  C   C390      1.0  0.31992  0.62557  0.24657  1.0000
  C   C391      1.0  0.30524  0.59433  0.24571  1.0000
  C   C392      1.0  0.32082  0.58055  0.23813  1.0000
  H   H310      1.0  0.42046  0.60142  0.18902  1.0000
  H   H311      1.0  0.32021  0.51907  0.21895  1.0000
  S   S62       1.0  0.18520  0.76240  0.29566  1.0000
  H   H312      1.0  0.13595  0.63897  0.21073  1.0000
  H   H313      1.0  0.38893  0.64365  0.22623  1.0000
  H   H314      1.0  0.36149  0.66757  0.23969  1.0000
  H   H315      1.0  0.30755  0.63605  0.25223  1.0000
  H   H316      1.0  0.28165  0.58083  0.25070  1.0000
  H   H317      1.0  0.30885  0.55629  0.23754  1.0000
  H   H318      1.0  0.27692  0.70164  0.07835  1.0000
  H   H319      1.0  0.25889  0.65928  0.05617  1.0000
  C   C393      1.0  0.24967  0.51329  0.20337  1.0000
  H   H320      1.0  0.45175  0.74627  0.05379  1.0000
  C   C394      1.0  0.21890  0.51240  0.17617  1.0000
  H   H321      1.0  0.17298  0.61499  0.09019  1.0000
  C   C395      1.0  0.24350  0.65923  0.06777  1.0000
  Fe  Fe33      1.0  0.44217  0.71898  0.25456  1.0000
  P   P15       1.0  0.22355  0.88357  0.30631  1.0000
  H   H322      1.0  0.35269  0.86075  0.29217  1.0000
  C   C396      1.0  0.23550  0.64833  0.00103  1.0000
  H   H323      1.0  0.15686  0.53851  0.05373  1.0000
  H   H324      1.0  0.25384  0.92067  0.26911  1.0000
  H   H325      1.0  0.37792  0.75308  0.16468  1.0000
  C   C397      1.0  0.21720  0.61276  0.03023  1.0000
  H   H326      1.0  0.27390  0.56830  0.07060  1.0000
  C   C398      1.0  0.24145  0.58160  0.06348  1.0000
  H   H327      1.0  0.17225  0.83671  0.28619  1.0000
  C   C399      1.0  0.36671  0.59892  0.29093  1.0000
  H   H328      1.0  0.37360  0.51957  0.27935  1.0000
  C   C400      1.0  0.30505  0.83185  0.28971  1.0000
  H   H329      1.0  0.16421  0.93386  0.29303  1.0000
  C   C401      1.0  0.19016  0.88710  0.30807  1.0000
  H   H330      1.0  0.37058  0.61917  0.28271  1.0000
  C   C402      1.0  0.46118  0.80079  0.08537  1.0000
  H   H331      1.0  0.15849  0.62347  0.05211  1.0000
  H   H332      1.0  0.37278  0.77286  0.25840  1.0000
  C   C403      1.0  0.36502  0.76300  0.27357  1.0000
  H   H333      1.0  0.21555  0.80603  0.24484  1.0000
  C   C404      1.0  0.20558  0.65848  0.09930  1.0000
  C   C405      1.0  0.19525  0.63430  0.08688  1.0000
  H   H334      1.0  0.09430  0.72153  0.30261  1.0000
  H   H335      1.0  0.31809  0.57810  0.29210  1.0000
  H   H336      1.0  0.26544  0.84335  0.25595  1.0000
  C   C406      1.0  0.24728  0.86162  0.27745  1.0000
  C   C407      1.0  0.19101  0.81987  0.26450  1.0000
  H   H337      1.0  0.19459  0.53143  0.11072  1.0000
  H   H338      1.0  0.10187  0.51201  0.05047  1.0000
  H   H339      1.0  0.10776  0.77147  0.28767  1.0000
  C   C408      1.0  0.46262  0.76705  0.06140  1.0000
  C   C409      1.0  0.15206  0.54992  0.30338  1.0000
  H   H340      1.0  0.24172  0.67025  0.99413  1.0000
  C   C410      1.0  0.40122  0.69115  0.09334  1.0000
  C   C411      1.0  0.39169  0.69791  0.05886  1.0000
  C   C412      1.0  0.42431  0.68766  0.19684  1.0000
  C   C413      1.0  0.09509  0.76368  0.30209  1.0000
  P   P16       1.0  0.40699  0.74715  0.08224  1.0000
  H   H341      1.0  0.34506  0.71162  0.07018  1.0000
  H   H342      1.0  0.16921  0.80292  0.25994  1.0000
  H   H343      1.0  0.39522  0.64765  0.10219  1.0000
  H   H344      1.0  0.38842  0.81377  0.03664  1.0000
  C   C414      1.0  0.14625  0.59909  0.05218  1.0000
  C   C415      1.0  0.27795  0.80946  0.29931  1.0000
  C   C416      1.0  0.24529  0.84247  0.26242  1.0000
  C   C417      1.0  0.22024  0.59190  0.01873  1.0000
  H   H345      1.0  0.23471  0.58381  0.98996  1.0000
  C   C418      1.0  0.21388  0.63488  0.07067  1.0000
  C   C419      1.0  0.35436  0.54128  0.16671  1.0000
  C   C420      1.0  0.42462  0.61926  0.23796  1.0000
  C   C421      1.0  0.20733  0.54611  0.22558  1.0000
  H   H346      1.0  0.13151  0.63784  0.24786  1.0000
  C   C422      1.0  0.34970  0.76912  0.04064  1.0000
  H   H347      1.0  0.31498  0.72284  0.04743  1.0000
  H   H348      1.0  0.25544  0.59652  0.05091  1.0000
  C   C423      1.0  0.16147  0.58284  0.05405  1.0000
  C   C424      1.0  0.17313  0.54363  0.29419  1.0000
  C   C425      1.0  0.37359  0.54561  0.25336  1.0000
  H   H349      1.0  0.07495  0.54086  0.04812  1.0000
  C   C426      1.0  0.34607  0.58362  0.16362  1.0000
  H   H350      1.0  0.39335  0.56560  0.25758  1.0000
  H   H351      1.0  0.21431  0.56989  0.02527  1.0000
  C   C427      1.0  0.23135  0.59948  0.99866  1.0000
  C   C428      1.0  0.37250  0.75206  0.11401  1.0000
  C   C429      1.0  0.22433  0.64082  0.02110  1.0000
  C   C430      1.0  0.38393  0.75300  0.14894  1.0000
  H   H352      1.0  0.46582  0.64738  0.25190  1.0000
  S   S63       1.0  0.42696  0.72807  0.22467  1.0000
  C   C431      1.0  0.16429  0.91475  0.30039  1.0000
  H   H353      1.0  0.40702  0.69905  0.10818  1.0000
  C   C432      1.0  0.35483  0.73404  0.06301  1.0000
  H   H354      1.0  0.34459  0.75295  0.13868  1.0000
  H   H355      1.0  0.19129  0.65795  0.11188  1.0000
  C   C433      1.0  0.32148  0.49317  0.24429  1.0000
  C   C434      1.0  0.39453  0.66176  0.08998  1.0000
  H   H356      1.0  0.34005  0.55409  0.13999  1.0000
  C   C435      1.0  0.30727  0.68236  0.28121  1.0000
  H   H357      1.0  0.38023  0.62731  0.06871  1.0000
  C   C436      1.0  0.11421  0.53630  0.05114  1.0000
  C   C437      1.0  0.41720  0.75086  0.12313  1.0000
  C   C438      1.0  0.21364  0.57920  0.06897  1.0000
  H   H358      1.0  0.35470  0.52241  0.16020  1.0000
  C   C439      1.0  0.35353  0.59011  0.18347  1.0000
  C   C440      1.0  0.38492  0.66847  0.05557  1.0000
  C   C441      1.0  0.09906  0.55256  0.04976  1.0000
  H   H359      1.0  0.43716  0.74954  0.11916  1.0000
  C   C442      1.0  0.40995  0.75203  0.14336  1.0000
  C   C443      1.0  0.20924  0.61678  0.14971  1.0000
  C   C444      1.0  0.19293  0.58887  0.14146  1.0000
  C   C445      1.0  0.17888  0.56246  0.15399  1.0000
  C   C446      1.0  0.18136  0.56391  0.17477  1.0000
  C   C447      1.0  0.19782  0.59194  0.18312  1.0000
  C   C448      1.0  0.21166  0.61826  0.17045  1.0000
  P   P17       1.0  0.20265  0.59485  0.20971  1.0000
  C   C449      1.0  0.18834  0.55780  0.22172  1.0000
  C   C450      1.0  0.24256  0.61922  0.21227  1.0000
  C   C451      1.0  0.25312  0.64522  0.22309  1.0000
  C   C452      1.0  0.28405  0.66570  0.22313  1.0000
  C   C453      1.0  0.30465  0.66036  0.21241  1.0000
  C   C454      1.0  0.29442  0.63426  0.20195  1.0000
  C   C455      1.0  0.26348  0.61403  0.20158  1.0000
  H   H360      1.0  0.17576  0.55972  0.09108  1.0000
  H   H361      1.0  0.15886  0.61890  0.26824  1.0000
  C   C456      1.0  0.39647  0.78510  0.05677  1.0000
  C   C457      1.0  0.37907  0.79150  0.04402  1.0000
  C   C458      1.0  0.15730  0.54010  0.22708  1.0000
  C   C459      1.0  0.18094  0.60970  0.22144  1.0000
  C   C460      1.0  0.17824  0.60903  0.24250  1.0000
  C   C461      1.0  0.16033  0.61896  0.25201  1.0000
  C   C462      1.0  0.14477  0.62939  0.24056  1.0000
  C   C463      1.0  0.14709  0.62983  0.21961  1.0000
  C   C464      1.0  0.16523  0.62017  0.21003  1.0000
  H   H362      1.0  0.22076  0.63728  0.14003  1.0000
  H   H363      1.0  0.19202  0.58769  0.12533  1.0000
  H   H364      1.0  0.16728  0.54076  0.14753  1.0000
  H   H365      1.0  0.17123  0.54312  0.18408  1.0000
  H   H366      1.0  0.22479  0.63988  0.17670  1.0000
  H   H367      1.0  0.23757  0.65049  0.23077  1.0000
  H   H368      1.0  0.29202  0.68617  0.23102  1.0000
  H   H369      1.0  0.32857  0.67643  0.21222  1.0000
  H   H370      1.0  0.31049  0.63007  0.19375  1.0000
  H   H371      1.0  0.25579  0.59476  0.19251  1.0000
  H   H372      1.0  0.23124  0.55894  0.22148  1.0000
  C   C465      1.0  0.39127  0.59611  0.29674  1.0000
  H   H373      1.0  0.14214  0.54852  0.22408  1.0000
  H   H374      1.0  0.19006  0.60083  0.25153  1.0000
  C   C466      1.0  0.19669  0.56095  0.08606  1.0000
  S   S64       1.0  0.42903  0.62527  0.29207  1.0000
  C   C467      1.0  0.14535  0.55138  0.05313  1.0000
  H   H375      1.0  0.20998  0.50808  0.23737  1.0000
  Fe  Fe34      1.0  0.21463  0.68069  0.28734  1.0000
  H   H376      1.0  0.26920  0.87713  0.28263  1.0000
  C   C468      1.0  0.23478  0.68304  0.09591  1.0000
  C   C469      1.0  0.16450  0.49984  0.24017  1.0000
  H   H377      1.0  0.34360  0.64913  0.30197  1.0000
  C   C470      1.0  0.32881  0.67365  0.28364  1.0000
  C   C471      1.0  0.33182  0.54951  0.30727  1.0000
  C   C472      1.0  0.30598  0.97907  0.29386  1.0000
  H   H378      1.0  0.30558  0.83963  0.27434  1.0000
  S   S65       1.0  0.45949  0.75571  0.27655  1.0000
  C   C473      1.0  0.45587  0.63762  0.23811  1.0000
  H   H379      1.0  0.29805  0.97160  0.26258  1.0000
  C   C474      1.0  0.18842  0.60365  0.30073  1.0000
  C   C475      1.0  0.33694  0.57548  0.29606  1.0000
  C   C476      1.0  0.38170  0.75305  0.28439  1.0000
  C   C477      1.0  0.46114  0.63040  0.20293  1.0000
  C   C478      1.0  0.32805  0.74675  0.30167  1.0000
  C   C479      1.0  0.38591  0.56948  0.30699  1.0000
  C   C480      1.0  0.44645  0.77345  0.07596  1.0000
  C   C481      1.0  0.19532  0.51716  0.23470  1.0000
  C   C482      1.0  0.22229  0.49936  0.19410  1.0000
  H   H380      1.0  0.40217  0.75527  0.27750  1.0000
  S   S66       1.0  0.16315  0.50532  0.29320  1.0000
  C   C483      1.0  0.32718  0.65634  0.30083  1.0000
  C   C484      1.0  0.22106  0.86016  0.28601  1.0000
  C   C485      1.0  0.47413  0.64342  0.22059  1.0000
  C   C486      1.0  0.19288  0.83901  0.27949  1.0000
  H   H381      1.0  0.44907  0.80638  0.09647  1.0000
  H   H382      1.0  0.20913  0.92831  0.28897  1.0000
  C   C487      1.0  0.28423  0.67409  0.29610  1.0000
  C   C488      1.0  0.23907  0.62769  0.98983  1.0000
  C   C489      1.0  0.33165  0.84360  0.29975  1.0000
  C   C490      1.0  0.15980  0.57962  0.30693  1.0000
  H   H383      1.0  0.47522  0.63521  0.18924  1.0000
  C   C491      1.0  0.18976  0.91152  0.29818  1.0000
  H   H384      1.0  0.09209  0.80379  0.30534  1.0000
  H   H385      1.0  0.98167  0.69480  0.28798  1.0000
  H   H386      1.0  0.31832  0.68307  0.98328  1.0000
  C   C492      1.0  0.37207  0.74080  0.30412  1.0000
  C   C493      1.0  0.14551  0.51135  0.23642  1.0000
  H   H387      1.0  0.19798  0.50094  0.16881  1.0000
  S   S67       1.0  0.47553  0.70469  0.26320  1.0000
  H   H388      1.0  0.03181  0.65285  0.30632  1.0000
  H   H389      1.0  0.30730  0.74422  0.30835  1.0000
  S   S68       1.0  0.19849  0.63971  0.30891  1.0000
  Fe  Fe35      1.0  0.23770  0.48469  0.25513  1.0000
  H   H390      1.0  0.97850  0.62286  0.29832  1.0000
  Fe  Fe36      1.0  0.10708  0.82817  0.42706  1.0000
  S   S69       1.0  0.07862  0.83740  0.40627  1.0000
  S   S70       1.0  0.10532  0.84402  0.45812  1.0000
  Fe  Fe37      1.0  0.13099  0.80516  0.39330  1.0000
  S   S71       1.0  0.10529  0.81406  0.37031  1.0000
  S   S72       1.0  0.15983  0.78397  0.38592  1.0000
  Fe  Fe38      1.0  0.11991  0.85756  0.38511  1.0000
  S   S73       1.0  0.13389  0.90167  0.36757  1.0000
  Fe  Fe39      1.0  0.06636  0.79308  0.39360  1.0000
  S   S74       1.0  0.02133  0.75535  0.38420  1.0000
  S   S75       1.0  0.14899  0.85053  0.40635  1.0000
  S   S76       1.0  0.09138  0.78191  0.41618  1.0000
  Fe  Fe40      1.0  0.13707  0.82368  0.56902  1.0000
  S   S77       1.0  0.12298  0.85749  0.57606  1.0000
  S   S78       1.0  0.14924  0.81297  0.53856  1.0000
  Fe  Fe41      1.0  0.08816  0.82041  0.59767  1.0000
  S   S79       1.0  0.04089  0.81338  0.59552  1.0000
  Fe  Fe42      1.0  0.15359  0.86969  0.60162  1.0000
  S   S80       1.0  0.19113  0.91593  0.60968  1.0000
  S   S81       1.0  0.10091  0.78615  0.58924  1.0000
  S   S82       1.0  0.17080  0.83879  0.59258  1.0000
  C   C494      1.0  0.19020  0.95005  0.60938  1.0000
  H   H391      1.0  0.34878  0.72446  0.37098  1.0000
  H   H392      1.0  0.36771  0.66319  0.33258  1.0000
  C   C495      1.0  0.20570  0.96174  0.39674  1.0000
  C   C496      1.0  0.08423  0.67378  0.33147  1.0000
  C   C497      1.0  0.32403  0.58888  0.34808  1.0000
  C   C498      1.0  0.16114  0.93504  0.37787  1.0000
  C   C499      1.0  0.16343  0.96275  0.37213  1.0000
  C   C500      1.0  0.18198  0.93463  0.39059  1.0000
  H   H393      1.0  0.14741  0.96326  0.36228  1.0000
  H   H394      1.0  0.18071  0.91358  0.39497  1.0000
  C   C501      1.0  0.11780  0.83490  0.48016  1.0000
  C   C502      1.0  0.13216  0.81782  0.48003  1.0000
  C   C503      1.0  0.14171  0.81125  0.49806  1.0000
  C   C504      1.0  0.13645  0.82121  0.51632  1.0000
  C   C505      1.0  0.12165  0.83784  0.51645  1.0000
  C   C506      1.0  0.11283  0.84504  0.49839  1.0000
  H   H395      1.0  0.13615  0.80996  0.46604  1.0000
  H   H396      1.0  0.15317  0.79837  0.49787  1.0000
  H   H397      1.0  0.11730  0.84546  0.53041  1.0000
  H   H398      1.0  0.10204  0.85848  0.49854  1.0000
  H   H399      1.0  0.34066  0.69143  0.34315  1.0000
  H   H400      1.0  0.27861  0.61424  0.38149  1.0000
  C   C507      1.0  0.27764  0.79796  0.31866  1.0000
  C   C508      1.0  0.36150  0.64030  0.33735  1.0000
  C   C509      1.0  0.14129  0.52545  0.37453  1.0000
  C   C510      1.0  0.97927  0.77724  0.59651  1.0000
  H   H401      1.0  0.14220  0.92970  0.60763  1.0000
  C   C511      1.0  0.98550  0.77801  0.39812  1.0000
  C   C512      1.0  0.16386  0.78432  0.32485  1.0000
  C   C513      1.0  0.15729  0.78861  0.34469  1.0000
  C   C514      1.0  0.16620  0.77743  0.36080  1.0000
  C   C515      1.0  0.18127  0.76140  0.35686  1.0000
  C   C516      1.0  0.18773  0.75697  0.33695  1.0000
  H   H402      1.0  0.14556  0.80076  0.34752  1.0000
  H   H403      1.0  0.18787  0.75240  0.36929  1.0000
  H   H404      1.0  0.19900  0.74437  0.33396  1.0000
  C   C517      1.0  0.25788  0.57117  0.32858  1.0000
  C   C518      1.0  0.25603  0.97659  0.35581  1.0000
  C   C519      1.0  0.01431  0.65104  0.31687  1.0000
  H   H405      1.0  0.20888  0.88896  0.34836  1.0000
  C   C520      1.0  0.18422  0.89972  0.52773  1.0000
  C   C521      1.0  0.99876  0.66474  0.34760  1.0000
  Fe  Fe43      1.0  0.13376  0.80383  0.61358  1.0000
  H   H406      1.0  0.07117  0.68821  0.42519  1.0000
  C   C522      1.0  0.08632  0.78188  0.31204  1.0000
  C   C523      1.0  0.33281  0.70052  0.37323  1.0000
  C   C524      1.0  0.06920  0.68810  0.40909  1.0000
  C   C525      1.0  0.08572  0.71423  0.37613  1.0000
  C   C526      1.0  0.97891  0.84185  0.46632  1.0000
  H   H407      1.0  0.11522  0.94408  0.43635  1.0000
  C   C527      1.0  0.18237  0.92529  0.52232  1.0000
  C   C528      1.0  0.30458  0.64881  0.31615  1.0000
  C   C529      1.0  0.12032  0.65714  0.59411  1.0000
  H   H408      1.0  0.01267  0.83342  0.62410  1.0000
  H   H409      1.0  0.23276  0.95161  0.48154  1.0000
  H   H410      1.0  0.22345  0.52995  0.31765  1.0000
  H   H411      1.0  0.14241  0.97818  0.60930  1.0000
  H   H412      1.0  0.22959  0.82841  0.38018  1.0000
  H   H413      1.0  0.01143  0.72924  0.31379  1.0000
  H   H414      1.0  0.00410  0.67738  0.36099  1.0000
  H   H415      1.0  0.10526  0.73391  0.40356  1.0000
  C   C530      1.0  0.12798  0.64648  0.61119  1.0000
  C   C531      1.0  0.39356  0.79476  0.36484  1.0000
  C   C532      1.0  0.00653  0.77933  0.60176  1.0000
  C   C533      1.0  0.34698  0.58211  0.35063  1.0000
  H   H416      1.0  0.30818  0.98012  0.32599  1.0000
  H   H417      1.0  0.17051  0.88480  0.54047  1.0000
  C   C534      1.0  0.09096  0.63184  0.32251  1.0000
  C   C535      1.0  0.35809  0.79405  0.34167  1.0000
  H   H418      1.0  0.23888  0.74014  0.63742  1.0000
  C   C536      1.0  0.12214  0.52435  0.35983  1.0000
  H   H419      1.0  0.11986  0.89687  0.31496  1.0000
  C   C537      1.0  0.34535  0.73791  0.31273  1.0000
  C   C538      1.0  0.26412  0.59573  0.34010  1.0000
  H   H420      1.0  0.25642  0.78026  0.32550  1.0000
  C   C539      1.0  0.14955  0.98077  0.45162  1.0000
  H   H421      1.0  0.39751  0.79129  0.33291  1.0000
  H   H422      1.0  0.15785  0.69775  0.31754  1.0000
  C   C540      1.0  0.29803  0.65697  0.39488  1.0000
  C   C541      1.0  0.16913  0.96654  0.48000  1.0000
  H   H423      1.0  0.19783  0.96123  0.32667  1.0000
  H   H424      1.0  0.23497  0.90596  0.49092  1.0000
  C   C542      1.0  0.19627  0.69900  0.64302  1.0000
  C   C543      1.0  0.07211  0.72548  0.32973  1.0000
  S   S83       1.0  0.39336  0.72948  0.31827  1.0000
  C   C544      1.0  0.98705  0.71632  0.31582  1.0000
  C   C545      1.0  0.23757  0.84658  0.32996  1.0000
  C   C546      1.0  0.38434  0.63332  0.33967  1.0000
  H   H425      1.0  0.23819  0.97710  0.61145  1.0000
  C   C547      1.0  0.20024  0.94471  0.50584  1.0000
  C   C548      1.0  0.12971  0.95038  0.44881  1.0000
  H   H426      1.0  0.02649  0.75597  0.61608  1.0000
  H   H427      1.0  0.24382  0.61771  0.35641  1.0000
  C   C549      1.0  0.06299  0.74369  0.33948  1.0000
  H   H428      1.0  0.20383  0.87244  0.52041  1.0000
  H   H429      1.0  0.99118  0.83672  0.53657  1.0000
  H   H430      1.0  0.00216  0.85797  0.46154  1.0000
  H   H431      1.0  0.26455  0.65111  0.32457  1.0000
  H   H432      1.0  0.26077  0.80174  0.41827  1.0000
  H   H433      1.0  0.26220  0.49219  0.37929  1.0000
  C   C550      1.0  0.22735  0.49148  0.36203  1.0000
  H   H434      1.0  0.22247  0.96128  0.40586  1.0000
  H   H435      1.0  0.03304  0.64207  0.40993  1.0000
  H   H436      1.0  0.11401  0.90447  0.45940  1.0000
  H   H437      1.0  0.20612  0.87070  0.62559  1.0000
  C   C551      1.0  0.22831  0.96009  0.34733  1.0000
  C   C552      1.0  0.21917  0.86020  0.36618  1.0000
  H   H438      1.0  0.14810  0.91822  0.48688  1.0000
  C   C553      1.0  0.20315  0.89277  0.51643  1.0000
  H   H439      1.0  0.12519  0.71699  0.33021  1.0000
  H   H440      1.0  0.13332  0.62868  0.60982  1.0000
  S   S84       1.0  0.29575  0.52289  0.31799  1.0000
  H   H441      1.0  0.38322  0.79746  0.39599  1.0000
  H   H442      1.0  0.00869  0.77240  0.55936  1.0000
  C   C554      1.0  0.37623  0.79665  0.38080  1.0000
  C   C555      1.0  0.27369  0.65475  0.63733  1.0000
  H   H443      1.0  0.27881  0.85617  0.41189  1.0000
  H   H444      1.0  0.28689  0.64720  0.40954  1.0000
  C   C556      1.0  0.23926  0.83333  0.34815  1.0000
  C   C557      1.0  0.29637  0.96699  0.31360  1.0000
  H   H445      1.0  0.13636  0.64331  0.31278  1.0000
  C   C558      1.0  0.00570  0.75474  0.61211  1.0000
  H   H446      1.0  0.97968  0.79611  0.58845  1.0000
  C   C559      1.0  0.16323  0.95054  0.60865  1.0000
  H   H447      1.0  0.15344  0.54563  0.38262  1.0000
  H   H448      1.0  0.35222  0.84188  0.32669  1.0000
  C   C560      1.0  0.20438  0.54969  0.33683  1.0000
  H   H449      1.0  0.98550  0.73342  0.34463  1.0000
  C   C561      1.0  0.34049  0.79596  0.35757  1.0000
  C   C562      1.0  0.34968  0.79702  0.37722  1.0000
  P   P18       1.0  0.30429  0.79252  0.35320  1.0000
  C   C563      1.0  0.38446  0.79345  0.34529  1.0000
  C   C564      1.0  0.27587  0.75293  0.35503  1.0000
  C   C565      1.0  0.24526  0.74391  0.35846  1.0000
  C   C566      1.0  0.22313  0.71346  0.35840  1.0000
  C   C567      1.0  0.23144  0.69177  0.35506  1.0000
  C   C568      1.0  0.26191  0.70046  0.35231  1.0000
  C   C569      1.0  0.28401  0.73086  0.35226  1.0000
  H   H450      1.0  0.39481  0.59870  0.34751  1.0000
  C   C570      1.0  0.14857  0.93603  0.47739  1.0000
  H   H451      1.0  0.16675  0.92961  0.53093  1.0000
  H   H452      1.0  0.33792  0.72883  0.32792  1.0000
  C   C571      1.0  0.33132  0.83245  0.31923  1.0000
  C   C572      1.0  0.29608  0.81261  0.37179  1.0000
  C   C573      1.0  0.27993  0.79774  0.39001  1.0000
  C   C574      1.0  0.27365  0.81342  0.40436  1.0000
  C   C575      1.0  0.28384  0.84411  0.40079  1.0000
  C   C576      1.0  0.30028  0.85916  0.38283  1.0000
  C   C577      1.0  0.30644  0.84352  0.36838  1.0000
  H   H453      1.0  0.14370  0.58392  0.31488  1.0000
  H   H454      1.0  0.33622  0.79776  0.38984  1.0000
  H   H455      1.0  0.23846  0.76052  0.36067  1.0000
  H   H456      1.0  0.19948  0.70673  0.36048  1.0000
  H   H457      1.0  0.21428  0.66830  0.35430  1.0000
  H   H458      1.0  0.26844  0.68372  0.34982  1.0000
  H   H459      1.0  0.30734  0.73701  0.34970  1.0000
  H   H460      1.0  0.06267  0.78548  0.33829  1.0000
  H   H461      1.0  0.02871  0.64188  0.37322  1.0000
  H   H462      1.0  0.30094  0.59898  0.62386  1.0000
  C   C578      1.0  0.21927  0.93756  0.49456  1.0000
  C   C579      1.0  0.30740  0.65096  0.35986  1.0000
  H   H463      1.0  0.27217  0.77406  0.39319  1.0000
  H   H464      1.0  0.30806  0.88293  0.38003  1.0000
  H   H465      1.0  0.31920  0.85560  0.35457  1.0000
  C   C580      1.0  0.02287  0.79238  0.45814  1.0000
  H   H466      1.0  0.40768  0.65034  0.33606  1.0000
  H   H467      1.0  0.19179  0.57711  0.35363  1.0000
  C   C581      1.0  0.99321  0.77408  0.45307  1.0000
  H   H468      1.0  0.34131  0.55935  0.35529  1.0000
  P   P19       1.0  0.06067  0.68835  0.34062  1.0000
  H   H469      1.0  0.10831  0.68909  0.58211  1.0000
  H   H470      1.0  0.11964  0.64751  0.57982  1.0000
  C   C582      1.0  0.12905  0.92806  0.46179  1.0000
  C   C583      1.0  0.00539  0.78992  0.49293  1.0000
  H   H471      1.0  0.07001  0.73887  0.55448  1.0000
  C   C584      1.0  0.98660  0.75323  0.39105  1.0000
  C   C585      1.0  0.02888  0.80034  0.47794  1.0000
  H   H472      1.0  0.16063  0.50216  0.38969  1.0000
  C   C586      1.0  0.04771  0.66218  0.40048  1.0000
  H   H473      1.0  0.03286  0.74646  0.57465  1.0000
  H   H474      1.0  0.05194  0.81461  0.48160  1.0000
  C   C587      1.0  0.05106  0.77366  0.51832  1.0000
  C   C588      1.0  0.06515  0.75930  0.52725  1.0000
  C   C589      1.0  0.11498  0.69317  0.61371  1.0000
  C   C590      1.0  0.22063  0.91164  0.49983  1.0000
  C   C591      1.0  0.23996  0.59775  0.34906  1.0000
  C   C592      1.0  0.04160  0.83868  0.52028  1.0000
  C   C593      1.0  0.05745  0.84838  0.53772  1.0000
  C   C594      1.0  0.07933  0.87866  0.53901  1.0000
  C   C595      1.0  0.08555  0.89954  0.52294  1.0000
  C   C596      1.0  0.06952  0.89022  0.50567  1.0000
  C   C597      1.0  0.04751  0.85995  0.50436  1.0000
  H   H475      1.0  0.26448  0.92918  0.33282  1.0000
  C   C598      1.0  0.06997  0.77170  0.33062  1.0000
  H   H476      1.0  0.00621  0.79901  0.39954  1.0000
  C   C599      1.0  0.08773  0.73543  0.31077  1.0000
  C   C600      1.0  0.07225  0.64278  0.32932  1.0000
  C   C601      1.0  0.17906  0.76849  0.32087  1.0000
  H   H477      1.0  0.04134  0.80027  0.44678  1.0000
  H   H478      1.0  0.05743  0.78187  0.50281  1.0000
  H   H479      1.0  0.08203  0.75682  0.51861  1.0000
  C   C602      1.0  0.11388  0.68052  0.59537  1.0000
  C   C603      1.0  0.02374  0.76823  0.55001  1.0000
  H   H480      1.0  0.18853  0.48648  0.34791  1.0000
  H   H481      1.0  0.05314  0.83258  0.55035  1.0000
  H   H482      1.0  0.09161  0.88581  0.55247  1.0000
  H   H483      1.0  0.10286  0.92289  0.52387  1.0000
  H   H484      1.0  0.07454  0.90636  0.49315  1.0000
  H   H485      1.0  0.03569  0.85324  0.49075  1.0000
  C   C604      1.0  0.21771  0.87373  0.34806  1.0000
  C   C605      1.0  0.34159  0.56086  0.63824  1.0000
  H   H486      1.0  0.26622  0.67045  0.64095  1.0000
  C   C606      1.0  0.03764  0.75361  0.55883  1.0000
  C   C607      1.0  0.26318  0.63747  0.62068  1.0000
  S   S85       1.0  0.11782  0.83519  0.62399  1.0000
  C   C608      1.0  0.28286  0.65742  0.31343  1.0000
  C   C609      1.0  0.12908  0.65905  0.62970  1.0000
  C   C610      1.0  0.97781  0.72858  0.61752  1.0000
  C   C611      1.0  0.12178  0.65166  0.31815  1.0000
  H   H487      1.0  0.98859  0.76748  0.43782  1.0000
  H   H488      1.0  0.21267  0.93712  0.35289  1.0000
  H   H489      1.0  0.16204  0.56584  0.63360  1.0000
  H   H490      1.0  0.11969  0.54378  0.35633  1.0000
  H   H491      1.0  0.05028  0.73620  0.35390  1.0000
  C   C612      1.0  0.03015  0.77825  0.52961  1.0000
  H   H492      1.0  0.10092  0.73452  0.36698  1.0000
  C   C613      1.0  0.29363  0.61467  0.62781  1.0000
  C   C614      1.0  0.13395  0.68235  0.32086  1.0000
  C   C615      1.0  0.05846  0.74928  0.54749  1.0000
  C   C616      1.0  0.06377  0.68850  0.36743  1.0000
  P   P20       1.0  0.01387  0.79928  0.51871  1.0000
  C   C617      1.0  0.16434  0.86553  0.31964  1.0000
  C   C618      1.0  0.33106  0.61789  0.34098  1.0000
  H   H493      1.0  0.16389  0.84631  0.32721  1.0000
  H   H494      1.0  0.40668  0.73580  0.64158  1.0000
  H   H495      1.0  0.35437  0.60627  0.62852  1.0000
  C   C619      1.0  0.21995  0.97373  0.33245  1.0000
  H   H496      1.0  0.06070  0.74219  0.63727  1.0000
  H   H497      1.0  0.35234  0.55751  0.62509  1.0000
  S   S86       1.0  0.45427  0.70498  0.31067  1.0000
  C   C620      1.0  0.32790  0.68192  0.35734  1.0000
  H   H498      1.0  0.24741  0.63970  0.61144  1.0000
  C   C621      1.0  0.21026  0.57475  0.34749  1.0000
  H   H499      1.0  0.24661  0.81690  0.34819  1.0000
  C   C622      1.0  0.29318  0.63837  0.37892  1.0000
  H   H500      1.0  0.26185  0.96635  0.36801  1.0000
  C   C623      1.0  0.08833  0.71397  0.39690  1.0000
  H   H501      1.0  0.46571  0.76821  0.32268  1.0000
  H   H502      1.0  0.21101  0.86455  0.38017  1.0000
  C   C624      1.0  0.22815  0.54819  0.32714  1.0000
  H   H503      1.0  0.41386  0.79394  0.36757  1.0000
  C   C625      1.0  0.22664  0.86683  0.32975  1.0000
  C   C626      1.0  0.30446  0.80878  0.32862  1.0000
  H   H504      1.0  0.11041  0.71160  0.61462  1.0000
  C   C627      1.0  0.04519  0.66225  0.37969  1.0000
  S   S87       1.0  0.14346  0.77053  0.63066  1.0000
  C   C628      1.0  0.27309  0.61738  0.61596  1.0000
  P   P21       1.0  0.30188  0.62763  0.33907  1.0000
  C   C629      1.0  0.11534  0.69328  0.32777  1.0000
  H   H505      1.0  0.27586  0.57021  0.32015  1.0000
  H   H506      1.0  0.20920  0.82428  0.63082  1.0000
  H   H507      1.0  0.30094  0.57127  0.35153  1.0000
  H   H508      1.0  0.26490  0.60392  0.60308  1.0000
  C   C630      1.0  0.37710  0.60424  0.34626  1.0000
  H   H509      1.0  0.04858  0.62703  0.33300  1.0000
  C   C631      1.0  0.02174  0.66551  0.33496  1.0000
  H   H510      1.0  0.11979  0.85316  0.33174  1.0000
  H   H511      1.0  0.32162  0.70245  0.40436  1.0000
  C   C632      1.0  0.22988  0.83997  0.36621  1.0000
  H   H512      1.0  0.35261  0.52676  0.32136  1.0000
  H   H513      1.0  0.18133  0.53218  0.33512  1.0000
  C   C633      1.0  0.31765  0.68808  0.39198  1.0000
  H   H514      1.0  0.35119  0.79238  0.32644  1.0000
  C   C634      1.0  0.21987  0.86930  0.63702  1.0000
  C   C635      1.0  0.13911  0.86907  0.32203  1.0000
  H   H515      1.0  0.18475  0.70706  0.63361  1.0000
  C   C636      1.0  0.22177  0.84322  0.63995  1.0000
  H   H516      1.0  0.15693  0.79314  0.31253  1.0000
  C   C637      1.0  0.35640  0.54655  0.31252  1.0000
  C   C638      1.0  0.14531  0.50077  0.37849  1.0000
  C   C639      1.0  0.34272  0.58846  0.64024  1.0000
  C   C640      1.0  0.12256  0.68254  0.63081  1.0000
  C   C641      1.0  0.98414  0.63427  0.31220  1.0000
  H   H517      1.0  0.08165  0.60799  0.32063  1.0000
  P   P22       1.0  0.19699  0.97722  0.49849  1.0000
  C   C642      1.0  0.16342  0.97804  0.60968  1.0000
  C   C643      1.0  0.21728  0.97733  0.61089  1.0000
  H   H518      1.0  0.09159  0.49741  0.33802  1.0000
  C   C644      1.0  0.01031  0.82375  0.63922  1.0000
  H   H519      1.0  0.05779  0.84158  0.64082  1.0000
  H   H520      1.0  0.17498  0.61870  0.63604  1.0000
  H   H521      1.0  0.24400  0.84021  0.31617  1.0000
  H   H522      1.0  0.98534  0.84885  0.49779  1.0000
  C   C645      1.0  0.97980  0.79036  0.53343  1.0000
  C   C646      1.0  0.13916  0.89379  0.31256  1.0000
  H   H523      1.0  0.24308  0.50669  0.35004  1.0000
  C   C647      1.0  0.15252  0.60092  0.64109  1.0000
  C   C648      1.0  0.14518  0.57093  0.63946  1.0000
  C   C649      1.0  0.27155  0.93799  0.31741  1.0000
  C   C650      1.0  0.10631  0.49823  0.34950  1.0000
  H   H524      1.0  0.40473  0.56709  0.31141  1.0000
  H   H525      1.0  0.97734  0.70982  0.62578  1.0000
  H   H526      1.0  0.21661  0.98379  0.53946  1.0000
  C   C651      1.0  0.32044  0.84671  0.67372  1.0000
  S   S88       1.0  0.41397  0.68956  0.74132  1.0000
  C   C652      1.0  0.09078  0.75611  0.68285  1.0000
  H   H527      1.0  0.07864  0.65320  0.72233  1.0000
  C   C653      1.0  0.32199  0.91321  0.70547  1.0000
  Fe  Fe44      1.0  0.44115  0.73733  0.72853  1.0000
  S   S89       1.0  0.42151  0.76807  0.72894  1.0000
  Fe  Fe45      1.0  0.43724  0.67943  0.71630  1.0000
  S   S90       1.0  0.41775  0.63929  0.69728  1.0000
  S   S91       1.0  0.44660  0.67908  0.79014  1.0000
  H   H528      1.0  0.31146  0.90028  0.71951  1.0000
  Fe  Fe46      1.0  0.25764  0.72175  0.71877  1.0000
  S   S92       1.0  0.26055  0.76078  0.73485  1.0000
  S   S93       1.0  0.29157  0.72027  0.69703  1.0000
  Fe  Fe47      1.0  0.19594  0.67814  0.73825  1.0000
  S   S94       1.0  0.19337  0.71319  0.75601  1.0000
  S   S95       1.0  0.16075  0.62907  0.74087  1.0000
  Fe  Fe48      1.0  0.21216  0.74256  0.72722  1.0000
  S   S96       1.0  0.19397  0.77291  0.71674  1.0000
  Fe  Fe49      1.0  0.24148  0.72794  0.76213  1.0000
  S   S97       1.0  0.26206  0.74201  0.79222  1.0000
  S   S98       1.0  0.21085  0.70604  0.70913  1.0000
  S   S99       1.0  0.24249  0.69074  0.74634  1.0000
  Fe  Fe50      1.0  0.29483  0.60539  0.88478  1.0000
  S   S100      1.0  0.30910  0.64663  0.86468  1.0000
  S   S101      1.0  0.27937  0.56025  0.87111  1.0000
  Fe  Fe51      1.0  0.30748  0.63945  0.92454  1.0000
  S   S102      1.0  0.32209  0.68343  0.90650  1.0000
  Fe  Fe52      1.0  0.28305  0.65741  0.88715  1.0000
  S   S103      1.0  0.25104  0.67269  0.87582  1.0000
  Fe  Fe53      1.0  0.34719  0.66948  0.88474  1.0000
  S   S104      1.0  0.39306  0.70429  0.87007  1.0000
  S   S105      1.0  0.26609  0.61435  0.90662  1.0000
  S   S106      1.0  0.33528  0.62724  0.90356  1.0000
  H   H529      1.0  0.30171  0.66540  0.66227  1.0000
  H   H530      1.0  0.23441  0.57890  0.81211  1.0000
  C   C654      1.0  0.27418  0.95627  0.70048  1.0000
  H   H531      1.0  0.36818  0.66305  0.69272  1.0000
  C   C655      1.0  0.26184  0.55175  0.84793  1.0000
  H   H532      1.0  0.42511  0.63587  0.75584  1.0000
  C   C656      1.0  0.09626  0.50958  0.71414  1.0000
  C   C657      1.0  0.18146  0.77323  0.69238  1.0000
  C   C658      1.0  0.17208  0.79391  0.68701  1.0000
  C   C659      1.0  0.16129  0.79419  0.66792  1.0000
  C   C660      1.0  0.15942  0.77348  0.65416  1.0000
  C   C661      1.0  0.16949  0.75339  0.65941  1.0000
  C   C662      1.0  0.18048  0.75322  0.67836  1.0000
  H   H533      1.0  0.17279  0.80951  0.69774  1.0000
  H   H534      1.0  0.15380  0.80989  0.66397  1.0000
  C   C663      1.0  0.37364  0.68885  0.64792  1.0000
  H   H535      1.0  0.18783  0.73736  0.68218  1.0000
  C   C664      1.0  0.25245  0.68767  0.85104  1.0000
  C   C665      1.0  0.23148  0.69674  0.84674  1.0000
  C   C666      1.0  0.23314  0.71128  0.82809  1.0000
  C   C667      1.0  0.25560  0.71677  0.81324  1.0000
  C   C668      1.0  0.27621  0.70699  0.81726  1.0000
  C   C669      1.0  0.27429  0.69199  0.83593  1.0000
  H   H536      1.0  0.21450  0.69354  0.85823  1.0000
  H   H537      1.0  0.21785  0.71964  0.82555  1.0000
  H   H538      1.0  0.29440  0.71199  0.80627  1.0000
  H   H539      1.0  0.29051  0.68499  0.83892  1.0000
  C   C670      1.0  0.04886  0.81931  0.74918  1.0000
  C   C671      1.0  0.09128  0.64349  0.67342  1.0000
  H   H540      1.0  0.26181  0.59344  0.84326  1.0000
  C   C672      1.0  0.19888  0.57673  0.70925  1.0000
  C   C673      1.0  0.20888  0.60673  0.70298  1.0000
  C   C674      1.0  0.19795  0.62313  0.71319  1.0000
  C   C675      1.0  0.17600  0.60919  0.72908  1.0000
  C   C676      1.0  0.16587  0.57915  0.73525  1.0000
  C   C677      1.0  0.17771  0.56312  0.72560  1.0000
  H   H541      1.0  0.22562  0.61750  0.69055  1.0000
  H   H542      1.0  0.20628  0.64648  0.70864  1.0000
  H   H543      1.0  0.14905  0.56834  0.74755  1.0000
  H   H544      1.0  0.16978  0.53999  0.73049  1.0000
  C   C678      1.0  0.42973  0.68726  0.81088  1.0000
  C   C679      1.0  0.40523  0.66345  0.82221  1.0000
  C   C680      1.0  0.39317  0.66852  0.83997  1.0000
  C   C681      1.0  0.40616  0.69747  0.84698  1.0000
  C   C682      1.0  0.43071  0.72139  0.83570  1.0000
  C   C683      1.0  0.44229  0.71639  0.81763  1.0000
  H   H545      1.0  0.39563  0.64092  0.81728  1.0000
  H   H546      1.0  0.37451  0.64988  0.84863  1.0000
  H   H547      1.0  0.44103  0.74379  0.84110  1.0000
  H   H548      1.0  0.35590  0.52723  0.77382  1.0000
  C   C684      1.0  0.38485  0.75325  0.72066  1.0000
  C   C685      1.0  0.36668  0.76465  0.72773  1.0000
  C   C686      1.0  0.33758  0.75378  0.72111  1.0000
  C   C687      1.0  0.32698  0.73228  0.70671  1.0000
  C   C688      1.0  0.34526  0.72109  0.69939  1.0000
  C   C689      1.0  0.37398  0.73117  0.70662  1.0000
  H   H549      1.0  0.37508  0.78176  0.73850  1.0000
  H   H550      1.0  0.32369  0.76262  0.72678  1.0000
  H   H551      1.0  0.33716  0.70448  0.68824  1.0000
  H   H552      1.0  0.38800  0.72245  0.70097  1.0000
  C   C690      1.0  0.38683  0.60437  0.70620  1.0000
  C   C691      1.0  0.38423  0.57824  0.69845  1.0000
  C   C692      1.0  0.36028  0.54985  0.70519  1.0000
  C   C693      1.0  0.33778  0.54736  0.71895  1.0000
  C   C694      1.0  0.33984  0.57349  0.72642  1.0000
  C   C695      1.0  0.36481  0.60197  0.72042  1.0000
  H   H553      1.0  0.40119  0.57997  0.68748  1.0000
  H   H554      1.0  0.35886  0.52978  0.69940  1.0000
  H   H555      1.0  0.32276  0.57175  0.73722  1.0000
  H   H556      1.0  0.36709  0.62199  0.72680  1.0000
  C   C696      1.0  0.33739  0.69557  0.76301  1.0000
  C   C697      1.0  0.34889  0.67725  0.76934  1.0000
  C   C698      1.0  0.36813  0.68550  0.78498  1.0000
  C   C699      1.0  0.37618  0.71219  0.79426  1.0000
  C   C700      1.0  0.36522  0.73109  0.78788  1.0000
  C   C701      1.0  0.34535  0.72226  0.77233  1.0000
  P   P23       1.0  0.37760  0.76648  0.79941  1.0000
  C   C702      1.0  0.35711  0.75889  0.82360  1.0000
  C   C703      1.0  0.41725  0.78191  0.80301  1.0000
  C   C704      1.0  0.42929  0.79431  0.82115  1.0000
  C   C705      1.0  0.06473  0.84680  0.73789  1.0000
  C   C706      1.0  0.27976  0.78519  0.68174  1.0000
  H   H557      1.0  0.11441  0.51368  0.75249  1.0000
  C   C707      1.0  0.43622  0.78084  0.78772  1.0000
  C   C708      1.0  0.34154  0.77401  0.82891  1.0000
  C   C709      1.0  0.32564  0.76747  0.84763  1.0000
  C   C710      1.0  0.32597  0.74659  0.86145  1.0000
  C   C711      1.0  0.34233  0.73239  0.85658  1.0000
  C   C712      1.0  0.35761  0.73827  0.83774  1.0000
  C   C713      1.0  0.37223  0.79203  0.78296  1.0000
  C   C714      1.0  0.34297  0.78608  0.77963  1.0000
  C   C715      1.0  0.33828  0.80491  0.76649  1.0000
  C   C716      1.0  0.36291  0.83003  0.75651  1.0000
  C   C717      1.0  0.39222  0.83634  0.75979  1.0000
  C   C718      1.0  0.39691  0.81744  0.77295  1.0000
  H   H558      1.0  0.32288  0.68967  0.75061  1.0000
  H   H559      1.0  0.34322  0.65665  0.76222  1.0000
  H   H560      1.0  0.37715  0.67134  0.78969  1.0000
  H   H561      1.0  0.39159  0.71838  0.80610  1.0000
  H   H562      1.0  0.33643  0.73603  0.76685  1.0000
  H   H563      1.0  0.41514  0.79522  0.83324  1.0000
  C   C719      1.0  0.18071  0.67038  0.65323  1.0000
  H   H564      1.0  0.13011  0.66058  0.72386  1.0000
  C   C720      1.0  0.32925  0.59319  0.65740  1.0000
  H   H565      1.0  0.42735  0.77124  0.77362  1.0000
  H   H566      1.0  0.34132  0.79071  0.81876  1.0000
  H   H567      1.0  0.31269  0.77825  0.85133  1.0000
  H   H568      1.0  0.31318  0.74097  0.87581  1.0000
  H   H569      1.0  0.34285  0.71640  0.86730  1.0000
  H   H570      1.0  0.37001  0.72682  0.83446  1.0000
  H   H571      1.0  0.32371  0.76647  0.78707  1.0000
  H   H572      1.0  0.31543  0.79965  0.76400  1.0000
  H   H573      1.0  0.35926  0.84439  0.74612  1.0000
  H   H574      1.0  0.41135  0.85555  0.75187  1.0000
  H   H575      1.0  0.41976  0.82251  0.77494  1.0000
  C   C721      1.0  0.31481  0.62236  0.81138  1.0000
  C   C722      1.0  0.29800  0.61859  0.79473  1.0000
  C   C723      1.0  0.29518  0.59778  0.78082  1.0000
  C   C724      1.0  0.30927  0.58069  0.78360  1.0000
  C   C725      1.0  0.32511  0.58333  0.80080  1.0000
  C   C726      1.0  0.32799  0.60460  0.81458  1.0000
  C   C727      1.0  0.36375  0.57194  0.82682  1.0000
  C   C728      1.0  0.39535  0.58893  0.82665  1.0000
  C   C729      1.0  0.40943  0.59881  0.84460  1.0000
  C   C730      1.0  0.39215  0.59146  0.86279  1.0000
  C   C731      1.0  0.36077  0.57375  0.86312  1.0000
  C   C732      1.0  0.34665  0.56377  0.84524  1.0000
  H   H576      1.0  0.31725  0.63876  0.82202  1.0000
  H   H577      1.0  0.28726  0.63191  0.79276  1.0000
  H   H578      1.0  0.28193  0.59475  0.76800  1.0000
  H   H579      1.0  0.34044  0.60790  0.82782  1.0000
  H   H580      1.0  0.43373  0.61299  0.84429  1.0000
  H   H581      1.0  0.40301  0.59989  0.87661  1.0000
  H   H582      1.0  0.34718  0.56846  0.87713  1.0000
  H   H583      1.0  0.32223  0.55081  0.84568  1.0000
  H   H584      1.0  0.38904  0.62067  0.78509  1.0000
  C   C733      1.0  0.07615  0.64525  0.69075  1.0000
  C   C734      1.0  0.12300  0.90853  0.65988  1.0000
  H   H585      1.0  0.23279  0.91490  0.70873  1.0000
  C   C735      1.0  0.32197  0.63250  0.68565  1.0000
  H   H586      1.0  0.09453  0.79087  0.70145  1.0000
  C   C736      1.0  0.23730  0.51526  0.82257  1.0000
  C   C737      1.0  0.30735  0.63665  0.72576  1.0000
  C   C738      1.0  0.28462  0.61852  0.71346  1.0000
  C   C739      1.0  0.29183  0.61666  0.69338  1.0000
  C   C740      1.0  0.09936  0.85601  0.67231  1.0000
  H   H587      1.0  0.33671  0.87034  0.67071  1.0000
  Fe  Fe54      1.0  0.45467  0.70070  0.75842  1.0000
  C   C741      1.0  0.08142  0.74242  0.66475  1.0000
  H   H588      1.0  0.30187  0.63770  0.74133  1.0000
  H   H589      1.0  0.26143  0.60574  0.71950  1.0000
  H   H590      1.0  0.27400  0.60241  0.68400  1.0000
  C   C742      1.0  0.31479  0.56987  0.67255  1.0000
  C   C743      1.0  0.35037  0.94779  0.66970  1.0000
  C   C744      1.0  0.25335  0.89187  0.66365  1.0000
  C   C745      1.0  0.23932  0.84128  0.65484  1.0000
  H   H591      1.0  0.03453  0.77153  0.71181  1.0000
  H   H592      1.0  0.04481  0.81894  0.76527  1.0000
  P   P24       1.0  0.27857  0.86401  0.68598  1.0000
  C   C746      1.0  0.25744  0.85243  0.71003  1.0000
  H   H593      1.0  0.06984  0.49874  0.82128  1.0000
  C   C747      1.0  0.27032  0.80617  0.68452  1.0000
  H   H594      1.0  0.30487  0.57285  0.68624  1.0000
  C   C748      1.0  0.19674  0.66078  0.66511  1.0000
  H   H595      1.0  0.08217  0.86888  0.70868  1.0000
  C   C749      1.0  0.26678  0.84058  0.72568  1.0000
  C   C750      1.0  0.25069  0.83170  0.74439  1.0000
  C   C751      1.0  0.22520  0.83459  0.74762  1.0000
  C   C752      1.0  0.21577  0.84638  0.73214  1.0000
  C   C753      1.0  0.23176  0.85520  0.71337  1.0000
  H   H596      1.0  0.07581  0.88092  0.66842  1.0000
  C   C754      1.0  0.30955  0.79492  0.67514  1.0000
  C   C755      1.0  0.23563  0.89361  0.64885  1.0000
  H   H597      1.0  0.07294  0.86776  0.74523  1.0000
  P   P25       1.0  0.14045  0.64637  0.65157  1.0000
  C   C756      1.0  0.22764  0.67962  0.66694  1.0000
  H   H598      1.0  0.13199  0.52375  0.69056  1.0000
  C   C757      1.0  0.36084  0.95965  0.68815  1.0000
  H   H599      1.0  0.46160  0.73482  0.80933  1.0000
  C   C758      1.0  0.12346  0.55932  0.69679  1.0000
  H   H600      1.0  0.24731  0.79823  0.69007  1.0000
  H   H601      1.0  0.26415  0.76139  0.68515  1.0000
  C   C759      1.0  0.34672  0.94233  0.70601  1.0000
  H   H602      1.0  0.28621  0.83772  0.72337  1.0000
  H   H603      1.0  0.25744  0.82170  0.75622  1.0000
  H   H604      1.0  0.21223  0.82680  0.76193  1.0000
  H   H605      1.0  0.19542  0.84762  0.73450  1.0000
  H   H606      1.0  0.22349  0.86328  0.70141  1.0000
  C   C760      1.0  0.25566  0.86582  0.66662  1.0000
  C   C761      1.0  0.33721  0.65323  0.71797  1.0000
  C   C762      1.0  0.32571  0.91865  0.66910  1.0000
  C   C763      1.0  0.24595  0.64765  0.78257  1.0000
  C   C764      1.0  0.24451  0.62949  0.76705  1.0000
  C   C765      1.0  0.22136  0.59949  0.76760  1.0000
  C   C766      1.0  0.19851  0.58818  0.78299  1.0000
  C   C767      1.0  0.19873  0.60698  0.79783  1.0000
  C   C768      1.0  0.22333  0.63631  0.79806  1.0000
  P   P26       1.0  0.16850  0.59349  0.81702  1.0000
  C   C769      1.0  0.13378  0.56528  0.80749  1.0000
  C   C770      1.0  0.18031  0.58002  0.83817  1.0000
  C   C771      1.0  0.17543  0.55051  0.83934  1.0000
  C   C772      1.0  0.18537  0.54048  0.85554  1.0000
  C   C773      1.0  0.20088  0.56005  0.87036  1.0000
  C   C774      1.0  0.20659  0.58968  0.86892  1.0000
  C   C775      1.0  0.19678  0.59979  0.85277  1.0000
  C   C776      1.0  0.11280  0.53985  0.81959  1.0000
  C   C777      1.0  0.08578  0.51849  0.81194  1.0000
  C   C778      1.0  0.07922  0.52279  0.79238  1.0000
  C   C779      1.0  0.09956  0.54862  0.78053  1.0000
  C   C780      1.0  0.12666  0.56982  0.78807  1.0000
  C   C781      1.0  0.16161  0.62373  0.82286  1.0000
  C   C782      1.0  0.16565  0.64543  0.80774  1.0000
  C   C783      1.0  0.16050  0.66896  0.81223  1.0000
  C   C784      1.0  0.15089  0.67078  0.83174  1.0000
  C   C785      1.0  0.14597  0.64878  0.84671  1.0000
  C   C786      1.0  0.15098  0.62513  0.84225  1.0000
  H   H607      1.0  0.26437  0.67070  0.78245  1.0000
  H   H608      1.0  0.26130  0.63875  0.75464  1.0000
  H   H609      1.0  0.22087  0.58502  0.75602  1.0000
  H   H610      1.0  0.18076  0.56487  0.78321  1.0000
  H   H611      1.0  0.22465  0.65062  0.80998  1.0000
  H   H612      1.0  0.16515  0.53565  0.82737  1.0000
  H   H613      1.0  0.18254  0.51808  0.85604  1.0000
  H   H614      1.0  0.20977  0.55272  0.88244  1.0000
  H   H615      1.0  0.21941  0.60524  0.88000  1.0000
  H   H616      1.0  0.20270  0.62324  0.85155  1.0000
  H   H617      1.0  0.11708  0.53661  0.83496  1.0000
  H   H618      1.0  0.39068  0.63411  0.65972  1.0000
  C   C787      1.0  0.15096  0.91005  0.65798  1.0000
  H   H619      1.0  0.09448  0.55246  0.76550  1.0000
  H   H620      1.0  0.14207  0.58991  0.77878  1.0000
  H   H621      1.0  0.17310  0.64446  0.79251  1.0000
  H   H622      1.0  0.16454  0.68609  0.80063  1.0000
  H   H623      1.0  0.14751  0.68937  0.83527  1.0000
  H   H624      1.0  0.13864  0.65024  0.86185  1.0000
  H   H625      1.0  0.14687  0.60820  0.85400  1.0000
  H   H626      1.0  0.40920  0.59566  0.81273  1.0000
  C   C788      1.0  0.39170  0.55988  0.75360  1.0000
  C   C789      1.0  0.12085  0.64861  0.67402  1.0000
  C   C790      1.0  0.25552  0.57182  0.83742  1.0000
  H   H627      1.0  0.28157  0.52127  0.79258  1.0000
  Fe  Fe55      1.0  0.21804  0.50912  0.76248  1.0000
  H   H628      1.0  0.22918  0.49291  0.81747  1.0000
  P   P27       1.0  0.34437  0.56210  0.80385  1.0000
  H   H629      1.0  0.35255  0.51349  0.81990  1.0000
  H   H630      1.0  0.42692  0.59747  0.73531  1.0000
  S   S107      1.0  0.21286  0.55648  0.69647  1.0000
  H   H631      1.0  0.17067  0.93054  0.65174  1.0000
  C   C791      1.0  0.29400  0.65192  0.64932  1.0000
  C   C792      1.0  0.25295  0.52357  0.84025  1.0000
  C   C793      1.0  0.03309  0.81617  0.66850  1.0000
  H   H632      1.0  0.30774  0.56536  0.77238  1.0000
  S   S108      1.0  0.25436  0.54414  0.74090  1.0000
  C   C794      1.0  0.23996  0.56352  0.81968  1.0000
  P   P28       1.0  0.33116  0.62912  0.65995  1.0000
  H   H633      1.0  0.23981  0.67243  0.67651  1.0000
  H   H634      1.0  0.26666  0.72292  0.65873  1.0000
  C   C795      1.0  0.33007  0.50344  0.81453  1.0000
  S   S109      1.0  0.30796  0.51109  0.72670  1.0000
  S   S110      1.0  0.30574  0.63037  0.95965  1.0000
  C   C796      1.0  0.29059  0.83713  0.68062  1.0000
  C   C797      1.0  0.07874  0.51887  0.72517  1.0000
  H   H635      1.0  0.24842  0.63372  0.97440  1.0000
  C   C798      1.0  0.32984  0.82563  0.67103  1.0000
  C   C799      1.0  0.06219  0.77577  0.65645  1.0000
  C   C800      1.0  0.31960  0.52169  0.80603  1.0000
  C   C801      1.0  0.00408  0.79752  0.67775  1.0000
  C   C802      1.0  0.37049  0.57280  0.78217  1.0000
  C   C803      1.0  0.38973  0.60343  0.77656  1.0000
  H   H636      1.0  0.08616  0.72489  0.66062  1.0000
  C   C804      1.0  0.11816  0.52987  0.69952  1.0000
  H   H637      1.0  0.35483  0.66785  0.72729  1.0000
  C   C805      1.0  0.09021  0.65163  0.70889  1.0000
  C   C806      1.0  0.37128  0.55100  0.77039  1.0000
  C   C807      1.0  0.04327  0.79272  0.71894  1.0000
  H   H638      1.0  0.10264  0.74901  0.69276  1.0000
  C   C808      1.0  0.41026  0.61217  0.75993  1.0000
  C   C809      1.0  0.11923  0.65590  0.70975  1.0000
  C   C810      1.0  0.22459  0.94755  0.69350  1.0000
  C   C811      1.0  0.29050  0.50801  0.79904  1.0000
  Fe  Fe56      1.0  0.26249  0.50672  0.73264  1.0000
  C   C812      1.0  0.07159  0.78973  0.67458  1.0000
  S   S111      1.0  0.20655  0.52320  0.79200  1.0000
  H   H639      1.0  0.25745  0.50774  0.84833  1.0000
  Fe  Fe57      1.0  0.21960  0.52611  0.71808  1.0000
  C   C813      1.0  0.41139  0.59047  0.74849  1.0000
  H   H640      1.0  0.39177  0.54309  0.74426  1.0000
  C   C814      1.0  0.03809  0.79228  0.73970  1.0000
  C   C815      1.0  0.09731  0.88170  0.66715  1.0000
  H   H641      1.0  0.28839  0.94832  0.70663  1.0000
  C   C816      1.0  0.34466  0.65078  0.69811  1.0000
  H   H642      1.0  0.07089  0.55557  0.73111  1.0000
  H   H643      1.0  0.31793  0.90972  0.65467  1.0000
  H   H644      1.0  0.00100  0.78662  0.69247  1.0000
  C   C817      1.0  0.05943  0.82027  0.70748  1.0000
  C   C818      1.0  0.13440  0.65416  0.69246  1.0000
  S   S112      1.0  0.46082  0.72643  0.70156  1.0000
  P   P29       1.0  0.06596  0.82071  0.68063  1.0000
  H   H645      1.0  0.18529  0.63894  0.67329  1.0000
  H   H646      1.0  0.07992  0.63831  0.65954  1.0000
  H   H647      1.0  0.14162  0.57535  0.68637  1.0000
  C   C819      1.0  0.08383  0.54822  0.72217  1.0000
  H   H648      1.0  0.44207  0.67721  0.65434  1.0000
  H   H649      1.0  0.11138  0.59168  0.70653  1.0000
  C   C820      1.0  0.23749  0.97680  0.68463  1.0000
  H   H650      1.0  0.05826  0.50630  0.78651  1.0000
  C   C821      1.0  0.10644  0.56854  0.70816  1.0000
  H   H651      1.0  0.15660  0.65708  0.69373  1.0000
  H   H652      1.0  0.05356  0.64179  0.69012  1.0000
  H   H653      1.0  0.20032  0.93283  0.69418  1.0000
  C   C822      1.0  0.08619  0.77989  0.68768  1.0000
  H   H654      1.0  0.35501  0.95146  0.72031  1.0000
  C   C823      1.0  0.15336  0.88489  0.66361  1.0000
  C   C824      1.0  0.31361  0.54231  0.67045  1.0000
  C   C825      1.0  0.23085  0.53525  0.81210  1.0000
  H   H655      1.0  0.12119  0.92802  0.65528  1.0000
  S   S113      1.0  0.23131  0.49209  0.70749  1.0000
  C   C826      1.0  0.12775  0.85806  0.67092  1.0000
  C   C827      1.0  0.06721  0.75229  0.65155  1.0000
  C   C828      1.0  0.06997  0.84733  0.71711  1.0000
  H   H656      1.0  0.07202  0.53592  0.65780  1.0000
  H   H657      1.0  0.46878  0.81386  0.83824  1.0000
  H   H658      1.0  0.06167  0.50364  0.73649  1.0000
  H   H659      1.0  0.17491  0.88589  0.66165  1.0000
  C   C829      1.0  0.10186  0.58403  0.65501  1.0000
  C   C830      1.0  0.24288  0.93740  0.70160  1.0000
  H   H660      1.0  0.31700  0.77863  0.67349  1.0000
  H   H661      1.0  0.02568  0.77095  0.74844  1.0000
  H   H662      1.0  0.13527  0.50996  0.78433  1.0000
  H   H663      1.0  0.13010  0.83874  0.67481  1.0000
  H   H664      1.0  0.26537  0.91092  0.67267  1.0000
  H   H665      1.0  0.16880  0.73788  0.64870  1.0000
  H   H666      1.0  0.23983  0.82057  0.65709  1.0000
  C   C831      1.0  0.45980  0.80506  0.82402  1.0000
  C   C832      1.0  0.03593  0.82868  0.64892  1.0000
  H   H667      1.0  0.15364  0.49790  0.70516  1.0000
  C   C833      1.0  0.42301  0.68038  0.65189  1.0000
  H   H668      1.0  0.30289  0.52473  0.68244  1.0000
  C   C834      1.0  0.98161  0.80515  0.64849  1.0000
  C   C835      1.0  0.31118  0.90120  0.68699  1.0000
  C   C836      1.0  0.24280  0.70819  0.65697  1.0000
  H   H669      1.0  0.08479  0.58861  0.66108  1.0000
  C   C837      1.0  0.11499  0.49341  0.75638  1.0000
  C   C838      1.0  0.39369  0.65585  0.65485  1.0000
  H   H670      1.0  0.35495  0.69291  0.64710  1.0000
  H   H671      1.0  0.32642  0.51653  0.65200  1.0000
  H   H672      1.0  0.05154  0.78332  0.64583  1.0000
  C   C839      1.0  0.30435  0.63201  0.64456  1.0000
  S   S114      1.0  0.18268  0.49365  0.73991  1.0000
  C   C840      1.0  0.12676  0.49138  0.77456  1.0000
  C   C841      1.0  0.36873  0.65980  0.65277  1.0000
  C   C842      1.0  0.97849  0.79201  0.66775  1.0000
  C   C843      1.0  0.11618  0.54752  0.64546  1.0000
  C   C844      1.0  0.09447  0.55408  0.65309  1.0000
  H   H673      1.0  0.36143  0.96115  0.65584  1.0000
  H   H674      1.0  0.37883  0.48904  0.66088  1.0000
  H   H675      1.0  0.23404  0.91378  0.64640  1.0000
  C   C845      1.0  0.46671  0.79174  0.79061  1.0000
  C   C846      1.0  0.32703  0.53779  0.65336  1.0000
  S   S115      1.0  0.47624  0.68689  0.73410  1.0000
  H   H676      1.0  0.25045  0.49256  0.66275  1.0000
  C   C847      1.0  0.13106  0.60769  0.64923  1.0000
  H   H677      1.0  0.35299  0.83307  0.66604  1.0000
  C   C848      1.0  0.22714  0.71786  0.64500  1.0000
  C   C849      1.0  0.42770  0.70913  0.64692  1.0000
  C   C850      1.0  0.40302  0.71336  0.64490  1.0000
  H   H678      1.0  0.45048  0.72820  0.64519  1.0000
  H   H679      1.0  0.11060  0.52429  0.64429  1.0000
  H   H680      1.0  0.38004  0.98220  0.68860  1.0000
  H   H681      1.0  0.12370  0.69302  0.64480  1.0000
  H   H682      1.0  0.22279  0.98408  0.67854  1.0000
  C   C851      1.0  0.77605  0.46372  0.21467  1.0000
  C   C852      1.0  0.48678  0.16186  0.21747  1.0000
  H   H683      1.0  0.51426  0.32058  0.19661  1.0000
  H   H684      1.0  0.71171  0.38157  0.16104  1.0000
  H   H685      1.0  0.50295  0.28993  0.16722  1.0000
  H   H686      1.0  0.80814  0.42011  0.16167  1.0000
  S   S116      1.0  0.51991  0.24598  0.26876  1.0000
  C   C853      1.0  0.69595  0.34360  0.29474  1.0000
  Fe  Fe58      1.0  0.68967  0.42446  0.28938  1.0000
  H   H687      1.0  0.63407  0.45980  0.16506  1.0000
  Fe  Fe59      1.0  0.75505  0.45272  0.27538  1.0000
  S   S117      1.0  0.79658  0.44844  0.27780  1.0000
  C   C854      1.0  0.55674  0.33174  0.29611  1.0000
  C   C855      1.0  0.68093  0.34813  0.22821  1.0000
  S   S118      1.0  0.71281  0.41891  0.26195  1.0000
  Fe  Fe60      1.0  0.70213  0.22560  0.25493  1.0000
  S   S119      1.0  0.70468  0.26670  0.26742  1.0000
  S   S120      1.0  0.68011  0.20620  0.22618  1.0000
  C   C856      1.0  0.53257  0.32463  0.18600  1.0000
  P   P30       1.0  0.75639  0.38510  0.18970  1.0000
  C   C857      1.0  0.78147  0.35119  0.17537  1.0000
  Fe  Fe61      1.0  0.69062  0.23913  0.29683  1.0000
  H   H688      1.0  0.63611  0.23043  0.21947  1.0000
  Fe  Fe62      1.0  0.75144  0.27894  0.27496  1.0000
  S   S121      1.0  0.79396  0.32429  0.26976  1.0000
  S   S122      1.0  0.68486  0.19687  0.28397  1.0000
  S   S123      1.0  0.75016  0.23993  0.25997  1.0000
  Fe  Fe63      1.0  0.59985  0.27755  0.13076  1.0000
  S   S124      1.0  0.61025  0.31682  0.10922  1.0000
  S   S125      1.0  0.55142  0.24360  0.14124  1.0000
  Fe  Fe64      1.0  0.66526  0.29510  0.13241  1.0000
  S   S126      1.0  0.68049  0.33564  0.11087  1.0000
  S   S127      1.0  0.70139  0.28970  0.14767  1.0000
  Fe  Fe65      1.0  0.64777  0.34335  0.12947  1.0000
  S   S128      1.0  0.65838  0.38972  0.13885  1.0000
  Fe  Fe66      1.0  0.64195  0.30566  0.09191  1.0000
  S   S129      1.0  0.65006  0.31242  0.05669  1.0000
  S   S130      1.0  0.63490  0.30491  0.15183  1.0000
  S   S131      1.0  0.62911  0.26430  0.11252  1.0000
  C   C858      1.0  0.56052  0.12398  0.23553  1.0000
  C   C859      1.0  0.62700  0.28843  0.98990  1.0000
  C   C860      1.0  0.65081  0.31657  0.99456  1.0000
  C   C861      1.0  0.65761  0.32331  0.01486  1.0000
  C   C862      1.0  0.64095  0.30217  0.03106  1.0000
  C   C863      1.0  0.61738  0.27390  0.02635  1.0000
  C   C864      1.0  0.61053  0.26720  0.00608  1.0000
  H   H689      1.0  0.48263  0.38162  0.21365  1.0000
  H   H690      1.0  0.67588  0.34526  0.01803  1.0000
  H   H691      1.0  0.60433  0.25711  0.03836  1.0000
  C   C865      1.0  0.59383  0.33132  0.98635  1.0000
  C   C866      1.0  0.68500  0.23014  0.20500  1.0000
  C   C867      1.0  0.66890  0.21762  0.18804  1.0000
  C   C868      1.0  0.67252  0.23601  0.17081  1.0000
  C   C869      1.0  0.69249  0.26706  0.17032  1.0000
  C   C870      1.0  0.70858  0.27948  0.18731  1.0000
  C   C871      1.0  0.70449  0.26126  0.20474  1.0000
  H   H692      1.0  0.65379  0.19355  0.18815  1.0000
  H   H693      1.0  0.66081  0.22603  0.15759  1.0000
  H   H694      1.0  0.72466  0.30319  0.18692  1.0000
  H   H695      1.0  0.71706  0.27119  0.21770  1.0000
  C   C872      1.0  0.69029  0.44205  0.19604  1.0000
  H   H696      1.0  0.56764  0.16356  0.28992  1.0000
  C   C873      1.0  0.68253  0.43958  0.16025  1.0000
  C   C874      1.0  0.67150  0.40853  0.16133  1.0000
  C   C875      1.0  0.67026  0.39409  0.17997  1.0000
  C   C876      1.0  0.67953  0.41085  0.19737  1.0000
  H   H697      1.0  0.68362  0.45103  0.14606  1.0000
  H   H698      1.0  0.66152  0.37003  0.18107  1.0000
  H   H699      1.0  0.67790  0.39969  0.21176  1.0000
  C   C877      1.0  0.79463  0.41360  0.27407  1.0000
  C   C878      1.0  0.82079  0.41188  0.27606  1.0000
  C   C879      1.0  0.82015  0.38444  0.27436  1.0000
  C   C880      1.0  0.79324  0.35822  0.27097  1.0000
  C   C881      1.0  0.76705  0.35984  0.26854  1.0000
  C   C882      1.0  0.76792  0.38769  0.26973  1.0000
  H   H700      1.0  0.84162  0.43182  0.27912  1.0000
  H   H701      1.0  0.84053  0.38343  0.27604  1.0000
  H   H702      1.0  0.74627  0.33978  0.26560  1.0000
  H   H703      1.0  0.74788  0.38900  0.26752  1.0000
  C   C883      1.0  0.48770  0.14414  0.25133  1.0000
  C   C884      1.0  0.58731  0.31176  0.24571  1.0000
  C   C885      1.0  0.56886  0.28536  0.06424  1.0000
  C   C886      1.0  0.53091  0.23927  0.16437  1.0000
  C   C887      1.0  0.54420  0.25094  0.18243  1.0000
  C   C888      1.0  0.52578  0.24526  0.20035  1.0000
  C   C889      1.0  0.71013  0.36676  0.21965  1.0000
  H   H704      1.0  0.56847  0.26411  0.18261  1.0000
  H   H705      1.0  0.53594  0.25376  0.21430  1.0000
  C   C890      1.0  0.59548  0.21817  0.23761  1.0000
  C   C891      1.0  0.77259  0.36106  0.19233  1.0000
  H   H706      1.0  0.55533  0.30780  0.22453  1.0000
  S   S132      1.0  0.68445  0.46189  0.27542  1.0000
  C   C892      1.0  0.76600  0.42143  0.12401  1.0000
  C   C893      1.0  0.73740  0.40507  0.13389  1.0000
  S   S133      1.0  0.75339  0.18530  0.30018  1.0000
  H   H707      1.0  0.55711  0.29230  0.30788  1.0000
  C   C894      1.0  0.69689  0.33806  0.19000  1.0000
  H   H708      1.0  0.54069  0.11707  0.22711  1.0000
  C   C895      1.0  0.60813  0.19929  0.30114  1.0000
  H   H709      1.0  0.76838  0.43007  0.10861  1.0000
  H   H710      1.0  0.67559  0.41212  0.09540  1.0000
  S   S134      1.0  0.52120  0.17818  0.29753  1.0000
  C   C896      1.0  0.60885  0.35917  0.99489  1.0000
  C   C897      1.0  0.62298  0.45973  0.21558  1.0000
  S   S135      1.0  0.51768  0.31301  0.29373  1.0000
  C   C898      1.0  0.62702  0.36226  0.25097  1.0000
  C   C899      1.0  0.60524  0.37826  0.29359  1.0000
  Fe  Fe67      1.0  0.71117  0.45878  0.24889  1.0000
  H   H711      1.0  0.62091  0.32248  0.26725  1.0000
  H   H712      1.0  0.61867  0.40212  0.28945  1.0000
  H   H713      1.0  0.71768  0.40122  0.12618  1.0000
  H   H714      1.0  0.74450  0.43418  0.19447  1.0000
  C   C900      1.0  0.60224  0.36159  0.01503  1.0000
  C   C901      1.0  0.60342  0.42888  0.21983  1.0000
  P   P31       1.0  0.57374  0.18288  0.22613  1.0000
  H   H715      1.0  0.81367  0.43973  0.12648  1.0000
  S   S136      1.0  0.70119  0.46517  0.21683  1.0000
  C   C902      1.0  0.80016  0.46937  0.22634  1.0000
  C   C903      1.0  0.57045  0.31623  0.30388  1.0000
  C   C904      1.0  0.61864  0.36297  0.30216  1.0000
  C   C905      1.0  0.48363  0.35745  0.24038  1.0000
  H   H716      1.0  0.48895  0.21356  0.15057  1.0000
  C   C906      1.0  0.73408  0.39373  0.15375  1.0000
  C   C907      1.0  0.79145  0.42679  0.13407  1.0000
  H   H717      1.0  0.67506  0.35184  0.24314  1.0000
  H   H718      1.0  0.64662  0.37743  0.25874  1.0000
  C   C908      1.0  0.56568  0.10198  0.24438  1.0000
  H   H719      1.0  0.66383  0.33335  0.98253  1.0000
  C   C909      1.0  0.57560  0.32324  0.23163  1.0000
  C   C910      1.0  0.58934  0.35446  0.22731  1.0000
  C   C911      1.0  0.57193  0.30596  0.99786  1.0000
  C   C912      1.0  0.60257  0.37744  0.08284  1.0000
  H   H720      1.0  0.59515  0.42059  0.23523  1.0000
  C   C913      1.0  0.66781  0.31921  0.19875  1.0000
  H   H721      1.0  0.63681  0.31049  0.22402  1.0000
  H   H722      1.0  0.65175  0.30003  0.19105  1.0000
  C   C914      1.0  0.63176  0.27034  0.25757  1.0000
  C   C915      1.0  0.64423  0.26239  0.24161  1.0000
  H   H723      1.0  0.59125  0.25906  0.27543  1.0000
  H   H724      1.0  0.64590  0.29006  0.26558  1.0000
  H   H725      1.0  0.66800  0.27604  0.23701  1.0000
  H   H726      1.0  0.54991  0.07835  0.24279  1.0000
  C   C916      1.0  0.75797  0.24253  0.18106  1.0000
  C   C917      1.0  0.76475  0.23409  0.16282  1.0000
  C   C918      1.0  0.77878  0.21672  0.16257  1.0000
  C   C919      1.0  0.78594  0.20769  0.18057  1.0000
  C   C920      1.0  0.77918  0.21608  0.19902  1.0000
  C   C921      1.0  0.76506  0.23358  0.19910  1.0000
  P   P32       1.0  0.78767  0.20392  0.22248  1.0000
  C   C922      1.0  0.75332  0.17532  0.23612  1.0000
  C   C923      1.0  0.81147  0.18793  0.21753  1.0000
  C   C924      1.0  0.79862  0.15779  0.21255  1.0000
  C   C925      1.0  0.81693  0.14527  0.20866  1.0000
  C   C926      1.0  0.84818  0.16279  0.20963  1.0000
  C   C927      1.0  0.86115  0.19289  0.21440  1.0000
  C   C928      1.0  0.84291  0.20549  0.21829  1.0000
  C   C929      1.0  0.75467  0.15670  0.25151  1.0000
  C   C930      1.0  0.72849  0.13560  0.26278  1.0000
  C   C931      1.0  0.70068  0.13268  0.25871  1.0000
  C   C932      1.0  0.69896  0.15048  0.24311  1.0000
  C   C933      1.0  0.72509  0.17161  0.23181  1.0000
  C   C934      1.0  0.80758  0.23563  0.23785  1.0000
  C   C935      1.0  0.82100  0.26537  0.22946  1.0000
  C   C936      1.0  0.83425  0.28970  0.24172  1.0000
  C   C937      1.0  0.83491  0.28460  0.26234  1.0000
  C   C938      1.0  0.82288  0.25520  0.27066  1.0000
  C   C939      1.0  0.80948  0.23083  0.25846  1.0000
  H   H727      1.0  0.74680  0.25570  0.18118  1.0000
  H   H728      1.0  0.75881  0.24082  0.14893  1.0000
  H   H729      1.0  0.78387  0.21006  0.14839  1.0000
  H   H730      1.0  0.79661  0.19410  0.17995  1.0000
  H   H731      1.0  0.75906  0.23993  0.21313  1.0000
  H   H732      1.0  0.77444  0.14397  0.21166  1.0000
  H   H733      1.0  0.80687  0.12195  0.20493  1.0000
  H   H734      1.0  0.86235  0.15304  0.20667  1.0000
  H   H735      1.0  0.88539  0.20648  0.21513  1.0000
  H   H736      1.0  0.85339  0.22887  0.22191  1.0000
  H   H737      1.0  0.77603  0.15895  0.25522  1.0000
  H   H738      1.0  0.72999  0.12239  0.27523  1.0000
  H   H739      1.0  0.68057  0.11699  0.26785  1.0000
  H   H740      1.0  0.67747  0.14853  0.24000  1.0000
  H   H741      1.0  0.72290  0.18517  0.22002  1.0000
  H   H742      1.0  0.82079  0.26992  0.21356  1.0000
  H   H743      1.0  0.84332  0.31254  0.23540  1.0000
  H   H744      1.0  0.84419  0.30342  0.27190  1.0000
  H   H745      1.0  0.82283  0.25106  0.28670  1.0000
  H   H746      1.0  0.79961  0.20835  0.26545  1.0000
  H   H747      1.0  0.55930  0.21298  0.25829  1.0000
  H   H748      1.0  0.57644  0.28774  0.24905  1.0000
  H   H749      1.0  0.80863  0.40980  0.21543  1.0000
  C   C940      1.0  0.58577  0.34904  0.17583  1.0000
  C   C941      1.0  0.57906  0.33206  0.15894  1.0000
  H   H750      1.0  0.52727  0.31212  0.08723  1.0000
  H   H751      1.0  0.68055  0.34341  0.28401  1.0000
  H   H752      1.0  0.65678  0.24755  0.98606  1.0000
  H   H753      1.0  0.56068  0.28436  0.99121  1.0000
  H   H754      1.0  0.63613  0.35834  0.04561  1.0000
  C   C942      1.0  0.49938  0.34590  0.25049  1.0000
  H   H755      1.0  0.57893  0.39985  0.05291  1.0000
  C   C943      1.0  0.49414  0.22873  0.19998  1.0000
  C   C944      1.0  0.49409  0.34224  0.04871  1.0000
  Fe  Fe68      1.0  0.73365  0.21475  0.29028  1.0000
  H   H756      1.0  0.56361  0.37467  0.28470  1.0000
  H   H757      1.0  0.59714  0.33489  0.14858  1.0000
  C   C945      1.0  0.56256  0.34632  0.18910  1.0000
  H   H758      1.0  0.52931  0.23100  0.10150  1.0000
  C   C946      1.0  0.57579  0.09698  0.98078  1.0000
  C   C947      1.0  0.54539  0.35261  0.05200  1.0000
  Fe  Fe69      1.0  0.49919  0.20591  0.29099  1.0000
  H   H759      1.0  0.53805  0.34037  0.25006  1.0000
  C   C948      1.0  0.58103  0.33597  0.02691  1.0000
  C   C949      1.0  0.50394  0.37298  0.04926  1.0000
  C   C950      1.0  0.59562  0.40873  0.20446  1.0000
  C   C951      1.0  0.57752  0.18475  0.29705  1.0000
  C   C952      1.0  0.65894  0.38645  0.06933  1.0000
  H   H760      1.0  0.58237  0.14541  0.19677  1.0000
  H   H761      1.0  0.54417  0.29759  0.14271  1.0000
  C   C953      1.0  0.55524  0.38352  0.05210  1.0000
  H   H762      1.0  0.68047  0.38878  0.06453  1.0000
  C   C954      1.0  0.56527  0.30828  0.01801  1.0000
  C   C955      1.0  0.49478  0.37260  0.22149  1.0000
  H   H763      1.0  0.54811  0.28837  0.02661  1.0000
  C   C956      1.0  0.62798  0.39497  0.09346  1.0000
  H   H764      1.0  0.62163  0.18915  0.29735  1.0000
  C   C957      1.0  0.65615  0.39943  0.08673  1.0000
  C   C958      1.0  0.54919  0.31124  0.15559  1.0000
  H   H765      1.0  0.54222  0.41749  0.05102  1.0000
  C   C959      1.0  0.51477  0.33208  0.04993  1.0000
  H   H766      1.0  0.68243  0.29693  0.29256  1.0000
  C   C960      1.0  0.81193  0.44997  0.22635  1.0000
  C   C961      1.0  0.71812  0.36235  0.20022  1.0000
  C   C962      1.0  0.58287  0.22669  0.25330  1.0000
  C   C963      1.0  0.62525  0.45120  0.18034  1.0000
  C   C964      1.0  0.60101  0.25278  0.26317  1.0000
  C   C965      1.0  0.65958  0.32478  0.21757  1.0000
  H   H767      1.0  0.70288  0.33343  0.17535  1.0000
  H   H768      1.0  0.77924  0.35812  0.16034  1.0000
  C   C966      1.0  0.61257  0.33128  0.25573  1.0000
  C   C967      1.0  0.69194  0.45613  0.17735  1.0000
  C   C968      1.0  0.62610  0.23658  0.23158  1.0000
  H   H769      1.0  0.59521  0.09352  0.26215  1.0000
  C   C969      1.0  0.52627  0.34940  0.24178  1.0000
  C   C970      1.0  0.63364  0.36916  0.05858  1.0000
  C   C971      1.0  0.59115  0.11050  0.25529  1.0000
  C   C972      1.0  0.52598  0.30716  0.16929  1.0000
  C   C973      1.0  0.61580  0.37385  0.23659  1.0000
  H   H770      1.0  0.62786  0.39789  0.23307  1.0000
  C   C974      1.0  0.53746  0.36435  0.22271  1.0000
  H   H771      1.0  0.79799  0.32274  0.16448  1.0000
  C   C975      1.0  0.78822  0.41555  0.15395  1.0000
  C   C976      1.0  0.75946  0.39846  0.16384  1.0000
  C   C977      1.0  0.58085  0.15471  0.23750  1.0000
  H   H772      1.0  0.58821  0.23230  0.19673  1.0000
  H   H773      1.0  0.58072  0.37310  0.08875  1.0000
  H   H774      1.0  0.61396  0.38336  0.02138  1.0000
  C   C978      1.0  0.60626  0.16303  0.24862  1.0000
  C   C979      1.0  0.61139  0.14099  0.25740  1.0000
  C   C980      1.0  0.79179  0.33071  0.17764  1.0000
  S   S137      1.0  0.65666  0.38207  0.30766  1.0000
  H   H775      1.0  0.59983  0.40573  0.17220  1.0000
  H   H776      1.0  0.63118  0.14771  0.26580  1.0000
  H   H777      1.0  0.59950  0.23883  0.16011  1.0000
  C   C981      1.0  0.58955  0.21479  0.18897  1.0000
  H   H778      1.0  0.62578  0.40417  0.10738  1.0000
  H   H779      1.0  0.72635  0.38440  0.22836  1.0000
  C   C982      1.0  0.79304  0.31970  0.19680  1.0000
  H   H780      1.0  0.81713  0.31002  0.30749  1.0000
  Fe  Fe70      1.0  0.49732  0.26351  0.28934  1.0000
  C   C983      1.0  0.58427  0.18830  0.19954  1.0000
  C   C984      1.0  0.59586  0.21855  0.16820  1.0000
  H   H781      1.0  0.80061  0.30353  0.19856  1.0000
  H   H782      1.0  0.53071  0.15259  0.26051  1.0000
  H   H783      1.0  0.59373  0.15252  0.16017  1.0000
  C   C985      1.0  0.78371  0.32894  0.21370  1.0000
  C   C986      1.0  0.77338  0.34940  0.21151  1.0000
  C   C987      1.0  0.60530  0.36472  0.06516  1.0000
  H   H784      1.0  0.62229  0.18646  0.25056  1.0000
  C   C988      1.0  0.55696  0.30432  0.06753  1.0000
  P   P33       1.0  0.57171  0.36876  0.21076  1.0000
  H   H785      1.0  0.71380  0.39028  0.30043  1.0000
  C   C989      1.0  0.49948  0.22268  0.16433  1.0000
  C   C990      1.0  0.53385  0.16928  0.22975  1.0000
  C   C991      1.0  0.59708  0.19603  0.15779  1.0000
  H   H786      1.0  0.60908  0.36453  0.17843  1.0000
  H   H787      1.0  0.52998  0.38772  0.19800  1.0000
  C   C992      1.0  0.79934  0.42462  0.21497  1.0000
  H   H788      1.0  0.60195  0.19914  0.14167  1.0000
  C   C993      1.0  0.60605  0.42026  0.18456  1.0000
  C   C994      1.0  0.52540  0.27047  0.09573  1.0000
  C   C995      1.0  0.53677  0.25127  0.09191  1.0000
  C   C996      1.0  0.51860  0.15495  0.24827  1.0000
  H   H789      1.0  0.78395  0.31981  0.22852  1.0000
  C   C997      1.0  0.77474  0.41854  0.20352  1.0000
  H   H790      1.0  0.76553  0.35574  0.22476  1.0000
  H   H791      1.0  0.58657  0.29150  0.05266  1.0000
  C   C998      1.0  0.58595  0.16588  0.18904  1.0000
  H   H792      1.0  0.52885  0.18442  0.20007  1.0000
  C   C999      1.0  0.76347  0.43848  0.20323  1.0000
  C   C1000     1.0  0.53556  0.29703  0.08366  1.0000
  C   C1001     1.0  0.55868  0.25885  0.07627  1.0000
  C   C1002     1.0  0.59237  0.16979  0.16822  1.0000
  S   S138      1.0  0.73786  0.25473  0.30553  1.0000
  H   H793      1.0  0.56846  0.24466  0.07382  1.0000
  H   H794      1.0  0.59212  0.24533  0.00293  1.0000
  S   S139      1.0  0.73231  0.45576  0.30381  1.0000
  P   P34       1.0  0.57204  0.33950  0.05275  1.0000
  C   C1003     1.0  0.51775  0.17291  0.21439  1.0000
  C   C1004     1.0  0.57416  0.36272  0.29087  1.0000
  C   C1005     1.0  0.52161  0.37606  0.21268  1.0000
  C   C1006     1.0  0.71436  0.36995  0.30415  1.0000
  H   H795      1.0  0.62587  0.37877  0.98591  1.0000
  H   H796      1.0  0.48794  0.38085  0.04821  1.0000
  H   H797      1.0  0.83025  0.45414  0.23573  1.0000
  H   H798      1.0  0.50693  0.30826  0.04912  1.0000
  C   C1007     1.0  0.53452  0.39361  0.05088  1.0000
  C   C1008     1.0  0.63411  0.47086  0.19587  1.0000
  H   H799      1.0  0.49081  0.33413  0.26514  1.0000
  C   C1009     1.0  0.55970  0.19750  0.30219  1.0000
  H   H800      1.0  0.50931  0.26502  0.10840  1.0000
  C   C1010     1.0  0.69722  0.31758  0.29946  1.0000
  H   H801      1.0  0.76665  0.47855  0.21475  1.0000
  H   H802      1.0  0.56928  0.07846  0.99184  1.0000
  C   C1011     1.0  0.60128  0.33196  0.30719  1.0000
  C   C1012     1.0  0.48135  0.21787  0.18182  1.0000
  H   H803      1.0  0.70018  0.48012  0.17611  1.0000
  H   H804      1.0  0.62320  0.11752  0.98548  1.0000
  H   H805      1.0  0.63016  0.47494  0.22766  1.0000
  C   C1013     1.0  0.60616  0.11898  0.97720  1.0000
  Fe  Fe71      1.0  0.85211  0.14497  0.43566  1.0000
  S   S140      1.0  0.86465  0.11149  0.42510  1.0000
  S   S141      1.0  0.86408  0.16628  0.46552  1.0000
  Fe  Fe72      1.0  0.82529  0.14872  0.39570  1.0000
  S   S142      1.0  0.83549  0.11492  0.38190  1.0000
  S   S143      1.0  0.80405  0.17631  0.38465  1.0000
  Fe  Fe73      1.0  0.81911  0.08850  0.41204  1.0000
  S   S144      1.0  0.78644  0.03942  0.42257  1.0000
  Fe  Fe74      1.0  0.88030  0.14021  0.39617  1.0000
  S   S145      1.0  0.92622  0.15766  0.37993  1.0000
  S   S146      1.0  0.80578  0.12055  0.42474  1.0000
  S   S147      1.0  0.87108  0.17546  0.40775  1.0000
  Fe  Fe75      1.0  0.80475  0.09738  0.57474  1.0000
  S   S148      1.0  0.82262  0.07037  0.58983  1.0000
  S   S149      1.0  0.78854  0.08561  0.54345  1.0000
  Fe  Fe76      1.0  0.85359  0.11338  0.60429  1.0000
  S   S150      1.0  0.90283  0.12597  0.60149  1.0000
  Fe  Fe77      1.0  0.78963  0.06198  0.61560  1.0000
  C   C1014     1.0  0.78431  0.98598  0.62034  1.0000
  S   S151      1.0  0.83777  0.14107  0.58727  1.0000
  S   S152      1.0  0.76956  0.08612  0.59959  1.0000
  C   C1015     1.0  0.84228  0.14401  0.48700  1.0000
  C   C1016     1.0  0.81949  0.11413  0.48561  1.0000
  C   C1017     1.0  0.80290  0.09660  0.50306  1.0000
  C   C1018     1.0  0.80947  0.10862  0.52199  1.0000
  C   C1019     1.0  0.83209  0.13856  0.52337  1.0000
  C   C1020     1.0  0.84820  0.15630  0.50586  1.0000
  H   H806      1.0  0.81457  0.10462  0.47110  1.0000
  H   H807      1.0  0.78511  0.07357  0.50190  1.0000
  H   H808      1.0  0.83719  0.14801  0.53789  1.0000
  H   H809      1.0  0.86571  0.17941  0.50700  1.0000
  C   C1021     1.0  0.93454  0.21816  0.49332  1.0000
  C   C1022     1.0  0.77049  0.00577  0.40961  1.0000
  H   H810      1.0  0.83232  0.42087  0.38435  1.0000
  C   C1023     1.0  0.82985  0.00055  0.51753  1.0000
  H   H811      1.0  0.79565  0.02565  0.38136  1.0000
  C   C1024     1.0  0.93275  0.15504  0.61347  1.0000
  C   C1025     1.0  0.73953  0.02545  0.46593  1.0000
  H   H812      1.0  0.71711  0.29737  0.31737  1.0000
  C   C1026     1.0  0.92268  0.15886  0.53021  1.0000
  C   C1027     1.0  0.95717  0.16834  0.39502  1.0000
  C   C1028     1.0  0.95291  0.15589  0.41465  1.0000
  C   C1029     1.0  0.90794  0.24605  0.49312  1.0000
  H   H813      1.0  0.93052  0.13954  0.42072  1.0000
  C   C1030     1.0  0.88129  0.11497  0.51664  1.0000
  C   C1031     1.0  0.76784  0.18358  0.32368  1.0000
  C   C1032     1.0  0.78066  0.16509  0.32631  1.0000
  C   C1033     1.0  0.79215  0.16279  0.34476  1.0000
  C   C1034     1.0  0.79080  0.17890  0.36085  1.0000
  C   C1035     1.0  0.77804  0.19745  0.35820  1.0000
  C   C1036     1.0  0.76664  0.19982  0.33974  1.0000
  H   H814      1.0  0.70196  0.40056  0.62340  1.0000
  H   H815      1.0  0.80187  0.14843  0.34657  1.0000
  H   H816      1.0  0.77675  0.20987  0.37059  1.0000
  H   H817      1.0  0.75663  0.21392  0.33799  1.0000
  H   H818      1.0  0.86629  0.10514  0.50469  1.0000
  C   C1037     1.0  0.89169  0.24170  0.59843  1.0000
  C   C1038     1.0  0.77898  0.00504  0.38956  1.0000
  C   C1039     1.0  0.94222  0.23111  0.36704  1.0000
  H   H819      1.0  0.73930  0.05300  0.41728  1.0000
  C   C1040     1.0  0.74290  0.09201  0.37428  1.0000
  C   C1041     1.0  0.72308  0.42089  0.35207  1.0000
  C   C1042     1.0  0.91889  0.14129  0.54788  1.0000
  C   C1043     1.0  0.91272  0.21557  0.36095  1.0000
  H   H820      1.0  0.73017  0.12605  0.37173  1.0000
  C   C1044     1.0  0.93761  0.20512  0.56778  1.0000
  C   C1045     1.0  0.96217  0.16723  0.60480  1.0000
  C   C1046     1.0  0.64403  0.31836  0.34908  1.0000
  C   C1047     1.0  0.61312  0.30119  0.35434  1.0000
  C   C1048     1.0  0.59814  0.31449  0.36352  1.0000
  C   C1049     1.0  0.61415  0.34480  0.36790  1.0000
  C   C1050     1.0  0.64539  0.36210  0.36318  1.0000
  C   C1051     1.0  0.66012  0.34872  0.35342  1.0000
  P   P35       1.0  0.66575  0.40104  0.36965  1.0000
  H   H821      1.0  0.94390  0.20668  0.48503  1.0000
  C   C1052     1.0  0.65149  0.40352  0.39425  1.0000
  S   S153      1.0  0.65799  0.24295  0.31843  1.0000
  C   C1053     1.0  0.63210  0.38211  0.42825  1.0000
  C   C1054     1.0  0.64285  0.38014  0.40912  1.0000
  C   C1055     1.0  0.70574  0.41471  0.37019  1.0000
  H   H822      1.0  0.80943  0.27080  0.33373  1.0000
  H   H823      1.0  0.85798  0.45743  0.35497  1.0000
  H   H824      1.0  0.65546  0.30828  0.34130  1.0000
  H   H825      1.0  0.60056  0.27774  0.35090  1.0000
  H   H826      1.0  0.57399  0.30139  0.36694  1.0000
  H   H827      1.0  0.60209  0.35480  0.37485  1.0000
  H   H828      1.0  0.68384  0.36152  0.34888  1.0000
  C   C1056     1.0  0.95253  0.25803  0.37678  1.0000
  H   H829      1.0  0.62520  0.36389  0.43962  1.0000
  H   H830      1.0  0.64437  0.36037  0.40590  1.0000
  H   H831      1.0  0.80482  0.00754  0.62054  1.0000
  H   H832      1.0  0.79314  0.45277  0.36972  1.0000
  C   C1057     1.0  0.72413  0.37445  0.62395  1.0000
  H   H833      1.0  0.63762  0.45080  0.42153  1.0000
  C   C1058     1.0  0.89563  0.11120  0.55016  1.0000
  C   C1059     1.0  0.82375  0.41516  0.36961  1.0000
  C   C1060     1.0  0.63016  0.40752  0.43272  1.0000
  H   H834      1.0  0.90470  0.19424  0.35409  1.0000
  C   C1061     1.0  0.62956  0.43321  0.32851  1.0000
  H   H835      1.0  0.73654  0.09533  0.48326  1.0000
  H   H836      1.0  0.76018  0.02495  0.46770  1.0000
  H   H837      1.0  0.62644  0.02656  0.64003  1.0000
  H   H838      1.0  0.90673  0.15764  0.50039  1.0000
  C   C1062     1.0  0.64969  0.42909  0.39891  1.0000
  C   C1063     1.0  0.90424  0.14510  0.51437  1.0000
  H   H839      1.0  0.96595  0.15931  0.59079  1.0000
  Fe  Fe78      1.0  0.80365  0.12747  0.61371  1.0000
  C   C1064     1.0  0.72026  0.42177  0.38829  1.0000
  H   H840      1.0  0.77356  0.02002  0.53834  1.0000
  H   H841      1.0  0.84484  0.20235  0.63924  1.0000
  H   H842      1.0  0.92055  0.23114  0.46659  1.0000
  H   H843      1.0  0.91432  0.18890  0.56540  1.0000
  H   H844      1.0  0.58599  0.29214  0.60432  1.0000
  H   H845      1.0  0.69326  0.04781  0.59061  1.0000
  C   C1065     1.0  0.82772  0.42801  0.33395  1.0000
  H   H846      1.0  0.79274  0.34053  0.31208  1.0000
  S   S154      1.0  0.82188  0.10282  0.63170  1.0000
  H   H847      1.0  0.78765  0.37114  0.37993  1.0000
  H   H848      1.0  0.87255  0.06391  0.48694  1.0000
  H   H849      1.0  0.93967  0.28931  0.38831  1.0000
  H   H850      1.0  0.75088  0.35303  0.62721  1.0000
  C   C1066     1.0  0.67843  0.47467  0.33527  1.0000
  C   C1067     1.0  0.83829  0.43571  0.35306  1.0000
  H   H851      1.0  0.85783  0.07523  0.53672  1.0000
  H   H852      1.0  0.71505  0.10184  0.58007  1.0000
  H   H853      1.0  0.92028  0.23221  0.54083  1.0000
  C   C1068     1.0  0.69884  0.33897  0.39136  1.0000
  C   C1069     1.0  0.67657  0.30851  0.39284  1.0000
  C   C1070     1.0  0.67868  0.28855  0.38008  1.0000
  C   C1071     1.0  0.70317  0.29892  0.36598  1.0000
  C   C1072     1.0  0.72614  0.32930  0.36479  1.0000
  C   C1073     1.0  0.72330  0.34943  0.37718  1.0000
  P   P36       1.0  0.75498  0.34306  0.34452  1.0000
  C   C1074     1.0  0.73500  0.34424  0.32327  1.0000
  C   C1075     1.0  0.78709  0.37961  0.34802  1.0000
  C   C1076     1.0  0.80256  0.39990  0.33140  1.0000
  C   C1077     1.0  0.92103  0.23213  0.52466  1.0000
  H   H854      1.0  0.89707  0.25617  0.48492  1.0000
  H   H855      1.0  0.67904  0.03051  0.62630  1.0000
  C   C1078     1.0  0.79833  0.38710  0.36709  1.0000
  H   H856      1.0  0.70763  0.41775  0.40251  1.0000
  H   H857      1.0  0.82206  0.05715  0.48163  1.0000
  C   C1079     1.0  0.79856  0.01724  0.50162  1.0000
  H   H858      1.0  0.93638  0.27999  0.59937  1.0000
  C   C1080     1.0  0.77090  0.31903  0.34108  1.0000
  C   C1081     1.0  0.76727  0.29741  0.35612  1.0000
  H   H859      1.0  0.77660  0.01443  0.49906  1.0000
  H   H860      1.0  0.80131  0.19085  0.44243  1.0000
  H   H861      1.0  0.69670  0.35462  0.40079  1.0000
  H   H862      1.0  0.65726  0.30048  0.40349  1.0000
  H   H863      1.0  0.66092  0.26513  0.38064  1.0000
  H   H864      1.0  0.70365  0.28334  0.35558  1.0000
  H   H865      1.0  0.73937  0.37331  0.37550  1.0000
  C   C1082     1.0  0.89316  0.22667  0.36462  1.0000
  C   C1083     1.0  0.70761  0.09412  0.59565  1.0000
  C   C1084     1.0  0.66049  0.42513  0.35181  1.0000
  C   C1085     1.0  0.92817  0.16529  0.63167  1.0000
  C   C1086     1.0  0.74540  0.07149  0.38722  1.0000
  H   H866      1.0  0.72269  0.13870  0.60550  1.0000
  H   H867      1.0  0.74630  0.39049  0.32612  1.0000
  H   H868      1.0  0.75393  0.29390  0.36993  1.0000
  H   H869      1.0  0.83249  0.98475  0.52717  1.0000
  H   H870      1.0  0.71536  0.12198  0.40779  1.0000
  C   C1087     1.0  0.96120  0.23024  0.41762  1.0000
  C   C1088     1.0  0.68505  0.00004  0.46731  1.0000
  H   H871      1.0  0.51872  0.19862  0.61287  1.0000
  H   H872      1.0  0.93775  0.09824  0.53095  1.0000
  C   C1089     1.0  0.71179  0.11486  0.60995  1.0000
  C   C1090     1.0  0.68714  0.05393  0.62189  1.0000
  C   C1091     1.0  0.70316  0.10516  0.63018  1.0000
  H   H873      1.0  0.69194  0.10906  0.47228  1.0000
  C   C1092     1.0  0.57498  0.27169  0.61395  1.0000
  C   C1093     1.0  0.80110  0.99632  0.51433  1.0000
  S   S155      1.0  0.78788  0.15955  0.62399  1.0000
  H   H874      1.0  0.64297  0.10696  0.47631  1.0000
  C   C1094     1.0  0.79919  0.28464  0.33597  1.0000
  H   H875      1.0  0.91361  0.04427  0.54247  1.0000
  C   C1095     1.0  0.90788  0.24615  0.51405  1.0000
  H   H876      1.0  0.66300  0.05851  0.41928  1.0000
  C   C1096     1.0  0.76878  0.44174  0.36993  1.0000
  C   C1097     1.0  0.78111  0.28005  0.35343  1.0000
  C   C1098     1.0  0.90319  0.25345  0.37429  1.0000
  H   H877      1.0  0.89715  0.25663  0.52209  1.0000
  H   H878      1.0  0.76081  0.14827  0.42674  1.0000
  H   H879      1.0  0.61640  0.39064  0.34368  1.0000
  C   C1099     1.0  0.58286  0.27130  0.63384  1.0000
  C   C1100     1.0  0.53657  0.21888  0.61868  1.0000
  H   H880      1.0  0.89233  0.24207  0.58218  1.0000
  H   H881      1.0  0.84645  0.20365  0.60230  1.0000
  H   H882      1.0  0.61416  0.05686  0.42350  1.0000
  C   C1101     1.0  0.71159  0.99967  0.47073  1.0000
  C   C1102     1.0  0.74535  0.42478  0.63607  1.0000
  H   H883      1.0  0.81011  0.18627  0.47837  1.0000
  H   H884      1.0  0.88771  0.26160  0.37745  1.0000
  H   H885      1.0  0.83906  0.44364  0.32098  1.0000
  H   H886      1.0  0.66242  0.40749  0.58882  1.0000
  H   H887      1.0  0.77770  0.26286  0.36481  1.0000
  H   H888      1.0  0.97417  0.15437  0.44154  1.0000
  H   H889      1.0  0.90563  0.15547  0.63862  1.0000
  H   H890      1.0  0.89207  0.09812  0.56413  1.0000
  S   S156      1.0  0.48054  0.22552  0.31323  1.0000
  H   H891      1.0  0.79234  0.39642  0.64267  1.0000
  H   H892      1.0  0.96545  0.11239  0.63600  1.0000
  H   H893      1.0  0.87766  0.02803  0.51011  1.0000
  C   C1103     1.0  0.77090  0.42337  0.64140  1.0000
  C   C1104     1.0  0.73335  0.37016  0.31854  1.0000
  H   H894      1.0  0.60396  0.08102  0.45196  1.0000
  C   C1105     1.0  0.93441  0.21789  0.51437  1.0000
  H   H895      1.0  0.66566  0.02575  0.45604  1.0000
  C   C1106     1.0  0.62629  0.33742  0.62688  1.0000
  C   C1107     1.0  0.62325  0.36261  0.63052  1.0000
  C   C1108     1.0  0.63631  0.38778  0.61684  1.0000
  C   C1109     1.0  0.65237  0.38796  0.59940  1.0000
  C   C1110     1.0  0.65573  0.36309  0.59575  1.0000
  C   C1111     1.0  0.64297  0.33802  0.60952  1.0000
  C   C1112     1.0  0.75670  0.00126  0.54796  1.0000
  C   C1113     1.0  0.74375  0.00743  0.56464  1.0000
  C   C1114     1.0  0.94865  0.09086  0.54150  1.0000
  P   P37       1.0  0.95061  0.19866  0.52781  1.0000
  C   C1115     1.0  0.55204  0.24548  0.60639  1.0000
  H   H896      1.0  0.93859  0.02731  0.56657  1.0000
  C   C1116     1.0  0.63376  0.41410  0.34177  1.0000
  S   S157      1.0  0.75366  0.01615  0.62928  1.0000
  H   H897      1.0  0.94194  0.21953  0.40855  1.0000
  C   C1117     1.0  0.92137  0.23215  0.48277  1.0000
  C   C1118     1.0  0.93512  0.06042  0.54790  1.0000
  H   H898      1.0  0.95660  0.22145  0.36477  1.0000
  H   H899      1.0  0.79532  0.39401  0.31637  1.0000
  C   C1119     1.0  0.75450  0.43467  0.35191  1.0000
  C   C1120     1.0  0.63902  0.43102  0.41807  1.0000
  C   C1121     1.0  0.87655  0.09817  0.53467  1.0000
  H   H900      1.0  0.71340  0.98900  0.59104  1.0000
  H   H901      1.0  0.64899  0.47813  0.31460  1.0000
  C   C1122     1.0  0.93272  0.26906  0.38043  1.0000
  H   H902      1.0  0.66838  0.36330  0.58230  1.0000
  H   H903      1.0  0.64602  0.31900  0.60667  1.0000
  C   C1123     1.0  0.82425  0.04147  0.49179  1.0000
  C   C1124     1.0  0.85272  0.04526  0.49478  1.0000
  C   C1125     1.0  0.69530  0.06365  0.60162  1.0000
  H   H904      1.0  0.76292  0.07117  0.45379  1.0000
  H   H905      1.0  0.47708  0.22580  0.63295  1.0000
  H   H906      1.0  0.63408  0.40723  0.61986  1.0000
  H   H907      1.0  0.75069  0.03056  0.56762  1.0000
  C   C1126     1.0  0.71692  0.31792  0.31353  1.0000
  C   C1127     1.0  0.96036  0.21360  0.55236  1.0000
  C   C1128     1.0  0.65195  0.46343  0.32516  1.0000
  C   C1129     1.0  0.86594  0.21995  0.60973  1.0000
  H   H908      1.0  0.62179  0.40905  0.44754  1.0000
  C   C1130     1.0  0.77283  0.39758  0.63818  1.0000
  C   C1131     1.0  0.74100  0.05167  0.45786  1.0000
  C   C1132     1.0  0.71450  0.05225  0.45422  1.0000
  C   C1133     1.0  0.68644  0.02616  0.45895  1.0000
  P   P38       1.0  0.71705  0.08558  0.44208  1.0000
  C   C1134     1.0  0.68128  0.08424  0.44532  1.0000
  C   C1135     1.0  0.74535  0.11831  0.45376  1.0000
  C   C1136     1.0  0.75004  0.11620  0.47422  1.0000
  C   C1137     1.0  0.77289  0.14087  0.48314  1.0000
  C   C1138     1.0  0.79142  0.16773  0.47169  1.0000
  C   C1139     1.0  0.78651  0.17028  0.45147  1.0000
  C   C1140     1.0  0.76336  0.14583  0.44257  1.0000
  C   C1141     1.0  0.65895  0.06932  0.43173  1.0000
  C   C1142     1.0  0.63120  0.06822  0.43412  1.0000
  C   C1143     1.0  0.62545  0.08182  0.45016  1.0000
  C   C1144     1.0  0.64744  0.09645  0.46386  1.0000
  C   C1145     1.0  0.67525  0.09764  0.46149  1.0000
  C   C1146     1.0  0.72649  0.08743  0.41544  1.0000
  C   C1147     1.0  0.73698  0.06899  0.40767  1.0000
  H   H909      1.0  0.74221  0.44570  0.59765  1.0000
  H   H910      1.0  0.75438  0.05779  0.38155  1.0000
  C   C1148     1.0  0.73163  0.10979  0.38175  1.0000
  C   C1149     1.0  0.72342  0.10753  0.40223  1.0000
  H   H911      1.0  0.77705  0.13876  0.49875  1.0000
  H   H912      1.0  0.86996  0.21405  0.36047  1.0000
  C   C1150     1.0  0.75166  0.43508  0.38813  1.0000
  H   H913      1.0  0.75006  0.09444  0.35851  1.0000
  C   C1151     1.0  0.91648  0.26300  0.60813  1.0000
  C   C1152     1.0  0.85556  0.02503  0.50782  1.0000
  C   C1153     1.0  0.97600  0.11190  0.54889  1.0000
  H   H914      1.0  0.61317  0.26033  0.32283  1.0000
  C   C1154     1.0  0.78939  0.32375  0.32374  1.0000
  C   C1155     1.0  0.97454  0.23805  0.59012  1.0000
  H   H915      1.0  0.75328  0.47814  0.56675  1.0000
  C   C1156     1.0  0.94471  0.21731  0.58654  1.0000
  H   H916      1.0  0.70589  0.35528  0.61748  1.0000
  H   H917      1.0  0.93994  0.19483  0.44107  1.0000
  H   H918      1.0  0.60911  0.42439  0.32054  1.0000
  C   C1157     1.0  0.80355  0.30669  0.32122  1.0000
  H   H919      1.0  0.76280  0.44097  0.40208  1.0000
  C   C1158     1.0  0.74949  0.37315  0.62945  1.0000
  H   H920      1.0  0.92718  0.20990  0.59853  1.0000
  H   H921      1.0  0.54604  0.24583  0.59104  1.0000
  C   C1159     1.0  0.69037  0.07453  0.63629  1.0000
  C   C1160     1.0  0.72197  0.40007  0.62735  1.0000
  H   H922      1.0  0.91036  0.98894  0.38003  1.0000
  H   H923      1.0  0.70735  0.12183  0.64096  1.0000
  H   H924      1.0  0.93479  0.27937  0.63635  1.0000
  H   H925      1.0  0.96934  0.15710  0.51159  1.0000
  C   C1161     1.0  0.95302  0.18732  0.64126  1.0000
  H   H926      1.0  0.65651  0.44762  0.38783  1.0000
  C   C1162     1.0  0.54397  0.21849  0.63856  1.0000
  C   C1163     1.0  0.68272  0.45570  0.34856  1.0000
  H   H927      1.0  0.71211  0.41556  0.33803  1.0000
  H   H928      1.0  0.48260  0.39889  0.63700  1.0000
  H   H929      1.0  0.76781  0.44036  0.33774  1.0000
  C   C1164     1.0  0.94919  0.05088  0.56148  1.0000
  H   H930      1.0  0.70341  0.46507  0.35627  1.0000
  C   C1165     1.0  0.86510  0.21917  0.63070  1.0000
  C   C1166     1.0  0.91561  0.26236  0.62913  1.0000
  H   H931      1.0  0.93332  0.15080  0.56015  1.0000
  P   P39       1.0  0.74206  0.45759  0.64075  1.0000
  C   C1167     1.0  0.89022  0.23981  0.64056  1.0000
  C   C1168     1.0  0.95994  0.21604  0.43617  1.0000
  H   H932      1.0  0.97284  0.10124  0.60151  1.0000
  C   C1169     1.0  0.74822  0.46895  0.59889  1.0000
  H   H933      1.0  0.76102  0.19237  0.63989  1.0000
  H   H934      1.0  0.78167  0.15241  0.31399  1.0000
  H   H935      1.0  0.55907  0.23504  0.31517  1.0000
  C   C1170     1.0  0.60313  0.23918  0.31576  1.0000
  C   C1171     1.0  0.75017  0.48087  0.61776  1.0000
  H   H936      1.0  0.61174  0.32003  0.31353  1.0000
  C   C1172     1.0  0.97681  0.07178  0.56866  1.0000
  H   H937      1.0  0.97662  0.30535  0.41905  1.0000
  C   C1173     1.0  0.62079  0.22619  0.31093  1.0000
  C   C1174     1.0  0.57265  0.22499  0.31130  1.0000
  Fe  Fe79      1.0  0.67091  0.20086  0.72853  1.0000
  S   S158      1.0  0.69127  0.17833  0.74621  1.0000
  S   S159      1.0  0.62168  0.17173  0.72324  1.0000
  Fe  Fe80      1.0  0.72847  0.26035  0.72558  1.0000
  S   S160      1.0  0.75331  0.24244  0.74307  1.0000
  S   S161      1.0  0.75358  0.30965  0.71565  1.0000
  Fe  Fe81      1.0  0.73126  0.20260  0.72395  1.0000
  S   S162      1.0  0.75540  0.17753  0.71374  1.0000
  Fe  Fe82      1.0  0.71117  0.21996  0.76370  1.0000
  S   S163      1.0  0.71333  0.21606  0.79759  1.0000
  S   S164      1.0  0.70932  0.22226  0.70484  1.0000
  S   S165      1.0  0.68803  0.24074  0.74754  1.0000
  Fe  Fe83      1.0  0.65018  0.43983  0.74204  1.0000
  H   H938      1.0  0.87071  0.45742  0.77618  1.0000
  S   S166      1.0  0.60606  0.43943  0.74349  1.0000
  Fe  Fe84      1.0  0.68225  0.40926  0.72486  1.0000
  S   S167      1.0  0.72663  0.44265  0.73617  1.0000
  S   S168      1.0  0.67073  0.36773  0.70827  1.0000
  Fe  Fe85      1.0  0.69957  0.43830  0.76470  1.0000
  S   S169      1.0  0.71950  0.43595  0.79391  1.0000
  C   C1175     1.0  0.66739  0.27308  0.65869  1.0000
  S   S170      1.0  0.65602  0.40197  0.75417  1.0000
  S   S171      1.0  0.67328  0.44477  0.71179  1.0000
  H   H939      1.0  0.56141  0.15861  0.73402  1.0000
  S   S172      1.0  0.55188  0.24041  0.70154  1.0000
  S   S173      1.0  0.52308  0.26421  0.74769  1.0000
  Fe  Fe86      1.0  0.64920  0.28133  0.88853  1.0000
  S   S174      1.0  0.60826  0.25270  0.90927  1.0000
  S   S175      1.0  0.67723  0.26148  0.87627  1.0000
  Fe  Fe87      1.0  0.64125  0.33514  0.89199  1.0000
  S   S176      1.0  0.59961  0.31054  0.91309  1.0000
  S   S177      1.0  0.65899  0.38383  0.88142  1.0000
  Fe  Fe88      1.0  0.62453  0.29141  0.92976  1.0000
  Fe  Fe89      1.0  0.58625  0.27367  0.89165  1.0000
  S   S178      1.0  0.53790  0.24473  0.88304  1.0000
  S   S179      1.0  0.66749  0.31889  0.90992  1.0000
  S   S180      1.0  0.62602  0.29949  0.86970  1.0000
  H   H940      1.0  0.51439  0.16539  0.90056  1.0000
  C   C1176     1.0  0.66784  0.32776  0.65883  1.0000
  C   C1177     1.0  0.58807  0.21463  0.77833  1.0000
  C   C1178     1.0  0.70481  0.98641  0.70485  1.0000
  Fe  Fe90      1.0  0.51317  0.23362  0.72236  1.0000
  H   H941      1.0  0.59419  0.32457  0.71498  1.0000
  C   C1179     1.0  0.83680  0.24056  0.67989  1.0000
  C   C1180     1.0  0.63463  0.21579  0.96359  1.0000
  H   H942      1.0  0.62330  0.25445  0.64791  1.0000
  C   C1181     1.0  0.52519  0.23642  0.85840  1.0000
  H   H943      1.0  0.50314  0.37043  0.77937  1.0000
  C   C1182     1.0  0.54706  0.17557  0.83303  1.0000
  C   C1183     1.0  0.95957  0.28274  0.70300  1.0000
  C   C1184     1.0  0.69722  0.42011  0.81665  1.0000
  C   C1185     1.0  0.68291  0.38901  0.82159  1.0000
  C   C1186     1.0  0.67042  0.37741  0.84127  1.0000
  C   C1187     1.0  0.67193  0.39676  0.85606  1.0000
  C   C1188     1.0  0.68538  0.42766  0.85087  1.0000
  C   C1189     1.0  0.69833  0.43931  0.83139  1.0000
  H   H944      1.0  0.68275  0.37404  0.81054  1.0000
  H   H945      1.0  0.66089  0.35373  0.84517  1.0000
  H   H946      1.0  0.68681  0.44284  0.86217  1.0000
  H   H947      1.0  0.61914  0.05265  0.67378  1.0000
  C   C1190     1.0  0.57357  0.40442  0.74052  1.0000
  C   C1191     1.0  0.54731  0.40392  0.73494  1.0000
  C   C1192     1.0  0.52125  0.37649  0.73202  1.0000
  C   C1193     1.0  0.52095  0.34922  0.73516  1.0000
  C   C1194     1.0  0.54689  0.34959  0.74146  1.0000
  C   C1195     1.0  0.57335  0.37718  0.74371  1.0000
  H   H948      1.0  0.54726  0.42486  0.73259  1.0000
  C   C1196     1.0  0.53834  0.15208  0.78873  1.0000
  H   H949      1.0  0.54674  0.32871  0.74446  1.0000
  H   H950      1.0  0.59341  0.37735  0.74812  1.0000
  C   C1197     1.0  0.76331  0.17204  0.68865  1.0000
  C   C1198     1.0  0.75763  0.18567  0.67219  1.0000
  H   H951      1.0  0.87882  0.32749  0.68209  1.0000
  H   H952      1.0  0.61178  0.28410  0.74123  1.0000
  C   C1199     1.0  0.78320  0.14916  0.66549  1.0000
  C   C1200     1.0  0.77599  0.15367  0.68518  1.0000
  H   H953      1.0  0.74780  0.19978  0.67461  1.0000
  H   H954      1.0  0.73159  0.00309  0.67672  1.0000
  H   H955      1.0  0.79316  0.13517  0.66305  1.0000
  H   H956      1.0  0.78033  0.14294  0.69781  1.0000
  C   C1201     1.0  0.70166  0.22963  0.81827  1.0000
  C   C1202     1.0  0.70884  0.22379  0.83728  1.0000
  C   C1203     1.0  0.70103  0.23384  0.85449  1.0000
  C   C1204     1.0  0.68553  0.24977  0.85325  1.0000
  C   C1205     1.0  0.67780  0.25555  0.83424  1.0000
  C   C1206     1.0  0.68580  0.24539  0.81674  1.0000
  H   H957      1.0  0.72092  0.21161  0.83873  1.0000
  H   H958      1.0  0.70710  0.22915  0.86897  1.0000
  H   H959      1.0  0.66625  0.26825  0.83298  1.0000
  H   H960      1.0  0.67975  0.24969  0.80216  1.0000
  C   C1207     1.0  0.73018  0.32555  0.71500  1.0000
  C   C1208     1.0  0.74296  0.35691  0.71492  1.0000
  C   C1209     1.0  0.72469  0.37003  0.71353  1.0000
  C   C1210     1.0  0.69370  0.35181  0.71169  1.0000
  C   C1211     1.0  0.68089  0.32043  0.71184  1.0000
  C   C1212     1.0  0.69905  0.30728  0.71378  1.0000
  H   H961      1.0  0.76702  0.37105  0.71595  1.0000
  H   H962      1.0  0.73467  0.39424  0.71341  1.0000
  H   H963      1.0  0.65693  0.30625  0.71031  1.0000
  H   H964      1.0  0.68908  0.28310  0.71360  1.0000
  C   C1213     1.0  0.60276  0.19147  0.71769  1.0000
  C   C1214     1.0  0.61721  0.21864  0.70593  1.0000
  C   C1215     1.0  0.60143  0.23365  0.70120  1.0000
  C   C1216     1.0  0.57144  0.22191  0.70857  1.0000
  C   C1217     1.0  0.55719  0.19507  0.72065  1.0000
  C   C1218     1.0  0.57268  0.17961  0.72492  1.0000
  H   H965      1.0  0.64044  0.22794  0.70037  1.0000
  H   H966      1.0  0.61257  0.25461  0.69207  1.0000
  H   H967      1.0  0.53405  0.18589  0.72635  1.0000
  C   C1219     1.0  0.87034  0.20012  0.67801  1.0000
  H   H968      1.0  0.82449  0.21639  0.67883  1.0000
  H   H969      1.0  0.62116  0.18179  0.82106  1.0000
  C   C1220     1.0  0.60076  0.16699  0.79267  1.0000
  C   C1221     1.0  0.54649  0.18347  0.85280  1.0000
  C   C1222     1.0  0.58548  0.32032  0.70018  1.0000
  C   C1223     1.0  0.52635  0.31397  0.80006  1.0000
  C   C1224     1.0  0.54350  0.34451  0.80409  1.0000
  C   C1225     1.0  0.53501  0.36487  0.79649  1.0000
  P   P40       1.0  0.57599  0.35680  0.81888  1.0000
  C   C1226     1.0  0.59688  0.33975  0.80935  1.0000
  C   C1227     1.0  0.60733  0.32552  0.82243  1.0000
  C   C1228     1.0  0.62246  0.31130  0.81482  1.0000
  C   C1229     1.0  0.62781  0.31182  0.79415  1.0000
  C   C1230     1.0  0.61817  0.32667  0.78102  1.0000
  C   C1231     1.0  0.60231  0.34015  0.78858  1.0000
  C   C1232     1.0  0.59925  0.39738  0.81688  1.0000
  H   H970      1.0  0.63821  0.15983  0.96035  1.0000
  C   C1233     1.0  0.58937  0.41498  0.82669  1.0000
  H   H971      1.0  0.58104  0.21072  0.95627  1.0000
  C   C1234     1.0  0.87204  0.17791  0.66728  1.0000
  C   C1235     1.0  0.58309  0.25734  0.76709  1.0000
  H   H972      1.0  0.53283  0.29800  0.80536  1.0000
  H   H973      1.0  0.63770  0.25453  0.73852  1.0000
  H   H974      1.0  0.63020  0.30004  0.82495  1.0000
  H   H975      1.0  0.63917  0.30042  0.78840  1.0000
  H   H976      1.0  0.62256  0.32744  0.76496  1.0000
  H   H977      1.0  0.59443  0.35109  0.77828  1.0000
  S   S181      1.0  0.48561  0.20600  0.79691  1.0000
  H   H978      1.0  0.56778  0.40432  0.83521  1.0000
  H   H979      1.0  0.66808  0.34893  0.65956  1.0000
  H   H980      1.0  0.53183  0.19808  0.64829  1.0000
  H   H981      1.0  0.64370  0.15419  0.85904  1.0000
  H   H982      1.0  0.57132  0.21405  0.87519  1.0000
  C   C1236     1.0  0.61540  0.16841  0.91025  1.0000
  H   H983      1.0  0.83530  0.11827  0.70154  1.0000
  H   H984      1.0  0.64084  0.12436  0.88999  1.0000
  C   C1237     1.0  0.64548  0.44306  0.80525  1.0000
  C   C1238     1.0  0.93117  0.27065  0.69516  1.0000
  C   C1239     1.0  0.63451  0.21002  0.94316  1.0000
  H   H985      1.0  0.54481  0.12398  0.94781  1.0000
  H   H986      1.0  0.61113  0.20251  0.89301  1.0000
  H   H987      1.0  0.62230  0.20993  0.76137  1.0000
  P   P41       1.0  0.61066  0.30514  0.64470  1.0000
  C   C1240     1.0  0.68741  0.41796  0.66216  1.0000
  C   C1241     1.0  0.60195  0.31675  0.68441  1.0000
  H   H988      1.0  0.57216  0.24399  0.66161  1.0000
  H   H989      1.0  0.86183  0.44143  0.81250  1.0000
  H   H990      1.0  0.65611  0.13628  0.78637  1.0000
  H   H991      1.0  0.66756  0.01146  0.69100  1.0000
  H   H992      1.0  0.69468  0.15303  0.69527  1.0000
  H   H993      1.0  0.71001  0.46339  0.82792  1.0000
  H   H994      1.0  0.58617  0.14947  0.76364  1.0000
  S   S182      1.0  0.48778  0.31544  0.73076  1.0000
  C   C1242     1.0  0.62051  0.14061  0.77338  1.0000
  H   H995      1.0  0.59246  0.36311  0.89127  1.0000
  H   H996      1.0  0.55682  0.22641  0.79194  1.0000
  C   C1243     1.0  0.55224  0.16875  0.91580  1.0000
  C   C1244     1.0  0.84502  0.14104  0.69499  1.0000
  H   H997      1.0  0.61723  0.24389  0.85264  1.0000
  C   C1245     1.0  0.54310  0.20602  0.94124  1.0000
  H   H998      1.0  0.50713  0.19928  0.92258  1.0000
  H   H999      1.0  0.83249  0.15741  0.72083  1.0000
  C   C1246     1.0  0.52870  0.12192  0.79468  1.0000
  H   H1000     1.0  0.66694  0.25171  0.65918  1.0000
  H   H1001     1.0  0.62206  0.41862  0.67166  1.0000
  C   C1247     1.0  0.68081  0.25817  0.93674  1.0000
  C   C1248     1.0  0.63538  0.46043  0.81486  1.0000
  C   C1249     1.0  0.73469  0.06276  0.66295  1.0000
  C   C1250     1.0  0.65768  0.40805  0.66920  1.0000
  H   H1002     1.0  0.65165  0.46792  0.65221  1.0000
  H   H1003     1.0  0.66752  0.45384  0.79731  1.0000
  H   H1004     1.0  0.54409  0.31905  0.70932  1.0000
  C   C1251     1.0  0.66688  0.08493  0.67462  1.0000
  C   C1252     1.0  0.68788  0.11350  0.68066  1.0000
  C   C1253     1.0  0.67825  0.13117  0.69041  1.0000
  C   C1254     1.0  0.64749  0.12060  0.69406  1.0000
  C   C1255     1.0  0.62634  0.09231  0.68795  1.0000
  C   C1256     1.0  0.63594  0.07448  0.67828  1.0000
  C   C1257     1.0  0.59816  0.21740  0.82723  1.0000
  C   C1258     1.0  0.56650  0.20007  0.94426  1.0000
  H   H1005     1.0  0.90685  0.30218  0.67117  1.0000
  C   C1259     1.0  0.64246  0.27472  0.65249  1.0000
  P   P42       1.0  0.60357  0.17627  0.93413  1.0000
  C   C1260     1.0  0.71289  0.06612  0.67410  1.0000
  C   C1261     1.0  0.49631  0.21190  0.85659  1.0000
  C   C1262     1.0  0.75999  0.06550  0.67202  1.0000
  C   C1263     1.0  0.76381  0.07171  0.69224  1.0000
  C   C1264     1.0  0.74219  0.07499  0.70348  1.0000
  C   C1265     1.0  0.71668  0.07193  0.69452  1.0000
  H   H1006     1.0  0.71215  0.34587  0.66992  1.0000
  P   P43       1.0  0.88845  0.23857  0.66765  1.0000
  H   H1007     1.0  0.61822  0.23085  0.81740  1.0000
  H   H1008     1.0  0.62334  0.13344  0.92249  1.0000
  C   C1266     1.0  0.59259  0.14517  0.95234  1.0000
  H   H1009     1.0  0.62848  0.19293  0.86076  1.0000
  C   C1267     1.0  0.49971  0.09902  0.79099  1.0000
  H   H1010     1.0  0.64008  0.13435  0.70166  1.0000
  H   H1011     1.0  0.60250  0.08425  0.69082  1.0000
  Fe  Fe91      1.0  0.71561  0.47807  0.72549  1.0000
  C   C1268     1.0  0.61687  0.18491  0.89257  1.0000
  H   H1012     1.0  0.69832  0.27481  0.92619  1.0000
  C   C1269     1.0  0.61132  0.22305  0.76335  1.0000
  H   H1013     1.0  0.69749  0.28520  0.96223  1.0000
  C   C1270     1.0  0.63542  0.15778  0.87326  1.0000
  C   C1271     1.0  0.47992  0.10609  0.78162  1.0000
  H   H1014     1.0  0.64501  0.38697  0.67820  1.0000
  H   H1015     1.0  0.78349  0.07390  0.69917  1.0000
  H   H1016     1.0  0.74529  0.08020  0.71910  1.0000
  H   H1017     1.0  0.70010  0.07436  0.70354  1.0000
  C   C1272     1.0  0.82115  0.25496  0.68620  1.0000
  C   C1273     1.0  0.83633  0.28625  0.68714  1.0000
  H   H1018     1.0  0.79719  0.24179  0.69044  1.0000
  H   H1019     1.0  0.82402  0.29727  0.69205  1.0000
  C   C1274     1.0  0.56215  0.12288  0.95591  1.0000
  C   C1275     1.0  0.63996  0.15879  0.80552  1.0000
  H   H1020     1.0  0.54013  0.22114  0.95078  1.0000
  H   H1021     1.0  0.94947  0.19445  0.65566  1.0000
  C   C1276     1.0  0.57194  0.18222  0.93113  1.0000
  H   H1022     1.0  0.74766  0.42091  0.85266  1.0000
  H   H1023     1.0  0.50948  0.28732  0.87548  1.0000
  C   C1277     1.0  0.62398  0.14638  0.90916  1.0000
  P   P44       1.0  0.67985  0.06204  0.66252  1.0000
  C   C1278     1.0  0.71571  0.34498  0.86014  1.0000
  C   C1279     1.0  0.72406  0.37459  0.86413  1.0000
  C   C1280     1.0  0.74270  0.39818  0.85011  1.0000
  C   C1281     1.0  0.75374  0.39226  0.83240  1.0000
  C   C1282     1.0  0.74666  0.36267  0.82880  1.0000
  C   C1283     1.0  0.72648  0.33898  0.84239  1.0000
  P   P45       1.0  0.76011  0.35475  0.80570  1.0000
  C   C1284     1.0  0.73146  0.34692  0.78831  1.0000
  C   C1285     1.0  0.79511  0.38719  0.79622  1.0000
  C   C1286     1.0  0.80058  0.39588  0.77562  1.0000
  C   C1287     1.0  0.82775  0.42118  0.76845  1.0000
  C   C1288     1.0  0.84977  0.43770  0.78174  1.0000
  C   C1289     1.0  0.84475  0.42872  0.80220  1.0000
  C   C1290     1.0  0.81759  0.40343  0.80941  1.0000
  C   C1291     1.0  0.71384  0.31802  0.78140  1.0000
  C   C1292     1.0  0.69225  0.31290  0.76758  1.0000
  C   C1293     1.0  0.68747  0.33627  0.76110  1.0000
  C   C1294     1.0  0.70440  0.36484  0.76829  1.0000
  C   C1295     1.0  0.72632  0.37017  0.78185  1.0000
  C   C1296     1.0  0.76868  0.32472  0.80861  1.0000
  C   C1297     1.0  0.77217  0.31472  0.82765  1.0000
  C   C1298     1.0  0.77783  0.29080  0.82961  1.0000
  C   C1299     1.0  0.78087  0.27726  0.81257  1.0000
  C   C1300     1.0  0.77892  0.28806  0.79352  1.0000
  C   C1301     1.0  0.77317  0.31190  0.79150  1.0000
  H   H1024     1.0  0.70050  0.32658  0.87065  1.0000
  H   H1025     1.0  0.76717  0.41072  0.82140  1.0000
  H   H1026     1.0  0.71907  0.31583  0.83935  1.0000
  H   H1027     1.0  0.78392  0.38321  0.76504  1.0000
  H   H1028     1.0  0.83161  0.42800  0.75257  1.0000
  C   C1302     1.0  0.65013  0.00340  0.68041  1.0000
  H   H1029     1.0  0.81397  0.39664  0.82529  1.0000
  H   H1030     1.0  0.71657  0.29938  0.78658  1.0000
  H   H1031     1.0  0.67908  0.29076  0.76199  1.0000
  H   H1032     1.0  0.67034  0.33218  0.75071  1.0000
  H   H1033     1.0  0.70058  0.38293  0.76345  1.0000
  H   H1034     1.0  0.73922  0.39249  0.78732  1.0000
  H   H1035     1.0  0.77031  0.32504  0.84106  1.0000
  H   H1036     1.0  0.77915  0.28228  0.84438  1.0000
  H   H1037     1.0  0.78410  0.25798  0.81410  1.0000
  H   H1038     1.0  0.78093  0.27728  0.78036  1.0000
  H   H1039     1.0  0.77151  0.31981  0.77660  1.0000
  H   H1040     1.0  0.65582  0.16224  0.81682  1.0000
  C   C1303     1.0  0.94826  0.25195  0.66776  1.0000
  H   H1041     1.0  0.69740  0.40431  0.66601  1.0000
  H   H1042     1.0  0.60379  0.32527  0.83852  1.0000
  H   H1043     1.0  0.71506  0.37914  0.87768  1.0000
  C   C1304     1.0  0.62757  0.41167  0.80626  1.0000
  H   H1044     1.0  0.63630  0.39883  0.79903  1.0000
  C   C1305     1.0  0.66137  0.45364  0.65458  1.0000
  H   H1045     1.0  0.57215  0.27056  0.76869  1.0000
  H   H1046     1.0  0.52216  0.30487  0.83996  1.0000
  C   C1306     1.0  0.85649  0.19263  0.69753  1.0000
  C   C1307     1.0  0.86719  0.30320  0.68161  1.0000
  H   H1047     1.0  0.54393  0.25816  0.80838  1.0000
  H   H1048     1.0  0.52408  0.30921  0.67587  1.0000
  H   H1049     1.0  0.59960  0.45984  0.83320  1.0000
  C   C1308     1.0  0.62676  0.17955  0.87420  1.0000
  H   H1050     1.0  0.62310  0.31802  0.68743  1.0000
  C   C1309     1.0  0.63393  0.14112  0.89072  1.0000
  C   C1310     1.0  0.92552  0.25573  0.67722  1.0000
  C   C1311     1.0  0.85933  0.14846  0.67573  1.0000
  C   C1312     1.0  0.54242  0.25305  0.84088  1.0000
  C   C1313     1.0  0.70411  0.44547  0.65073  1.0000
  S   S183      1.0  0.61628  0.27866  0.96447  1.0000
  H   H1051     1.0  0.54407  0.31633  0.90134  1.0000
  C   C1314     1.0  0.86801  0.25726  0.67512  1.0000
  C   C1315     1.0  0.69292  0.32614  0.66464  1.0000
  C   C1316     1.0  0.76510  0.18139  0.65252  1.0000
  C   C1317     1.0  0.59766  0.22490  0.84711  1.0000
  H   H1052     1.0  0.96315  0.39329  0.72251  1.0000
  S   S184      1.0  0.47926  0.24370  0.70937  1.0000
  H   H1053     1.0  0.55532  0.15422  0.90581  1.0000
  C   C1318     1.0  0.53001  0.30832  0.87114  1.0000
  H   H1054     1.0  0.85558  0.20952  0.70634  1.0000
  H   H1055     1.0  0.52446  0.18185  0.77491  1.0000
  C   C1319     1.0  0.60733  0.44639  0.82560  1.0000
  C   C1320     1.0  0.53744  0.31836  0.85090  1.0000
  C   C1321     1.0  0.56469  0.34481  0.84507  1.0000
  C   C1322     1.0  0.88299  0.28879  0.67552  1.0000
  H   H1056     1.0  0.54353  0.11612  0.80234  1.0000
  C   C1323     1.0  0.68043  0.26395  0.95701  1.0000
  H   H1057     1.0  0.62112  0.12996  0.75977  1.0000
  H   H1058     1.0  0.96384  0.29416  0.71686  1.0000
  H   H1059     1.0  0.71179  0.12204  0.67793  1.0000
  H   H1060     1.0  0.54834  0.38871  0.79856  1.0000
  C   C1324     1.0  0.84361  0.16311  0.70589  1.0000
  H   H1061     1.0  0.52609  0.17115  0.86249  1.0000
  C   C1325     1.0  0.57315  0.19219  0.82021  1.0000
  S   S185      1.0  0.69179  0.47613  0.75500  1.0000
  C   C1326     1.0  0.52882  0.17474  0.91286  1.0000
  C   C1327     1.0  0.52450  0.19367  0.92541  1.0000
  C   C1328     1.0  0.64015  0.14414  0.78833  1.0000
  H   H1062     1.0  0.74024  0.45230  0.68484  1.0000
  C   C1329     1.0  0.57460  0.23243  0.78038  1.0000
  H   H1063     1.0  0.52699  0.15679  0.82782  1.0000
  H   H1064     1.0  0.49247  0.07583  0.79559  1.0000
  C   C1330     1.0  0.54596  0.31161  0.67808  1.0000
  H   H1065     1.0  0.91354  0.27248  0.70330  1.0000
  H   H1066     1.0  0.60618  0.38062  0.85573  1.0000
  C   C1331     1.0  0.58443  0.36084  0.85983  1.0000
  C   C1332     1.0  0.57190  0.20786  0.85991  1.0000
  C   C1333     1.0  0.60083  0.15189  0.77556  1.0000
  C   C1334     1.0  0.62014  0.24838  0.75027  1.0000
  C   C1335     1.0  0.62040  0.17022  0.80772  1.0000
  C   C1336     1.0  0.54961  0.32458  0.88572  1.0000
  C   C1337     1.0  0.53051  0.24523  0.82175  1.0000
  C   C1338     1.0  0.49186  0.32400  0.78218  1.0000
  C   C1339     1.0  0.57679  0.35087  0.88006  1.0000
  C   C1340     1.0  0.50165  0.22009  0.82009  1.0000
  H   H1067     1.0  0.86077  0.13146  0.66736  1.0000
  H   H1068     1.0  0.77646  0.06246  0.66333  1.0000
  C   C1341     1.0  0.65807  0.23128  0.92986  1.0000
  C   C1342     1.0  0.65055  0.02281  0.66488  1.0000
  H   H1069     1.0  0.59948  0.32921  0.97088  1.0000
  C   C1343     1.0  0.48493  0.20353  0.83767  1.0000
  H   H1070     1.0  0.65880  0.22766  0.91408  1.0000
  H   H1071     1.0  0.56478  0.27183  0.84217  1.0000
  H   H1072     1.0  0.50123  0.37640  0.72738  1.0000
  C   C1344     1.0  0.55739  0.31742  0.69703  1.0000
  C   C1345     1.0  0.59052  0.31069  0.66531  1.0000
  H   H1073     1.0  0.71756  0.00739  0.71203  1.0000
  C   C1346     1.0  0.60565  0.26518  0.75187  1.0000
  C   C1347     1.0  0.56242  0.30822  0.66225  1.0000
  C   C1348     1.0  0.51823  0.15895  0.77937  1.0000
  P   P46       1.0  0.57513  0.18145  0.79500  1.0000
  C   C1349     1.0  0.69263  0.29878  0.66473  1.0000
  H   H1074     1.0  0.88342  0.18334  0.65246  1.0000
  H   H1075     1.0  0.71164  0.29735  0.67007  1.0000
  C   C1350     1.0  0.62703  0.01178  0.65177  1.0000
  C   C1351     1.0  0.64236  0.30206  0.65271  1.0000
  C   C1352     1.0  0.64470  0.42590  0.66549  1.0000
  H   H1076     1.0  0.48744  0.28009  0.78633  1.0000
  C   C1353     1.0  0.50925  0.35459  0.78559  1.0000
  C   C1354     1.0  0.77795  0.16318  0.64905  1.0000
  C   C1355     1.0  0.56693  0.24458  0.64610  1.0000
  C   C1356     1.0  0.48917  0.13604  0.77589  1.0000
  H   H1077     1.0  0.48274  0.19888  0.86992  1.0000
  S   S186      1.0  0.47815  0.19173  0.74001  1.0000
  Fe  Fe92      1.0  0.48635  0.27103  0.73613  1.0000
  C   C1357     1.0  0.50055  0.30373  0.78929  1.0000
  C   C1358     1.0  0.76217  0.47065  0.67934  1.0000
  Fe  Fe93      1.0  0.48586  0.22321  0.76486  1.0000
  C   C1359     1.0  0.61457  0.14297  0.96300  1.0000
  H   H1078     1.0  0.78925  0.44194  0.64825  1.0000
  H   H1079     1.0  0.73230  0.05792  0.64725  1.0000
  H   H1080     1.0  0.77812  0.48054  0.70906  1.0000
  H   H1081     1.0  0.94409  0.23936  0.65443  1.0000
  H   H1082     1.0  0.49158  0.25133  0.66479  1.0000
  C   C1360     1.0  0.65751  0.24264  0.97046  1.0000
  C   C1361     1.0  0.76907  0.47888  0.65874  1.0000
  C   C1362     1.0  0.55382  0.09890  0.97011  1.0000
  H   H1083     1.0  0.61654  0.20006  0.97415  1.0000
  H   H1084     1.0  0.55304  0.30325  0.64770  1.0000
  H   H1085     1.0  0.49510  0.38105  0.66831  1.0000
  C   C1363     1.0  0.97660  0.26409  0.67563  1.0000
  C   C1364     1.0  0.69088  0.46333  0.64713  1.0000
  H   H1086     1.0  0.63134  0.48097  0.70820  1.0000
  H   H1087     1.0  0.53027  0.08185  0.97289  1.0000
  H   H1088     1.0  0.61115  0.36316  0.64400  1.0000
  H   H1089     1.0  0.81699  0.58268  0.26484  1.0000
  C   C1365     1.0  0.83033  0.59717  0.27629  1.0000
  H   H1090     1.0  0.55259  0.63092  0.30840  1.0000
  H   H1091     1.0  0.53143  0.83034  0.06236  1.0000
  H   H1092     1.0  0.67996  0.74640  0.30807  1.0000
  C   C1366     1.0  0.50774  0.81455  0.06610  1.0000
  C   C1367     1.0  0.86857  0.64602  0.28619  1.0000
  H   H1093     1.0  0.64405  0.80099  0.28215  1.0000
  C   C1368     1.0  0.63720  0.76836  0.30596  1.0000
  Fe  Fe94      1.0  0.48903  0.73787  0.28752  1.0000
  S   S187      1.0  0.53800  0.76926  0.29487  1.0000
  C   C1369     1.0  0.49174  0.82119  0.08049  1.0000
  C   C1370     1.0  0.82489  0.58599  0.29629  1.0000
  C   C1371     1.0  0.64898  0.79761  0.29735  1.0000
  H   H1094     1.0  0.85560  0.63608  0.25580  1.0000
  C   C1372     1.0  0.85208  0.62722  0.27125  1.0000
  S   S188      1.0  0.75583  0.49291  0.26012  1.0000
  S   S189      1.0  0.73848  0.53772  0.30071  1.0000
  H   H1095     1.0  0.67546  0.84503  0.30181  1.0000
  H   H1096     1.0  0.72010  0.73330  0.30535  1.0000
  Fe  Fe95      1.0  0.72946  0.49323  0.28781  1.0000
  H   H1097     1.0  0.50553  0.78237  0.04535  1.0000
  H   H1098     1.0  0.88438  0.66958  0.28216  1.0000
  H   H1099     1.0  0.49579  0.81734  0.30346  1.0000
  H   H1100     1.0  0.92641  0.66443  0.29279  1.0000
  H   H1101     1.0  0.64997  0.49464  0.19268  1.0000
  H   H1102     1.0  0.80719  0.56297  0.30022  1.0000
  H   H1103     1.0  0.49830  0.65819  0.22069  1.0000
  C   C1373     1.0  0.66661  0.82240  0.30843  1.0000
  C   C1374     1.0  0.49316  0.78752  0.05654  1.0000
  C   C1375     1.0  0.86393  0.63470  0.30627  1.0000
  C   C1376     1.0  0.53792  0.66360  0.30856  1.0000
  H   H1104     1.0  0.50302  0.84215  0.08791  1.0000
  H   H1105     1.0  0.62371  0.74948  0.29706  1.0000
  H   H1106     1.0  0.63534  0.86812  0.30438  1.0000
  H   H1107     1.0  0.59631  0.80863  0.30905  1.0000
  H   H1108     1.0  0.80939  0.48845  0.23568  1.0000
  H   H1109     1.0  0.51682  0.64917  0.30188  1.0000
  C   C1377     1.0  0.97023  0.69696  0.30125  1.0000
  C   C1378     1.0  0.93874  0.67998  0.30395  1.0000
  Fe  Fe96      1.0  0.65805  0.84179  0.43449  1.0000
  S   S190      1.0  0.70663  0.85859  0.42539  1.0000
  S   S191      1.0  0.64222  0.84810  0.46509  1.0000
  Fe  Fe97      1.0  0.63583  0.81304  0.39442  1.0000
  S   S192      1.0  0.68305  0.82727  0.38245  1.0000
  S   S193      1.0  0.59054  0.78132  0.38160  1.0000
  Fe  Fe98      1.0  0.69003  0.81306  0.41305  1.0000
  S   S194      1.0  0.71234  0.78671  0.42347  1.0000
  Fe  Fe99      1.0  0.69606  0.87181  0.39581  1.0000
  S   S195      1.0  0.72904  0.91603  0.37855  1.0000
  S   S196      1.0  0.64203  0.79555  0.42425  1.0000
  S   S197      1.0  0.64834  0.85852  0.40568  1.0000
  Fe  Fe100     1.0  0.69314  0.82263  0.57053  1.0000
  S   S198      1.0  0.73142  0.82711  0.58807  1.0000
  S   S199      1.0  0.70601  0.82464  0.53748  1.0000
  Fe  Fe101     1.0  0.72122  0.85576  0.60782  1.0000
  C   C1379     1.0  0.88713  0.95317  0.40315  1.0000
  Fe  Fe102     1.0  0.69659  0.78764  0.60729  1.0000
  S   S200      1.0  0.69970  0.74618  0.61607  1.0000
  S   S201      1.0  0.68529  0.85426  0.58897  1.0000
  S   S202      1.0  0.65849  0.78103  0.58868  1.0000
  Fe  Fe103     1.0  0.80069  0.64400  0.39448  1.0000
  S   S203      1.0  0.82463  0.68986  0.37802  1.0000
  S   S204      1.0  0.79541  0.60076  0.38159  1.0000
  Fe  Fe104     1.0  0.79121  0.66935  0.43338  1.0000
  S   S205      1.0  0.81381  0.71633  0.41924  1.0000
  S   S206      1.0  0.77218  0.66499  0.46548  1.0000
  Fe  Fe105     1.0  0.78778  0.69602  0.39250  1.0000
  S   S207      1.0  0.76630  0.71825  0.37465  1.0000
  Fe  Fe106     1.0  0.84888  0.70676  0.40617  1.0000
  S   S208      1.0  0.89596  0.74687  0.40873  1.0000
  S   S209      1.0  0.76225  0.64916  0.40731  1.0000
  S   S210      1.0  0.82784  0.66072  0.42203  1.0000
  Fe  Fe107     1.0  0.83317  0.65995  0.57129  1.0000
  S   S211      1.0  0.86453  0.70566  0.58181  1.0000
  S   S212      1.0  0.83908  0.64942  0.53929  1.0000
  Fe  Fe108     1.0  0.82385  0.70019  0.59962  1.0000
  S   S213      1.0  0.82010  0.74230  0.59871  1.0000
  Fe  Fe109     1.0  0.87043  0.68147  0.60819  1.0000
  C   C1380     1.0  0.83385  0.66844  0.32820  1.0000
  S   S214      1.0  0.79193  0.65619  0.58709  1.0000
  S   S215      1.0  0.84163  0.63548  0.59657  1.0000
  C   C1381     1.0  0.95051  0.72648  0.61233  1.0000
  C   C1382     1.0  0.95141  0.75089  0.60163  1.0000
  H   H1110     1.0  0.90672  0.72619  0.32607  1.0000
  H   H1111     1.0  0.93061  0.74963  0.59759  1.0000
  C   C1383     1.0  0.93039  0.74856  0.40158  1.0000
  C   C1384     1.0  0.95751  0.77563  0.40339  1.0000
  C   C1385     1.0  0.93143  0.72383  0.39434  1.0000
  H   H1112     1.0  0.95687  0.79490  0.40882  1.0000
  H   H1113     1.0  0.91069  0.70291  0.39295  1.0000
  C   C1386     1.0  0.79084  0.66066  0.48596  1.0000
  C   C1387     1.0  0.81100  0.65004  0.48341  1.0000
  C   C1388     1.0  0.82498  0.64606  0.50002  1.0000
  C   C1389     1.0  0.81967  0.65348  0.51919  1.0000
  C   C1390     1.0  0.79954  0.66419  0.52179  1.0000
  C   C1391     1.0  0.78501  0.66757  0.50523  1.0000
  H   H1114     1.0  0.81547  0.64441  0.46870  1.0000
  H   H1115     1.0  0.84017  0.63734  0.49798  1.0000
  H   H1116     1.0  0.79532  0.66996  0.53650  1.0000
  H   H1117     1.0  0.76941  0.67576  0.50734  1.0000
  C   C1392     1.0  0.75933  0.93144  0.61794  1.0000
  C   C1393     1.0  0.73134  0.92979  0.62024  1.0000
  C   C1394     1.0  0.79775  0.86519  0.42136  1.0000
  H   H1118     1.0  0.64849  0.76602  0.53428  1.0000
  H   H1119     1.0  0.71084  0.90819  0.62030  1.0000
  C   C1395     1.0  0.96130  0.63251  0.32529  1.0000
  C   C1396     1.0  0.73262  0.74488  0.60924  1.0000
  C   C1397     1.0  0.78571  0.74220  0.60172  1.0000
  C   C1398     1.0  0.75847  0.71583  0.60723  1.0000
  C   C1399     1.0  0.73209  0.71728  0.61118  1.0000
  H   H1120     1.0  0.75794  0.69454  0.60911  1.0000
  H   H1121     1.0  0.71125  0.69708  0.61600  1.0000
  C   C1400     1.0  0.72680  0.76797  0.40910  1.0000
  C   C1401     1.0  0.72706  0.76830  0.38813  1.0000
  C   C1402     1.0  0.73883  0.75264  0.37763  1.0000
  C   C1403     1.0  0.75046  0.73673  0.38805  1.0000
  C   C1404     1.0  0.75015  0.73655  0.40899  1.0000
  C   C1405     1.0  0.73863  0.75233  0.41938  1.0000
  H   H1122     1.0  0.71845  0.78077  0.38006  1.0000
  H   H1123     1.0  0.73910  0.75298  0.36142  1.0000
  H   H1124     1.0  0.75895  0.72439  0.41719  1.0000
  H   H1125     1.0  0.73887  0.75246  0.43555  1.0000
  C   C1406     1.0  0.74461  0.95039  0.39074  1.0000
  C   C1407     1.0  0.73597  0.95122  0.41073  1.0000
  C   C1408     1.0  0.58658  0.71491  0.39322  1.0000
  H   H1126     1.0  0.71932  0.93063  0.41897  1.0000
  C   C1409     1.0  0.81582  0.81133  0.39929  1.0000
  C   C1410     1.0  0.65904  0.84047  0.48536  1.0000
  C   C1411     1.0  0.68146  0.83293  0.48190  1.0000
  C   C1412     1.0  0.69548  0.82804  0.49810  1.0000
  C   C1413     1.0  0.68717  0.83055  0.51788  1.0000
  C   C1414     1.0  0.66447  0.83768  0.52146  1.0000
  C   C1415     1.0  0.65041  0.84260  0.50520  1.0000
  H   H1127     1.0  0.68797  0.83077  0.46674  1.0000
  H   H1128     1.0  0.71271  0.82209  0.49530  1.0000
  H   H1129     1.0  0.65785  0.83948  0.53670  1.0000
  H   H1130     1.0  0.63292  0.84819  0.50799  1.0000
  C   C1416     1.0  0.49224  0.78253  0.34853  1.0000
  C   C1417     1.0  0.77268  0.86761  0.37671  1.0000
  C   C1418     1.0  0.59442  0.79742  0.34079  1.0000
  C   C1419     1.0  0.57663  0.77857  0.35731  1.0000
  C   C1420     1.0  0.54660  0.75653  0.35462  1.0000
  C   C1421     1.0  0.53440  0.75348  0.33569  1.0000
  H   H1131     1.0  0.61748  0.81451  0.34267  1.0000
  H   H1132     1.0  0.53263  0.74174  0.36728  1.0000
  H   H1133     1.0  0.51128  0.73643  0.33390  1.0000
  C   C1422     1.0  0.58586  0.95349  0.34514  1.0000
  C   C1423     1.0  0.95782  0.76010  0.53810  1.0000
  C   C1424     1.0  0.77811  0.55630  0.35462  1.0000
  C   C1425     1.0  0.77890  0.58328  0.35923  1.0000
  C   C1426     1.0  0.76688  0.59557  0.34594  1.0000
  C   C1427     1.0  0.75466  0.58131  0.32818  1.0000
  C   C1428     1.0  0.51681  0.80617  0.35703  1.0000
  H   H1134     1.0  0.78729  0.54655  0.36480  1.0000
  H   H1135     1.0  0.76710  0.61615  0.34931  1.0000
  Fe  Fe110     1.0  0.65372  0.81271  0.60909  1.0000
  Fe  Fe111     1.0  0.80264  0.63504  0.61347  1.0000
  H   H1136     1.0  0.57694  0.73336  0.32612  1.0000
  C   C1429     1.0  0.70710  0.92022  0.47174  1.0000
  C   C1430     1.0  0.74914  0.76273  0.51941  1.0000
  C   C1431     1.0  0.77354  0.77139  0.50534  1.0000
  C   C1432     1.0  0.79957  0.79962  0.50580  1.0000
  C   C1433     1.0  0.80143  0.81933  0.52036  1.0000
  C   C1434     1.0  0.77734  0.81070  0.53454  1.0000
  C   C1435     1.0  0.75137  0.78247  0.53417  1.0000
  C   C1436     1.0  0.68417  0.72496  0.53215  1.0000
  C   C1437     1.0  0.63497  0.72503  0.55219  1.0000
  C   C1438     1.0  0.64139  0.70216  0.55685  1.0000
  C   C1439     1.0  0.66580  0.70201  0.54685  1.0000
  H   H1137     1.0  0.68076  0.73540  0.48936  1.0000
  H   H1138     1.0  0.77261  0.75624  0.49416  1.0000
  H   H1139     1.0  0.81832  0.80606  0.49494  1.0000
  H   H1140     1.0  0.82153  0.84121  0.52071  1.0000
  H   H1141     1.0  0.77860  0.82573  0.54594  1.0000
  H   H1142     1.0  0.73320  0.77615  0.54554  1.0000
  H   H1143     1.0  0.61634  0.72542  0.56013  1.0000
  H   H1144     1.0  0.62769  0.68478  0.56845  1.0000
  H   H1145     1.0  0.67039  0.68419  0.55093  1.0000
  C   C1440     1.0  0.65306  0.74789  0.53761  1.0000
  C   C1441     1.0  0.86461  0.92317  0.40754  1.0000
  H   H1146     1.0  0.74189  0.97923  0.43549  1.0000
  C   C1442     1.0  0.67769  0.74803  0.52775  1.0000
  C   C1443     1.0  0.76857  0.83794  0.45225  1.0000
  H   H1147     1.0  0.74153  0.64273  0.56140  1.0000
  C   C1444     1.0  0.75796  0.51122  0.61867  1.0000
  C   C1445     1.0  0.63921  0.91304  0.60764  1.0000
  H   H1148     1.0  0.65796  0.73968  0.40699  1.0000
  H   H1149     1.0  0.89664  0.66945  0.47428  1.0000
  C   C1446     1.0  0.72259  0.98397  0.57781  1.0000
  C   C1447     1.0  0.85413  0.91797  0.37236  1.0000
  C   C1448     1.0  0.53140  0.92301  0.34723  1.0000
  H   H1150     1.0  0.68591  0.83714  0.33680  1.0000
  C   C1449     1.0  0.64455  0.73400  0.37653  1.0000
  C   C1450     1.0  0.65514  0.71420  0.33318  1.0000
  C   C1451     1.0  0.65410  0.69125  0.34591  1.0000
  H   H1151     1.0  0.93007  0.70388  0.34947  1.0000
  H   H1152     1.0  0.66528  0.78559  0.35204  1.0000
  H   H1153     1.0  0.78082  0.96067  0.48169  1.0000
  C   C1452     1.0  0.48453  0.78668  0.32933  1.0000
  H   H1154     1.0  0.77048  0.86781  0.52716  1.0000
  C   C1453     1.0  0.63269  0.87309  0.31970  1.0000
  H   H1155     1.0  0.58537  0.85644  0.31825  1.0000
  C   C1454     1.0  0.75453  0.84236  0.34603  1.0000
  C   C1455     1.0  0.64620  0.92929  0.64163  1.0000
  H   H1156     1.0  0.75735  0.81732  0.46182  1.0000
  H   H1157     1.0  0.96156  0.74211  0.53350  1.0000
  H   H1158     1.0  0.72507  0.67921  0.45752  1.0000
  C   C1456     1.0  0.97244  0.71869  0.33316  1.0000
  H   H1159     1.0  0.54149  0.87652  0.42893  1.0000
  C   C1457     1.0  0.77599  0.88823  0.53458  1.0000
  H   H1160     1.0  0.76506  0.52110  0.33367  1.0000
  H   H1161     1.0  0.87245  0.73338  0.45197  1.0000
  C   C1458     1.0  0.79211  0.85583  0.37823  1.0000
  C   C1459     1.0  0.75381  0.55433  0.32356  1.0000
  H   H1162     1.0  0.76760  0.53185  0.56878  1.0000
  C   C1460     1.0  0.72988  0.95605  0.62322  1.0000
  C   C1461     1.0  0.71187  0.93085  0.50694  1.0000
  C   C1462     1.0  0.62068  0.72550  0.36385  1.0000
  C   C1463     1.0  0.67256  0.81793  0.32811  1.0000
  C   C1464     1.0  0.83629  0.71677  0.32863  1.0000
  C   C1465     1.0  0.76607  0.97744  0.38019  1.0000
  C   C1466     1.0  0.56155  0.85819  0.38455  1.0000
  C   C1467     1.0  0.57109  0.83882  0.39229  1.0000
  C   C1468     1.0  0.56991  0.83296  0.41299  1.0000
  C   C1469     1.0  0.55935  0.84663  0.42620  1.0000
  C   C1470     1.0  0.96863  0.64798  0.34289  1.0000
  C   C1471     1.0  0.55064  0.87165  0.39788  1.0000
  H   H1163     1.0  0.88163  0.69145  0.44637  1.0000
  H   H1164     1.0  0.57969  0.82843  0.38222  1.0000
  H   H1165     1.0  0.57756  0.81802  0.41874  1.0000
  C   C1472     1.0  0.63940  0.73282  0.39733  1.0000
  C   C1473     1.0  0.74881  0.97878  0.42006  1.0000
  H   H1166     1.0  0.56434  0.70858  0.39963  1.0000
  C   C1474     1.0  0.52578  0.83829  0.32708  1.0000
  H   H1167     1.0  0.62353  0.89099  0.37458  1.0000
  H   H1168     1.0  0.54316  0.88674  0.39237  1.0000
  C   C1475     1.0  0.56176  0.89934  0.35230  1.0000
  C   C1476     1.0  0.79320  0.83802  0.36302  1.0000
  C   C1477     1.0  0.77400  0.83079  0.34726  1.0000
  C   C1478     1.0  0.68791  0.63211  0.62847  1.0000
  H   H1169     1.0  0.79151  0.95905  0.56262  1.0000
  C   C1479     1.0  0.92547  0.77557  0.55481  1.0000
  C   C1480     1.0  0.93077  0.75277  0.54866  1.0000
  C   C1481     1.0  0.66064  0.78867  0.33679  1.0000
  H   H1170     1.0  0.90452  0.76981  0.56315  1.0000
  H   H1171     1.0  0.91404  0.72930  0.55216  1.0000
  H   H1172     1.0  0.69197  0.76656  0.51697  1.0000
  H   H1173     1.0  0.64132  0.95393  0.61665  1.0000
  H   H1174     1.0  0.79010  0.87496  0.56118  1.0000
  H   H1175     1.0  0.74862  0.93759  0.45367  1.0000
  H   H1176     1.0  0.69091  0.66021  0.51875  1.0000
  H   H1177     1.0  0.63732  0.87065  0.60334  1.0000
  H   H1178     1.0  0.78534  0.81933  0.43059  1.0000
  H   H1179     1.0  0.94342  0.82340  0.55554  1.0000
  H   H1180     1.0  0.86736  0.64436  0.39955  1.0000
  H   H1181     1.0  0.69573  0.49814  0.33269  1.0000
  C   C1482     1.0  0.70824  0.66856  0.52945  1.0000
  H   H1182     1.0  0.80887  0.82973  0.36312  1.0000
  H   H1183     1.0  0.67684  0.66726  0.35472  1.0000
  C   C1483     1.0  0.72703  0.94788  0.55767  1.0000
  C   C1484     1.0  0.83918  0.74985  0.54278  1.0000
  C   C1485     1.0  0.84604  0.77817  0.54902  1.0000
  C   C1486     1.0  0.86422  0.80398  0.53652  1.0000
  C   C1487     1.0  0.87564  0.80151  0.51778  1.0000
  C   C1488     1.0  0.86945  0.77321  0.51157  1.0000
  C   C1489     1.0  0.85043  0.74730  0.52399  1.0000
  P   P47       1.0  0.88111  0.77005  0.48638  1.0000
  C   C1490     1.0  0.85377  0.77179  0.47114  1.0000
  C   C1491     1.0  0.91889  0.79943  0.47862  1.0000
  C   C1492     1.0  0.92859  0.80454  0.45817  1.0000
  C   C1493     1.0  0.71412  0.95418  0.57426  1.0000
  H   H1184     1.0  0.61010  0.93009  0.35008  1.0000
  H   H1185     1.0  0.50949  0.92119  0.34638  1.0000
  C   C1494     1.0  0.93967  0.81522  0.49288  1.0000
  C   C1495     1.0  0.82543  0.74603  0.47000  1.0000
  C   C1496     1.0  0.80304  0.74770  0.45970  1.0000
  C   C1497     1.0  0.80870  0.77514  0.45068  1.0000
  C   C1498     1.0  0.83674  0.80103  0.45202  1.0000
  C   C1499     1.0  0.85926  0.79943  0.46224  1.0000
  C   C1500     1.0  0.88271  0.73613  0.48329  1.0000
  C   C1501     1.0  0.89195  0.72410  0.49887  1.0000
  C   C1502     1.0  0.89673  0.69999  0.49565  1.0000
  C   C1503     1.0  0.89306  0.68822  0.47674  1.0000
  C   C1504     1.0  0.88422  0.70032  0.46110  1.0000
  C   C1505     1.0  0.87888  0.72406  0.46437  1.0000
  H   H1186     1.0  0.82486  0.72983  0.55246  1.0000
  H   H1187     1.0  0.83697  0.78008  0.56346  1.0000
  H   H1188     1.0  0.86908  0.82582  0.54132  1.0000
  H   H1189     1.0  0.88890  0.82162  0.50799  1.0000
  H   H1190     1.0  0.84388  0.72507  0.51911  1.0000
  H   H1191     1.0  0.91325  0.79163  0.44695  1.0000
  C   C1506     1.0  0.84775  0.90542  0.39220  1.0000
  H   H1192     1.0  0.93313  0.81054  0.50876  1.0000
  H   H1193     1.0  0.82059  0.72464  0.47709  1.0000
  H   H1194     1.0  0.78143  0.72751  0.45849  1.0000
  H   H1195     1.0  0.79142  0.77623  0.44252  1.0000
  H   H1196     1.0  0.84101  0.82227  0.44502  1.0000
  H   H1197     1.0  0.88072  0.81975  0.46337  1.0000
  H   H1198     1.0  0.89570  0.73339  0.51346  1.0000
  H   H1199     1.0  0.90284  0.69013  0.50794  1.0000
  C   C1507     1.0  0.75960  0.77099  0.60289  1.0000
  C   C1508     1.0  0.78609  0.76967  0.59933  1.0000
  H   H1200     1.0  0.82034  0.64410  0.32859  1.0000
  H   H1201     1.0  0.74914  0.79079  0.63994  1.0000
  P   P48       1.0  0.71640  0.72558  0.51952  1.0000
  H   H1202     1.0  0.76031  0.79236  0.60136  1.0000
  S   S216      1.0  0.76203  0.89860  0.61637  1.0000
  H   H1203     1.0  0.87339  0.59947  0.40100  1.0000
  H   H1204     1.0  0.67316  0.90177  0.36053  1.0000
  S   S217      1.0  0.68953  0.81647  0.62907  1.0000
  H   H1205     1.0  0.80708  0.79014  0.59506  1.0000
  C   C1509     1.0  0.57197  0.71111  0.32222  1.0000
  H   H1206     1.0  0.77190  0.88219  0.38777  1.0000
  H   H1207     1.0  0.81415  0.76859  0.39848  1.0000
  H   H1208     1.0  0.70819  0.95457  0.62520  1.0000
  C   C1510     1.0  0.83413  0.84259  0.40043  1.0000
  C   C1511     1.0  0.59246  0.70114  0.32587  1.0000
  C   C1512     1.0  0.69947  0.61282  0.63149  1.0000
  S   S218      1.0  0.60754  0.80438  0.62076  1.0000
  C   C1513     1.0  0.64028  0.88735  0.61392  1.0000
  C   C1514     1.0  0.53366  0.83440  0.34644  1.0000
  C   C1515     1.0  0.96946  0.83667  0.48671  1.0000
  C   C1516     1.0  0.54491  0.69251  0.31352  1.0000
  P   P49       1.0  0.62739  0.72581  0.33700  1.0000
  C   C1517     1.0  0.69034  0.72281  0.48289  1.0000
  H   H1209     1.0  0.70584  0.60413  0.61877  1.0000
  C   C1518     1.0  0.65748  0.88565  0.33156  1.0000
  C   C1519     1.0  0.55760  0.95114  0.34406  1.0000
  S   S219      1.0  0.83188  0.67926  0.62717  1.0000
  S   S220      1.0  0.76194  0.59275  0.62842  1.0000
  C   C1520     1.0  0.81935  0.68538  0.32868  1.0000
  H   H1210     1.0  0.63586  0.91651  0.59206  1.0000
  P   P50       1.0  0.56423  0.86593  0.35770  1.0000
  H   H1211     1.0  0.95670  0.76389  0.49849  1.0000
  C   C1521     1.0  0.69384  0.91773  0.49091  1.0000
  P   P51       1.0  0.76733  0.96276  0.52442  1.0000
  H   H1212     1.0  0.77051  0.55294  0.60197  1.0000
  C   C1522     1.0  0.64219  0.93403  0.62150  1.0000
  H   H1213     1.0  0.60660  0.72309  0.42176  1.0000
  C   C1523     1.0  0.70861  0.71505  0.49385  1.0000
  S   S221      1.0  0.91593  0.69346  0.62014  1.0000
  H   H1214     1.0  0.52258  0.80206  0.37174  1.0000
  C   C1524     1.0  0.72437  0.69938  0.53294  1.0000
  H   H1215     1.0  0.69148  0.69170  0.43887  1.0000
  H   H1216     1.0  0.66949  0.90500  0.49336  1.0000
  C   C1525     1.0  0.86778  0.73124  0.32780  1.0000
  C   C1526     1.0  0.62559  0.88550  0.35930  1.0000
  C   C1527     1.0  0.68423  0.71442  0.46315  1.0000
  C   C1528     1.0  0.72182  0.70004  0.48429  1.0000
  H   H1217     1.0  0.73715  0.69491  0.49189  1.0000
  H   H1218     1.0  0.70253  0.62465  0.53655  1.0000
  C   C1529     1.0  0.75231  0.68902  0.55751  1.0000
  C   C1530     1.0  0.74849  0.97137  0.54437  1.0000
  C   C1531     1.0  0.78753  0.93960  0.55448  1.0000
  C   C1532     1.0  0.74621  0.70942  0.54726  1.0000
  C   C1533     1.0  0.92378  0.68273  0.32112  1.0000
  H   H1219     1.0  0.82493  0.72976  0.32967  1.0000
  C   C1534     1.0  0.60037  0.87232  0.34762  1.0000
  C   C1535     1.0  0.61042  0.72329  0.40567  1.0000
  C   C1536     1.0  0.95945  0.72620  0.38904  1.0000
  H   H1220     1.0  0.96011  0.70693  0.38357  1.0000
  C   C1537     1.0  0.71521  0.69123  0.46468  1.0000
  C   C1538     1.0  0.69618  0.69812  0.45419  1.0000
  C   C1539     1.0  0.71454  0.64828  0.53964  1.0000
  H   H1221     1.0  0.67054  0.72094  0.45467  1.0000
  H   H1222     1.0  0.66722  0.74160  0.37038  1.0000
  H   H1223     1.0  0.67950  0.89067  0.32549  1.0000
  H   H1224     1.0  0.75853  0.73291  0.55067  1.0000
  H   H1225     1.0  0.76088  0.90555  0.51089  1.0000
  H   H1226     1.0  0.77290  0.84338  0.62583  1.0000
  H   H1227     1.0  0.86016  0.91388  0.42293  1.0000
  C   C1540     1.0  0.94738  0.80578  0.55046  1.0000
  H   H1228     1.0  0.69831  0.93599  0.58474  1.0000
  C   C1541     1.0  0.53343  0.89720  0.35141  1.0000
  C   C1542     1.0  0.65391  0.89187  0.35134  1.0000
  C   C1543     1.0  0.73656  0.65849  0.55365  1.0000
  H   H1229     1.0  0.55603  0.97113  0.34075  1.0000
  H   H1230     1.0  0.83512  0.59590  0.32675  1.0000
  C   C1544     1.0  0.78693  0.89218  0.55375  1.0000
  C   C1545     1.0  0.76253  0.51753  0.58238  1.0000
  C   C1546     1.0  0.87184  0.63628  0.38583  1.0000
  C   C1547     1.0  0.86546  0.68276  0.32729  1.0000
  H   H1231     1.0  0.80753  0.96104  0.61605  1.0000
  H   H1232     1.0  0.79492  0.67407  0.32970  1.0000
  C   C1548     1.0  0.87531  0.61095  0.38663  1.0000
  C   C1549     1.0  0.87321  0.65067  0.36732  1.0000
  H   H1233     1.0  0.87029  0.67016  0.36707  1.0000
  H   H1234     1.0  0.88343  0.58064  0.36953  1.0000
  C   C1550     1.0  0.54962  0.86590  0.41865  1.0000
  H   H1235     1.0  0.57288  0.71012  0.36311  1.0000
  H   H1236     1.0  0.75262  0.86137  0.47073  1.0000
  C   C1551     1.0  0.75429  0.86118  0.36055  1.0000
  C   C1552     1.0  0.77047  0.90976  0.52539  1.0000
  C   C1553     1.0  0.88082  0.60032  0.36890  1.0000
  C   C1554     1.0  0.86512  0.85462  0.40284  1.0000
  C   C1555     1.0  0.88263  0.61491  0.35038  1.0000
  C   C1556     1.0  0.87814  0.63977  0.34943  1.0000
  C   C1557     1.0  0.59163  0.71603  0.37238  1.0000
  C   C1558     1.0  0.70101  0.69951  0.32988  1.0000
  H   H1237     1.0  0.77569  0.90742  0.44783  1.0000
  C   C1559     1.0  0.94098  0.70191  0.33584  1.0000
  C   C1560     1.0  0.76421  0.52945  0.60108  1.0000
  H   H1238     1.0  0.76934  0.69696  0.56843  1.0000
  P   P52       1.0  0.88326  0.66004  0.32566  1.0000
  H   H1239     1.0  0.88717  0.60661  0.33678  1.0000
  C   C1561     1.0  0.77866  0.88860  0.44428  1.0000
  C   C1562     1.0  0.76568  0.86265  0.45720  1.0000
  H   H1240     1.0  0.90138  0.84501  0.40557  1.0000
  H   H1241     1.0  0.70105  0.92803  0.52170  1.0000
  H   H1242     1.0  0.77443  0.81640  0.33592  1.0000
  H   H1243     1.0  0.73985  0.87091  0.35936  1.0000
  C   C1563     1.0  0.74342  0.94697  0.50379  1.0000
  C   C1564     1.0  0.76551  0.54180  0.33698  1.0000
  C   C1565     1.0  0.78451  0.83917  0.43441  1.0000
  C   C1566     1.0  0.64466  0.88274  0.63397  1.0000
  H   H1244     1.0  0.79193  0.80150  0.39741  1.0000
  C   C1567     1.0  0.87747  0.83567  0.40386  1.0000
  H   H1245     1.0  0.87994  0.87857  0.40370  1.0000
  C   C1568     1.0  0.77620  0.93563  0.53530  1.0000
  C   C1569     1.0  0.58798  0.92772  0.34928  1.0000
  H   H1246     1.0  0.80054  0.92060  0.57873  1.0000
  H   H1247     1.0  0.88124  0.95767  0.35273  1.0000
  P   P53       1.0  0.81805  0.86695  0.39806  1.0000
  H   H1248     1.0  0.86863  0.78992  0.40293  1.0000
  H   H1249     1.0  0.72086  0.92468  0.55556  1.0000
  C   C1570     1.0  0.82833  0.79257  0.39996  1.0000
  C   C1571     1.0  0.96952  0.76415  0.46771  1.0000
  C   C1572     1.0  0.79442  0.88982  0.42638  1.0000
  C   C1573     1.0  0.75447  0.48728  0.58128  1.0000
  H   H1250     1.0  0.63600  0.67947  0.35747  1.0000
  C   C1574     1.0  0.79279  0.91790  0.56365  1.0000
  H   H1251     1.0  0.66341  0.97987  0.47080  1.0000
  H   H1252     1.0  0.55893  0.84237  0.44226  1.0000
  C   C1575     1.0  0.85909  0.80466  0.40234  1.0000
  C   C1576     1.0  0.73843  0.93586  0.46853  1.0000
  C   C1577     1.0  0.67713  0.68420  0.34439  1.0000
  H   H1253     1.0  0.69304  0.90965  0.45942  1.0000
  H   H1254     1.0  0.53852  0.85970  0.31850  1.0000
  H   H1255     1.0  0.68519  0.63841  0.61335  1.0000
  H   H1256     1.0  0.80348  0.90984  0.41631  1.0000
  C   C1578     1.0  0.67876  0.72889  0.31824  1.0000
  C   C1579     1.0  0.75655  0.94905  0.48448  1.0000
  C   C1580     1.0  0.58532  0.67206  0.32086  1.0000
  H   H1257     1.0  0.80431  0.50893  0.63638  1.0000
  H   H1258     1.0  0.74567  0.59121  0.31795  1.0000
  C   C1581     1.0  0.60425  0.86651  0.32766  1.0000
  C   C1582     1.0  0.78579  0.95962  0.61783  1.0000
  H   H1259     1.0  0.94652  0.75031  0.46363  1.0000
  C   C1583     1.0  0.55809  0.65337  0.31224  1.0000
  H   H1260     1.0  0.71914  0.69438  0.32903  1.0000
  H   H1261     1.0  0.93799  0.61975  0.32154  1.0000
  C   C1584     1.0  0.89310  0.96560  0.38340  1.0000
  H   H1262     1.0  0.73986  0.83700  0.33373  1.0000
  H   H1263     1.0  0.84160  0.90478  0.36022  1.0000
  C   C1585     1.0  0.58229  0.79416  0.32179  1.0000
  H   H1264     1.0  0.51292  0.87557  0.35392  1.0000
  C   C1586     1.0  0.87668  0.94797  0.36802  1.0000
  C   C1587     1.0  0.55214  0.77241  0.31914  1.0000
  H   H1265     1.0  0.60619  0.97531  0.34271  1.0000
  H   H1266     1.0  0.96596  0.82927  0.43630  1.0000
  H   H1267     1.0  0.89982  0.96690  0.41506  1.0000
  H   H1268     1.0  0.77286  0.97703  0.36472  1.0000
  H   H1269     1.0  0.95106  0.64753  0.35272  1.0000
  H   H1270     1.0  0.54980  0.78961  0.63936  1.0000
  C   C1588     1.0  0.64259  0.76366  0.32588  1.0000
  C   C1589     1.0  0.97447  0.81321  0.53975  1.0000
  C   C1590     1.0  0.70163  0.72157  0.31665  1.0000
  C   C1591     1.0  0.95849  0.82574  0.45207  1.0000
  C   C1592     1.0  0.97552  0.77195  0.48756  1.0000
  H   H1271     1.0  0.71057  0.97929  0.47675  1.0000
  H   H1272     1.0  0.60063  0.66376  0.32357  1.0000
  H   H1273     1.0  0.64507  0.86247  0.63855  1.0000
  C   C1593     1.0  0.50142  0.81447  0.31855  1.0000
  C   C1594     1.0  0.75632  0.98418  0.62346  1.0000
  H   H1274     1.0  0.75953  0.52098  0.63301  1.0000
  C   C1595     1.0  0.88238  0.71437  0.32696  1.0000
  H   H1275     1.0  0.88086  0.75556  0.32797  1.0000
  H   H1276     1.0  0.52940  0.70060  0.31060  1.0000
  H   H1277     1.0  0.70335  0.48498  0.63890  1.0000
  C   C1596     1.0  0.77201  0.83876  0.64190  1.0000
  H   H1278     1.0  0.96181  0.80035  0.64052  1.0000
  H   H1279     1.0  0.47959  0.76069  0.35662  1.0000
  H   H1280     1.0  0.67081  0.65820  0.64257  1.0000
  C   C1597     1.0  0.84124  0.60471  0.31128  1.0000
  H   H1281     1.0  0.79870  0.70877  0.64284  1.0000
  H   H1282     1.0  0.58608  0.97316  0.64353  1.0000
  S   S222      1.0  0.75296  0.52375  0.71197  1.0000
  S   S223      1.0  0.54865  0.75692  0.71016  1.0000
  C   C1598     1.0  0.73024  0.76532  0.74190  1.0000
  C   C1599     1.0  0.60403  0.96232  0.66911  1.0000
  C   C1600     1.0  0.68407  0.63575  0.66445  1.0000
  H   H1283     1.0  0.67774  0.64474  0.67694  1.0000
  H   H1284     1.0  0.71028  0.51011  0.68053  1.0000
  H   H1285     1.0  0.79038  0.75424  0.73960  1.0000
  H   H1286     1.0  0.71422  0.53852  0.64854  1.0000
  C   C1601     1.0  0.72612  0.76651  0.72137  1.0000
  C   C1602     1.0  0.69279  0.62666  0.71067  1.0000
  H   H1287     1.0  0.71797  0.69639  0.72829  1.0000
  C   C1603     1.0  0.81901  0.51876  0.66610  1.0000
  C   C1604     1.0  0.64879  0.70216  0.68839  1.0000
  C   C1605     1.0  0.74203  0.71532  0.66588  1.0000
  H   H1288     1.0  0.84082  0.53771  0.66102  1.0000
  H   H1289     1.0  0.82824  0.65080  0.70275  1.0000
  H   H1290     1.0  0.72119  0.83781  0.67204  1.0000
  C   C1606     1.0  0.80469  0.64323  0.70077  1.0000
  C   C1607     1.0  0.68051  0.96160  0.71539  1.0000
  C   C1608     1.0  0.56353  0.76794  0.68481  1.0000
  C   C1609     1.0  0.59244  0.77252  0.67958  1.0000
  C   C1610     1.0  0.60584  0.78294  0.65994  1.0000
  C   C1611     1.0  0.67683  0.65636  0.73896  1.0000
  H   H1291     1.0  0.64225  0.56438  0.68329  1.0000
  C   C1612     1.0  0.54807  0.77374  0.67007  1.0000
  H   H1292     1.0  0.60458  0.76809  0.69084  1.0000
  H   H1293     1.0  0.74540  0.67774  0.65529  1.0000
  H   H1294     1.0  0.74561  0.89253  0.66239  1.0000
  H   H1295     1.0  0.52589  0.77044  0.67386  1.0000
  C   C1613     1.0  0.75564  0.54096  0.68787  1.0000
  C   C1614     1.0  0.78281  0.56702  0.68121  1.0000
  C   C1615     1.0  0.78545  0.58259  0.66274  1.0000
  C   C1616     1.0  0.66618  0.61056  0.72310  1.0000
  H   H1296     1.0  0.95617  0.77706  0.67474  1.0000
  C   C1617     1.0  0.73121  0.53028  0.67568  1.0000
  H   H1297     1.0  0.80188  0.57537  0.69048  1.0000
  C   C1618     1.0  0.78293  0.85673  0.67527  1.0000
  P   P54       1.0  0.73913  0.76419  0.68082  1.0000
  C   C1619     1.0  0.68007  0.71733  0.68982  1.0000
  H   H1298     1.0  0.64946  0.48473  0.81410  1.0000
  C   C1620     1.0  0.67769  0.83286  0.67902  1.0000
  H   H1299     1.0  0.73205  0.67055  0.70318  1.0000
  C   C1621     1.0  0.80248  0.75029  0.65175  1.0000
  C   C1622     1.0  0.69879  0.74411  0.67805  1.0000
  C   C1623     1.0  0.76829  0.75869  0.71395  1.0000
  H   H1300     1.0  0.71617  0.91820  0.66385  1.0000
  C   C1624     1.0  0.69293  0.55130  0.70670  1.0000
  C   C1625     1.0  0.78432  0.86260  0.65453  1.0000
  C   C1626     1.0  0.72207  0.88003  0.66778  1.0000
  H   H1301     1.0  0.76806  0.82299  0.69950  1.0000
  H   H1302     1.0  0.71592  0.56203  0.71107  1.0000
  C   C1627     1.0  0.63592  0.71353  0.67514  1.0000
  C   C1628     1.0  0.69665  0.61716  0.66753  1.0000
  C   C1629     1.0  0.65824  0.62543  0.73714  1.0000
  H   H1303     1.0  0.66684  0.80880  0.68258  1.0000
  C   C1630     1.0  0.74336  0.62178  0.69527  1.0000
  H   H1304     1.0  0.62804  0.78641  0.65613  1.0000
  C   C1631     1.0  0.70344  0.67248  0.72674  1.0000
  C   C1632     1.0  0.79533  0.64518  0.68169  1.0000
  C   C1633     1.0  0.70839  0.84926  0.67317  1.0000
  C   C1634     1.0  0.78366  0.48636  0.69314  1.0000
  C   C1635     1.0  0.63368  0.52110  0.69491  1.0000
  H   H1305     1.0  0.70824  0.77024  0.71650  1.0000
  C   C1636     1.0  0.70515  0.89455  0.66856  1.0000
  C   C1637     1.0  0.67428  0.87833  0.67460  1.0000
  C   C1638     1.0  0.66060  0.84719  0.67940  1.0000
  P   P55       1.0  0.65202  0.89676  0.67400  1.0000
  C   C1639     1.0  0.61498  0.87217  0.68630  1.0000
  C   C1640     1.0  0.67207  0.93189  0.68618  1.0000
  C   C1641     1.0  0.66420  0.93442  0.70613  1.0000
  C   C1642     1.0  0.68556  0.75535  0.66486  1.0000
  C   C1643     1.0  0.75627  0.80284  0.67078  1.0000
  H   H1306     1.0  0.64443  0.74853  0.65271  1.0000
  P   P56       1.0  0.70372  0.60814  0.69240  1.0000
  C   C1644     1.0  0.58879  0.86485  0.67625  1.0000
  C   C1645     1.0  0.56035  0.84394  0.68514  1.0000
  C   C1646     1.0  0.55778  0.83011  0.70407  1.0000
  C   C1647     1.0  0.58361  0.83736  0.71423  1.0000
  C   C1648     1.0  0.61208  0.85836  0.70546  1.0000
  C   C1649     1.0  0.56174  0.78471  0.65053  1.0000
  C   C1650     1.0  0.76482  0.63442  0.67887  1.0000
  H   H1307     1.0  0.61169  0.70186  0.67395  1.0000
  Fe  Fe112     1.0  0.49876  0.73464  0.72092  1.0000
  H   H1308     1.0  0.58614  0.93895  0.67073  1.0000
  H   H1309     1.0  0.73704  0.61122  0.72741  1.0000
  C   C1651     1.0  0.73354  0.54641  0.65753  1.0000
  C   C1652     1.0  0.78359  0.63104  0.71719  1.0000
  H   H1310     1.0  0.63660  0.83361  0.68296  1.0000
  H   H1311     1.0  0.64558  0.91565  0.71465  1.0000
  H   H1312     1.0  0.68962  0.70825  0.70019  1.0000
  C   C1653     1.0  0.76061  0.57274  0.65103  1.0000
  C   C1654     1.0  0.71135  0.65776  0.71258  1.0000
  C   C1655     1.0  0.64790  0.90378  0.64795  1.0000
  C   C1656     1.0  0.59075  0.78951  0.64537  1.0000
  H   H1313     1.0  0.54029  0.83752  0.67707  1.0000
  H   H1314     1.0  0.53584  0.81289  0.71059  1.0000
  H   H1315     1.0  0.58149  0.82560  0.72856  1.0000
  H   H1316     1.0  0.63190  0.86282  0.71326  1.0000
  H   H1317     1.0  0.75839  0.63574  0.66382  1.0000
  C   C1657     1.0  0.68136  0.56769  0.69695  1.0000
  C   C1658     1.0  0.75312  0.62070  0.71450  1.0000
  C   C1659     1.0  0.74499  0.76300  0.70725  1.0000
  C   C1660     1.0  0.64527  0.50509  0.70491  1.0000
  H   H1318     1.0  0.65158  0.58655  0.72217  1.0000
  C   C1661     1.0  0.47847  0.80367  0.80880  1.0000
  C   C1662     1.0  0.78732  0.71916  0.65019  1.0000
  H   H1319     1.0  0.50196  0.81147  0.81117  1.0000
  H   H1320     1.0  0.82781  0.52351  0.69746  1.0000
  H   H1321     1.0  0.80650  0.60258  0.65780  1.0000
  H   H1322     1.0  0.67068  0.66775  0.74996  1.0000
  C   C1663     1.0  0.75716  0.74662  0.66762  1.0000
  H   H1323     1.0  0.68398  0.50784  0.71836  1.0000
  C   C1664     1.0  0.78760  0.76399  0.66057  1.0000
  C   C1665     1.0  0.75836  0.80904  0.64995  1.0000
  H   H1324     1.0  0.71558  0.76804  0.75272  1.0000
  H   H1325     1.0  0.61068  0.50930  0.69047  1.0000
  H   H1326     1.0  0.64805  0.94555  0.65219  1.0000
  C   C1666     1.0  0.65165  0.55227  0.69090  1.0000
  C   C1667     1.0  0.76890  0.82695  0.68341  1.0000
  H   H1327     1.0  0.79076  0.62917  0.73196  1.0000
  H   H1328     1.0  0.81168  0.65423  0.66893  1.0000
  H   H1329     1.0  0.79995  0.78815  0.66179  1.0000
  C   C1668     1.0  0.75332  0.76081  0.74847  1.0000
  H   H1330     1.0  0.78338  0.75622  0.70341  1.0000
  S   S224      1.0  0.48095  0.74938  0.74711  1.0000
  C   C1669     1.0  0.77236  0.75756  0.73450  1.0000
  H   H1331     1.0  0.63444  0.68161  0.69756  1.0000
  H   H1332     1.0  0.75656  0.76000  0.76438  1.0000
  C   C1670     1.0  0.79794  0.50264  0.65219  1.0000
  H   H1333     1.0  0.79249  0.87530  0.68502  1.0000
  H   H1334     1.0  0.63771  0.61286  0.74675  1.0000
  H   H1335     1.0  0.71860  0.70147  0.67097  1.0000
  H   H1336     1.0  0.70314  0.95594  0.66043  1.0000
  C   C1671     1.0  0.67485  0.52021  0.71076  1.0000
  H   H1337     1.0  0.69908  0.77565  0.65545  1.0000
  C   C1672     1.0  0.75714  0.70170  0.65718  1.0000
  C   C1673     1.0  0.69644  0.95706  0.67576  1.0000
  C   C1674     1.0  0.65432  0.74002  0.66331  1.0000
  H   H1338     1.0  0.59012  0.87437  0.66128  1.0000
  H   H1339     1.0  0.62669  0.95844  0.69452  1.0000
  H   H1340     1.0  0.48105  0.79038  0.77885  1.0000
  C   C1675     1.0  0.67990  0.64331  0.64496  1.0000
  C   C1676     1.0  0.81181  0.51069  0.68659  1.0000
  H   H1341     1.0  0.67443  0.96335  0.73080  1.0000
  C   C1677     1.0  0.62697  0.97328  0.68248  1.0000
  H   H1342     1.0  0.79470  0.88562  0.64819  1.0000
  H   H1343     1.0  0.71226  0.58996  0.65307  1.0000
  C   C1678     1.0  0.60404  0.98158  0.65378  1.0000
  C   C1679     1.0  0.70334  0.60499  0.65095  1.0000
  H   H1344     1.0  0.82561  0.76383  0.64564  1.0000
  C   C1680     1.0  0.71269  0.98409  0.68502  1.0000
