data_image0
_chemical_formula_structural       FeSCFeS2CFeSHSFeS2FeS2FeSFeS3FeSCFeS2FeSFeS2FeS2FeS2FeSFeS3C6H4C6H4C6H2CHC6H5PCHC2HC3H4SH4C3H2CHCHC6PC19H18C5PC3HC12H14C7HCHCH2CH2CH2CHCHC2H2CH2C2H3C2H2C5HFeH2C3HSHC3HCHCH3C3HCHCHC6PC4H2C12H6C2H18C3HC2PC11H2C5HSC3H6CHC8HCHC2H2CH5C5H2CHCH2C2H3CH3C2HCH2C2HC3H2PCHC2H7CH3C2HC2H3C6FeS2H2SC3H2CHFeS2FeS2FeSFeHS2FeS2CSFeSFeS3C4H3C6H4C3H2C6H7CFeSH3C7H3C6PC18H21CHC3PC10HC7HC2H9CH9SH3C2H4CHC3HC2H4CHC2HCH3C2PHCHC6H2C9HCH4C5H4CH2FeCH2C3H3C3H2CHC3HC2HC3H2C2HC2HCS4C2FeS2FeS2FeHFeS3FeS2FeS2FeSFeCS2C6H4SC2H2C3HFeC4HCH2CH3C5H3C6H4C6H5C5PC7HC5H2C2H3C2H3CHPH2CH2CH2CFeCH3CHC6H3C2HCH3C2HC2SC3H2CH2FeH2CHCHC6HC6H2FeHCHC2H3C3H2CHC2H3CH2SC2HPCH4CHC3HCH2C2H2SH2C2HCH2C2HCH2CHFeHC2H2C3H3SH3PHC4HC4PHFeHSCH4C2HCFeS2FeSHFeSFeS3FeHSFeS2FeCFeS2FeS2FeSCFeSFeS3FeSFeS2FeHFeS3C6H4C5SH3C7H4C6H4CHC3H2C3PH2C2HSHC4HC3HSC3HC4HPCH2SC2H2C5H4CH4C2H2CHC2H2C3HPHCHCHCHC2HC3PC3H2C5HC7HC2H3CHCH4CH3CH2C2PC18H7CH6C3HCHCH2CH3CH2C2SHC2H2CHC2HCH8CH2CPC2H2CHC3HCH3CHC4HCHC3HCH2CHCPHC2H2C7HC9HSC2HC2HCHCHCH3C4HSCH4C2HCH2C2HCHCHCHCHCHCHCH2C2HC8H6C2H2CHC2H6CH2C3H2C4H2C2H3CH2C3HFeS2C4Fe2CS2HCHFeS2HCFeSHSFeS2FeS2FeSFeS3FeS2FeS2FeSFeS3C6H4CHC2HC7H4CHC4HCH2C6H5CH6C2HC3HCHSCH3C3HCHPH2CFeHCHCHC2H6C4PC9H2C9H2CH6C3H3C7HC2HCHCH2C2H2C7HCHCH2PHC2HCHC4SCHC9H3CH4CHC2HC3PCHCFeHPHCH4C3H2CHCHCHC2HCHC4HC6PH2CH2C3HC3H2C2HCH3C2H2CHCHC2HCHC2HCHCH2C3HCH3CH3C3PCHC2HCH2C3H2CH6C2H2CHCH3SH4CHCPC2HC2H3CFeS2H2CFeS2FeSHFeS2FeS2FeSFeS3FeS2FeS2FeSFeS3HCH2CH2CH2FeCHCHC3HC2SHC6H4C2HCH3CH4PC8H6CHC3H2C6H4C3H2CPC4H2CHC8HCSC3HC6H2CHCHC4HCHCH2C8H3CH3CH3C2H2C2H3CH5CH2CH2C2HCH2CFeC3HSC2HCHC2HC4PC17H15C2PHC3H3C2SCHC3FeCHCHCSHCH5C3FeC2H2C2HC2HC4H5SC6SH2CH2CH3CH2SCHCHC10H2CH2PC2HCHFeSC2HCH2CH2C2H2C2HCH3C3HC2H3CH3CHC2SHPCFeS2FeS2FeSFeS3FeS2FeS2FeSFeS3PCHCH6CHC6H4C6H4C6H5CHC3HPH2C2HC3HCH2C6H4C6H5C2PHC8HCHC6HC2HCHCH2C2H8C2H2CH4C3H2CHCHC2HCHC4H4CHC6PC18H8SH12SCH2C7PH2C3HC2HCSHSH3CSH2C8SHCHCH3C3H4C3HC5HC4HC5H2C2HCHSH3CH5C2H4C2H2C4HPC2HCH8C2HCHC3H2CHC2HC3PC9HC2FeHCH2CH3C2HSH4C3HCHCH4CHC2H4CHC5H2CHC8HFeC2FeS2FeS2FeSFeS3FeS2FeS2FeSFeCS2C6H4C6H4C6H3C6H5CHC9H7CH3CSHSHC3H2C2HC4PHC7H2C2H4C2HCH3CH2PH4CH3C4PC2H3C2H2SHCH3C3HCH2C2H2CH4SHC6H2C2HCHC2HCH2C3HC2HCH2C5HC2HCPHCHC3HC3HC3PHC3HC2H2C4HC2HC2HCHCH3C2H2CHC4HCH7CH4CHC2H2CHCH2CHC2H3C5H3C2HC2SHS2HC3HCH2CH3C3HCHCSFeS2FeSFeSCSH2SCFeSFeSCSC2SFeSFeSCH3SC3FeSHCH2C6H2C2H2C2HC2HC6H4CHCFeC2HCH3CHC9H2CHC4FeH4C7H4CH3C6PC8H2C4FeH3CH6CHC6PC18H20C3HCHC2H2C2HSC2H3CHCSPC4HS2C4HC2H2C3HSCHC3HPH2SC2H3PC2H2C6H3CH3FeH2C2H2SFeCHFeHC2HC4HC3H3C2HCSHC3HC3SH2S2H3C3HSHC3HC5SFeH2CPHC3PHCHCH3CHCFeC4H2C2HC3H4C3H2CHC2HCH2CH3SHC2HCHCHCS2FeS2FeS2FeSFeS3FeS2FeS2FeSFeS3CHC7H4C6H4C6HCH2C6H4C6H4C2HC7H5CH2C6H5C6PCHC3H4CH2CHC2HC4HCH3CHPC2H2C2HC3HCH2C2HC4HC2SH3CPHCFeCHCHC6H2C2H2C2H5CH6C2H4CH2CHC2H2CHCHC2HPC2HC5HCHC3H2SH2CPC2HSH3C4H2FeHC3H2CHCH4C2HC8HC5HC2H2C2H2CH2CHC2HC2SCHC3HCHCHC3HCH2C4H4C3H2C2SC2PC3H2CHC4HC4H2CPHC2SC2HC3FeCHCH3CHCSH3PC2HC2HC2HCH2CHC3H2FeCH2CHC5SHC4HC2HCHCHCH2CHPH3CHCH2CH2C2H2CH4CH2CPHCHC6SH2CHCHC2H3C3HCHCHCH3C4HCH3CFeH2CH5CHC4FeS2HCHCHCSC4HC2HFeSHSFeS2FeS2FeSFeS3FeS2FeS2FeSFeS3C3H2C3H2C6H4C2HC2H2C3H2C6H6C4SHCH2CHSC8H4CHC2HC9H2C6H2CH2C2HPH2C2H3CH3C4HCHCH2CH2PC3HC9SHC4HCHCH2C2H6C2H4PC6H6CH3CH2C2H3CPCH2C3H5C8PC2HCH2C2HC3HC2H5CHC2HCH2C4HCHPHC4HC2HC4H2SH2CH3CHC2HCH2C4H2CH2C3H2C2HC2HC2H5C3HCH2CH2CHC4H2PC2HC3HC4HC5HCHCH2C2HC3HFeHC3H4CHC3H2CHCHCSC2HC2H2C2HCHC2HC3HCHPHPH3CHC3HC2HC10H5CHCSC2H2CHSH3CHC2HCFeS2FeSCFeSFeS3HSCHSHFeSFeHSHFeS2FeS2FeSFeS3FeS2FeCHFeSHCS3HCH2C4H2PC6H5C5H4C3HC4HCH2C6H4C6H6C6HC3H6CH3FeHCPCHCHC4HC2HCHCHCH2CHC2HCHC4H2C6PC18H21C2PC8HPHCHCH6CHCHC2H3CHCH2CH2CHC3H2C2H2C3H2C2HCPHCHCHCHCH2C3PC2SC3HC2HSHCH2C8HCHCHCH2CH5CH2C4HCH2FeHC6HC2H4CHC4H2C12HCHCHCH2C3H5C2H3C2
_chemical_formula_sum              "Fe160 S320 C2400 H1920 P80"
_cell_length_a       81.6428
_cell_length_b       81.4876
_cell_length_c       37.7661
_cell_angle_alpha    88.705
_cell_angle_beta     88.7772
_cell_angle_gamma    79.2412

_space_group_name_H-M_alt    "P 1"
_space_group_IT_number       1

loop_
  _space_group_symop_operation_xyz
  'x, y, z'

loop_
  _atom_site_type_symbol
  _atom_site_label
  _atom_site_symmetry_multiplicity
  _atom_site_fract_x
  _atom_site_fract_y
  _atom_site_fract_z
  _atom_site_occupancy
  Fe  Fe1       1.0  0.04564  0.22397  0.68072  1.0000
  S   S1        1.0  0.05490  0.20035  0.71260  1.0000
  C   C1        1.0  0.10803  0.06536  0.34061  1.0000
  Fe  Fe2       1.0  0.04254  0.20366  0.61376  1.0000
  S   S2        1.0  0.05110  0.17914  0.64169  1.0000
  S   S3        1.0  0.03278  0.20083  0.55917  1.0000
  C   C2        1.0  0.13191  0.14330  0.52823  1.0000
  Fe  Fe3       1.0  0.07078  0.19128  0.66459  1.0000
  S   S4        1.0  0.09827  0.17824  0.66030  1.0000
  H   H1        1.0  0.08553  0.16215  0.37524  1.0000
  S   S5        1.0  0.06297  0.21577  0.63412  1.0000
  Fe  Fe4       1.0  0.19368  0.07794  0.68923  1.0000
  S   S6        1.0  0.17143  0.06599  0.70274  1.0000
  S   S7        1.0  0.21243  0.07703  0.73378  1.0000
  Fe  Fe5       1.0  0.18191  0.08572  0.61346  1.0000
  S   S8        1.0  0.15960  0.07358  0.62100  1.0000
  S   S9        1.0  0.18610  0.09898  0.56181  1.0000
  Fe  Fe6       1.0  0.15615  0.08759  0.67213  1.0000
  S   S10       1.0  0.13005  0.10111  0.68886  1.0000
  Fe  Fe7       1.0  0.17670  0.05322  0.65050  1.0000
  S   S11       1.0  0.18135  0.02536  0.63864  1.0000
  S   S12       1.0  0.17782  0.10058  0.66341  1.0000
  S   S13       1.0  0.19954  0.06434  0.63832  1.0000
  Fe  Fe8       1.0  0.04380  0.22015  0.28681  1.0000
  S   S14       1.0  0.03401  0.19615  0.28086  1.0000
  C   C3        1.0  0.09511  0.23622  0.36174  1.0000
  Fe  Fe9       1.0  0.05168  0.21204  0.36464  1.0000
  S   S15       1.0  0.04217  0.18790  0.36449  1.0000
  S   S16       1.0  0.06225  0.22247  0.41245  1.0000
  Fe  Fe10      1.0  0.05647  0.18356  0.31261  1.0000
  S   S17       1.0  0.07165  0.15722  0.30078  1.0000
  Fe  Fe11      1.0  0.03439  0.19010  0.68633  1.0000
  S   S18       1.0  0.06707  0.20708  0.31447  1.0000
  S   S19       1.0  0.02948  0.22674  0.33721  1.0000
  Fe  Fe12      1.0  0.19711  0.06932  0.29974  1.0000
  S   S20       1.0  0.17302  0.07392  0.26971  1.0000
  S   S21       1.0  0.22256  0.06222  0.27061  1.0000
  Fe  Fe13      1.0  0.17791  0.06677  0.37027  1.0000
  S   S22       1.0  0.15269  0.07140  0.34515  1.0000
  S   S23       1.0  0.17973  0.05653  0.42637  1.0000
  Fe  Fe14      1.0  0.16520  0.05356  0.30395  1.0000
  S   S24       1.0  0.15458  0.03229  0.28043  1.0000
  Fe  Fe15      1.0  0.16220  0.09153  0.31344  1.0000
  S   S25       1.0  0.14803  0.11867  0.30501  1.0000
  S   S26       1.0  0.18970  0.04784  0.33079  1.0000
  S   S27       1.0  0.18699  0.08804  0.34181  1.0000
  C   C4        1.0  0.09293  0.14675  0.30464  1.0000
  C   C5        1.0  0.10598  0.15508  0.31196  1.0000
  C   C6        1.0  0.12265  0.14623  0.31268  1.0000
  C   C7        1.0  0.12657  0.12888  0.30684  1.0000
  C   C8        1.0  0.11344  0.12049  0.30073  1.0000
  C   C9        1.0  0.09686  0.12942  0.29895  1.0000
  H   H2        1.0  0.10328  0.16839  0.31637  1.0000
  H   H3        1.0  0.13263  0.15293  0.31738  1.0000
  H   H4        1.0  0.11609  0.10720  0.29637  1.0000
  H   H5        1.0  0.08696  0.12291  0.29259  1.0000
  C   C10       1.0  0.18524  0.08693  0.52413  1.0000
  C   C11       1.0  0.18784  0.09356  0.49031  1.0000
  C   C12       1.0  0.18608  0.08445  0.45985  1.0000
  C   C13       1.0  0.18211  0.06853  0.46333  1.0000
  C   C14       1.0  0.18000  0.06175  0.49720  1.0000
  C   C15       1.0  0.18144  0.07095  0.52752  1.0000
  H   H6        1.0  0.19095  0.10587  0.48761  1.0000
  H   H7        1.0  0.18786  0.08968  0.43377  1.0000
  H   H8        1.0  0.17731  0.04930  0.50002  1.0000
  H   H9        1.0  0.17975  0.06561  0.55350  1.0000
  C   C16       1.0  0.04189  0.20661  0.51927  1.0000
  C   C17       1.0  0.03579  0.20182  0.48748  1.0000
  C   C18       1.0  0.04183  0.20687  0.45481  1.0000
  C   C19       1.0  0.05421  0.21660  0.45355  1.0000
  C   C20       1.0  0.06049  0.22131  0.48536  1.0000
  C   C21       1.0  0.05441  0.21624  0.51827  1.0000
  H   H10       1.0  0.06228  0.03893  0.51816  1.0000
  H   H11       1.0  0.03666  0.20340  0.43066  1.0000
  C   C22       1.0  0.19512  0.02687  0.23727  1.0000
  H   H12       1.0  0.17335  0.21061  0.20477  1.0000
  C   C23       1.0  0.10677  0.15668  0.66795  1.0000
  C   C24       1.0  0.12252  0.14985  0.65325  1.0000
  C   C25       1.0  0.12979  0.13288  0.65907  1.0000
  C   C26       1.0  0.12156  0.12260  0.68043  1.0000
  C   C27       1.0  0.10597  0.12951  0.69556  1.0000
  C   C28       1.0  0.09851  0.14635  0.68904  1.0000
  H   H13       1.0  0.12910  0.15774  0.63712  1.0000
  H   H14       1.0  0.14187  0.12784  0.64751  1.0000
  H   H15       1.0  0.09972  0.12181  0.71287  1.0000
  H   H16       1.0  0.08652  0.15145  0.70094  1.0000
  H   H17       1.0  0.10941  0.14239  0.40008  1.0000
  P   P1        1.0  0.10542  0.17011  0.51680  1.0000
  C   C29       1.0  0.19317  0.01325  0.41485  1.0000
  H   H18       1.0  0.21670  0.02474  0.65785  1.0000
  C   C30       1.0  0.23646  0.03479  0.68129  1.0000
  C   C31       1.0  0.15432  0.01324  0.30410  1.0000
  H   H19       1.0  0.08924  0.13762  0.62017  1.0000
  C   C32       1.0  0.03277  0.20310  0.81633  1.0000
  C   C33       1.0  0.20943  0.99798  0.24320  1.0000
  C   C34       1.0  0.06815  0.14789  0.58828  1.0000
  H   H20       1.0  0.23689  0.07968  0.67647  1.0000
  H   H21       1.0  0.07440  0.23148  0.19835  1.0000
  H   H22       1.0  0.21123  0.11951  0.57797  1.0000
  H   H23       1.0  0.06414  0.06823  0.50199  1.0000
  S   S28       1.0  0.02448  0.21372  0.65707  1.0000
  H   H24       1.0  0.06544  0.18166  0.21362  1.0000
  H   H25       1.0  0.13320  0.00532  0.60081  1.0000
  H   H26       1.0  0.06905  0.17263  0.51541  1.0000
  H   H27       1.0  0.12322  0.20193  0.20179  1.0000
  C   C35       1.0  0.14879  0.20463  0.20166  1.0000
  C   C36       1.0  0.22152  0.02184  0.76453  1.0000
  C   C37       1.0  0.12287  0.05425  0.68813  1.0000
  H   H28       1.0  0.05203  0.10549  0.46753  1.0000
  H   H29       1.0  0.20667  0.12891  0.79820  1.0000
  C   C38       1.0  0.09485  0.05191  0.70677  1.0000
  H   H30       1.0  0.15117  0.99744  0.38779  1.0000
  C   C39       1.0  0.10493  0.20396  0.50176  1.0000
  H   H31       1.0  0.12293  0.13520  0.52528  1.0000
  C   C40       1.0  0.14633  0.15483  0.22312  1.0000
  C   C41       1.0  0.12913  0.15816  0.22963  1.0000
  C   C42       1.0  0.11940  0.14662  0.22012  1.0000
  C   C43       1.0  0.12690  0.13159  0.20466  1.0000
  C   C44       1.0  0.14426  0.12784  0.19929  1.0000
  C   C45       1.0  0.15386  0.13982  0.20753  1.0000
  P   P2        1.0  0.15369  0.10853  0.17859  1.0000
  C   C46       1.0  0.17584  0.10322  0.18611  1.0000
  C   C47       1.0  0.14536  0.09101  0.19651  1.0000
  C   C48       1.0  0.14812  0.07586  0.17837  1.0000
  C   C49       1.0  0.14217  0.06204  0.19256  1.0000
  C   C50       1.0  0.13359  0.06321  0.22508  1.0000
  C   C51       1.0  0.13116  0.07810  0.24371  1.0000
  C   C52       1.0  0.13710  0.09193  0.22959  1.0000
  C   C53       1.0  0.18217  0.10554  0.21954  1.0000
  C   C54       1.0  0.19926  0.10094  0.22574  1.0000
  C   C55       1.0  0.21011  0.09390  0.19873  1.0000
  C   C56       1.0  0.20386  0.09117  0.16568  1.0000
  C   C57       1.0  0.18677  0.09565  0.15944  1.0000
  C   C58       1.0  0.14940  0.11179  0.13206  1.0000
  C   C59       1.0  0.13602  0.10598  0.11702  1.0000
  C   C60       1.0  0.13262  0.10886  0.08103  1.0000
  C   C61       1.0  0.14239  0.11773  0.05997  1.0000
  C   C62       1.0  0.15548  0.12389  0.07497  1.0000
  C   C63       1.0  0.15890  0.12106  0.11096  1.0000
  C   C64       1.0  0.09981  0.16776  0.47128  1.0000
  H   H32       1.0  0.10609  0.14909  0.22554  1.0000
  H   H33       1.0  0.11917  0.12277  0.19753  1.0000
  H   H34       1.0  0.16716  0.13758  0.20236  1.0000
  H   H35       1.0  0.15506  0.07466  0.15351  1.0000
  H   H36       1.0  0.14450  0.05028  0.17882  1.0000
  H   H37       1.0  0.12929  0.05238  0.23641  1.0000
  H   H38       1.0  0.12517  0.07874  0.26963  1.0000
  H   H39       1.0  0.13574  0.10309  0.24511  1.0000
  H   H40       1.0  0.17388  0.11060  0.24108  1.0000
  H   H41       1.0  0.20410  0.10247  0.25173  1.0000
  H   H42       1.0  0.22334  0.09027  0.20360  1.0000
  H   H43       1.0  0.21230  0.08537  0.14510  1.0000
  H   H44       1.0  0.18214  0.09299  0.13397  1.0000
  H   H45       1.0  0.12812  0.09935  0.13305  1.0000
  H   H46       1.0  0.12234  0.10425  0.06948  1.0000
  H   H47       1.0  0.13974  0.11993  0.03207  1.0000
  H   H48       1.0  0.16296  0.13090  0.05871  1.0000
  H   H49       1.0  0.16896  0.12607  0.12234  1.0000
  C   C65       1.0  0.07388  0.03955  0.56871  1.0000
  C   C66       1.0  0.06883  0.06292  0.52719  1.0000
  C   C67       1.0  0.07599  0.07254  0.55051  1.0000
  C   C68       1.0  0.08173  0.06589  0.58359  1.0000
  C   C69       1.0  0.08085  0.04921  0.59231  1.0000
  P   P3        1.0  0.09097  0.07860  0.61320  1.0000
  C   C70       1.0  0.07572  0.09592  0.62977  1.0000
  C   C71       1.0  0.09938  0.06660  0.65170  1.0000
  C   C72       1.0  0.11661  0.06323  0.65784  1.0000
  H   H50       1.0  0.09525  0.21726  0.59908  1.0000
  C   C73       1.0  0.08852  0.06105  0.67667  1.0000
  C   C74       1.0  0.05977  0.10025  0.61508  1.0000
  C   C75       1.0  0.04790  0.11311  0.62959  1.0000
  C   C76       1.0  0.05180  0.12171  0.65891  1.0000
  C   C77       1.0  0.06759  0.11748  0.67369  1.0000
  C   C78       1.0  0.07948  0.10460  0.65936  1.0000
  C   C79       1.0  0.10792  0.08536  0.58908  1.0000
  C   C80       1.0  0.11279  0.10052  0.59668  1.0000
  C   C81       1.0  0.12713  0.10462  0.58064  1.0000
  C   C82       1.0  0.13668  0.09362  0.55697  1.0000
  C   C83       1.0  0.13183  0.07860  0.54903  1.0000
  C   C84       1.0  0.11755  0.07445  0.56506  1.0000
  H   H51       1.0  0.07699  0.08522  0.54290  1.0000
  H   H52       1.0  0.08562  0.04351  0.61705  1.0000
  H   H53       1.0  0.12530  0.06780  0.63992  1.0000
  H   H54       1.0  0.07516  0.06383  0.67284  1.0000
  H   H55       1.0  0.05622  0.09363  0.59294  1.0000
  H   H56       1.0  0.03559  0.11639  0.61831  1.0000
  H   H57       1.0  0.04261  0.13171  0.67015  1.0000
  H   H58       1.0  0.07054  0.12416  0.69650  1.0000
  H   H59       1.0  0.09158  0.10128  0.67161  1.0000
  H   H60       1.0  0.10610  0.10881  0.61623  1.0000
  H   H61       1.0  0.13128  0.11592  0.58807  1.0000
  H   H62       1.0  0.14833  0.09622  0.54610  1.0000
  H   H63       1.0  0.13959  0.06987  0.53159  1.0000
  H   H64       1.0  0.11447  0.06239  0.55989  1.0000
  C   C85       1.0  0.13188  0.20949  0.21051  1.0000
  C   C86       1.0  0.19884  0.00473  0.73419  1.0000
  C   C87       1.0  0.15347  0.01270  0.34110  1.0000
  C   C88       1.0  0.23707  0.12433  0.73393  1.0000
  C   C89       1.0  0.23252  0.11864  0.80645  1.0000
  C   C90       1.0  0.16025  0.21436  0.21172  1.0000
  C   C91       1.0  0.23104  0.01840  0.30996  1.0000
  H   H65       1.0  0.11694  0.04152  0.73592  1.0000
  C   C92       1.0  0.18437  0.99511  0.47402  1.0000
  H   H66       1.0  0.23447  0.09360  0.28397  1.0000
  C   C93       1.0  0.19496  0.01021  0.24681  1.0000
  H   H67       1.0  0.17832  0.02055  0.52414  1.0000
  H   H68       1.0  0.09210  0.07396  0.29664  1.0000
  C   C94       1.0  0.06899  0.20683  0.20230  1.0000
  H   H69       1.0  0.08994  0.17485  0.25210  1.0000
  H   H70       1.0  0.13614  0.05204  0.69300  1.0000
  C   C95       1.0  0.09777  0.21361  0.57180  1.0000
  H   H71       1.0  0.07107  0.18574  0.41101  1.0000
  H   H72       1.0  0.15388  0.16372  0.23075  1.0000
  C   C96       1.0  0.17073  0.00893  0.65121  1.0000
  H   H73       1.0  0.18599  0.02893  0.71673  1.0000
  C   C97       1.0  0.16022  0.14644  0.54027  1.0000
  H   H74       1.0  0.23032  0.02855  0.77610  1.0000
  C   C98       1.0  0.08141  0.17698  0.42202  1.0000
  C   C99       1.0  0.13788  0.23393  0.23934  1.0000
  H   H75       1.0  0.99853  0.14948  0.72935  1.0000
  H   H76       1.0  0.09741  0.18783  0.58343  1.0000
  C   C100      1.0  0.22385  0.00443  0.76780  1.0000
  H   H77       1.0  0.22053  0.02792  0.30232  1.0000
  H   H78       1.0  0.02800  0.21725  0.86406  1.0000
  C   C101      1.0  0.23434  0.07637  0.73287  1.0000
  C   C102      1.0  0.15434  0.99846  0.28546  1.0000
  H   H79       1.0  0.08644  0.04760  0.72590  1.0000
  H   H80       1.0  0.18389  0.03624  0.24014  1.0000
  H   H81       1.0  0.04342  0.24067  0.78025  1.0000
  C   C103      1.0  0.15551  0.16374  0.53639  1.0000
  C   C104      1.0  0.09101  0.16095  0.54448  1.0000
  H   H82       1.0  0.11851  0.14560  0.46118  1.0000
  H   H83       1.0  0.16463  0.17166  0.53962  1.0000
  C   C105      1.0  0.08964  0.16373  0.40186  1.0000
  C   C106      1.0  0.15478  0.22904  0.23043  1.0000
  C   C107      1.0  0.24294  0.07433  0.76503  1.0000
  C   C108      1.0  0.14574  0.02506  0.58267  1.0000
  C   C109      1.0  0.20247  0.13944  0.61428  1.0000
  H   H84       1.0  0.13871  0.03427  0.60015  1.0000
  Fe  Fe16      1.0  0.02067  0.20222  0.33322  1.0000
  H   H85       1.0  0.20605  0.04415  0.74374  1.0000
  H   H86       1.0  0.16703  0.02354  0.41146  1.0000
  C   C110      1.0  0.22098  0.12817  0.74913  1.0000
  C   C111      1.0  0.07388  0.16441  0.53713  1.0000
  C   C112      1.0  0.23627  0.00525  0.67701  1.0000
  H   H87       1.0  0.15316  0.02403  0.35563  1.0000
  S   S29       1.0  0.04138  0.23849  0.23920  1.0000
  H   H88       1.0  0.05924  0.14340  0.60578  1.0000
  C   C113      1.0  0.10816  0.15449  0.45072  1.0000
  C   C114      1.0  0.01097  0.20837  0.77273  1.0000
  C   C115      1.0  0.00114  0.21985  0.79517  1.0000
  H   H89       1.0  0.15231  0.12293  0.53962  1.0000
  C   C116      1.0  0.13898  0.17087  0.52877  1.0000
  H   H90       1.0  0.10933  0.14943  0.58273  1.0000
  C   C117      1.0  0.09587  0.07673  0.32286  1.0000
  H   H91       1.0  0.21837  0.00081  0.42443  1.0000
  H   H92       1.0  0.20978  0.04438  0.21646  1.0000
  H   H93       1.0  0.15483  0.99874  0.25681  1.0000
  C   C118      1.0  0.08507  0.14467  0.59635  1.0000
  C   C119      1.0  0.14845  0.13627  0.53621  1.0000
  C   C120      1.0  0.15849  0.02925  0.56106  1.0000
  H   H94       1.0  0.04929  0.16126  0.55384  1.0000
  C   C121      1.0  0.07322  0.19087  0.21757  1.0000
  H   H95       1.0  0.11385  0.05382  0.32806  1.0000
  C   C122      1.0  0.22877  0.02186  0.67035  1.0000
  H   H96       1.0  0.19423  0.15650  0.65624  1.0000
  C   C123      1.0  0.06470  0.10661  0.47345  1.0000
  C   C124      1.0  0.06766  0.11688  0.50084  1.0000
  C   C125      1.0  0.08398  0.11827  0.50858  1.0000
  C   C126      1.0  0.09733  0.10975  0.48845  1.0000
  C   C127      1.0  0.09448  0.09981  0.46010  1.0000
  C   C128      1.0  0.07805  0.09793  0.45345  1.0000
  P   P4        1.0  0.11185  0.08843  0.43470  1.0000
  C   C129      1.0  0.11943  0.06891  0.45767  1.0000
  C   C130      1.0  0.10561  0.08392  0.39083  1.0000
  C   C131      1.0  0.09372  0.09548  0.37237  1.0000
  C   C132      1.0  0.08865  0.09173  0.33882  1.0000
  H   H97       1.0  0.04494  0.19652  0.82437  1.0000
  H   H98       1.0  0.18340  0.00684  0.25609  1.0000
  C   C133      1.0  0.11281  0.06887  0.37455  1.0000
  C   C134      1.0  0.13628  0.06130  0.45478  1.0000
  C   C135      1.0  0.14200  0.04588  0.47149  1.0000
  C   C136      1.0  0.13093  0.03783  0.49083  1.0000
  C   C137      1.0  0.11410  0.04525  0.49356  1.0000
  C   C138      1.0  0.10835  0.06072  0.47697  1.0000
  C   C139      1.0  0.12794  0.10096  0.43086  1.0000
  C   C140      1.0  0.13852  0.10162  0.45936  1.0000
  C   C141      1.0  0.15012  0.11223  0.45785  1.0000
  C   C142      1.0  0.15164  0.12193  0.42752  1.0000
  C   C143      1.0  0.14141  0.12113  0.39876  1.0000
  C   C144      1.0  0.12961  0.11067  0.40025  1.0000
  H   H99       1.0  0.05732  0.12376  0.51610  1.0000
  H   H100      1.0  0.08629  0.12603  0.53011  1.0000
  H   H101      1.0  0.10981  0.11102  0.49522  1.0000
  H   H102      1.0  0.07550  0.08984  0.43273  1.0000
  H   H103      1.0  0.08836  0.10741  0.38378  1.0000
  H   H104      1.0  0.07920  0.10053  0.32507  1.0000
  C   C145      1.0  0.22421  0.01943  0.22029  1.0000
  C   C146      1.0  0.20784  0.03067  0.74629  1.0000
  H   H105      1.0  0.12230  0.05986  0.38765  1.0000
  H   H106      1.0  0.14496  0.06714  0.43914  1.0000
  H   H107      1.0  0.15505  0.04016  0.46904  1.0000
  H   H108      1.0  0.13536  0.02577  0.50336  1.0000
  H   H109      1.0  0.10550  0.03892  0.50829  1.0000
  H   H110      1.0  0.09526  0.06613  0.47875  1.0000
  H   H111      1.0  0.13781  0.09395  0.48279  1.0000
  H   H112      1.0  0.15814  0.11275  0.47999  1.0000
  H   H113      1.0  0.16088  0.12991  0.42610  1.0000
  H   H114      1.0  0.14268  0.12865  0.37524  1.0000
  H   H115      1.0  0.12186  0.11033  0.37750  1.0000
  H   H116      1.0  0.17298  0.14082  0.54657  1.0000
  H   H117      1.0  0.21789  0.10676  0.68816  1.0000
  H   H118      1.0  0.20047  0.20740  0.74258  1.0000
  H   H119      1.0  0.00771  0.22831  0.26104  1.0000
  H   H120      1.0  0.12648  0.22195  0.30340  1.0000
  H   H121      1.0  0.12340  0.16953  0.24263  1.0000
  H   H122      1.0  0.19653  0.02076  0.39278  1.0000
  C   C147      1.0  0.09982  0.22557  0.54581  1.0000
  C   C148      1.0  0.08642  0.17898  0.45650  1.0000
  C   C149      1.0  0.17647  0.01485  0.42548  1.0000
  H   H123      1.0  0.05779  0.21010  0.18681  1.0000
  C   C150      1.0  0.12698  0.16072  0.52486  1.0000
  C   C151      1.0  0.19655  0.02211  0.73107  1.0000
  P   P5        1.0  0.20347  0.13784  0.72270  1.0000
  C   C152      1.0  0.20215  0.15995  0.72849  1.0000
  C   C153      1.0  0.18422  0.13124  0.73521  1.0000
  C   C154      1.0  0.16892  0.14089  0.72482  1.0000
  C   C155      1.0  0.15400  0.13532  0.73242  1.0000
  C   C156      1.0  0.15429  0.11988  0.74947  1.0000
  C   C157      1.0  0.16949  0.11007  0.75929  1.0000
  C   C158      1.0  0.18440  0.11573  0.75224  1.0000
  C   C159      1.0  0.19081  0.16867  0.75308  1.0000
  C   C160      1.0  0.19014  0.18575  0.75792  1.0000
  C   C161      1.0  0.20096  0.19417  0.73871  1.0000
  C   C162      1.0  0.24077  0.07018  0.25722  1.0000
  H   H124      1.0  0.16365  0.23668  0.23791  1.0000
  H   H125      1.0  0.23080  0.11635  0.83452  1.0000
  C   C163      1.0  0.24325  0.07831  0.70146  1.0000
  C   C164      1.0  0.09664  0.19912  0.24600  1.0000
  C   C165      1.0  0.06254  0.15789  0.55892  1.0000
  C   C166      1.0  0.15640  0.01134  0.67289  1.0000
  C   C167      1.0  0.20686  0.13250  0.67672  1.0000
  H   H126      1.0  0.15150  0.02360  0.68300  1.0000
  S   S30       1.0  0.01797  0.17392  0.71398  1.0000
  C   C168      1.0  0.10347  0.22073  0.51083  1.0000
  C   C169      1.0  0.09262  0.21512  0.23036  1.0000
  C   C170      1.0  0.20970  0.03145  0.22382  1.0000
  H   H127      1.0  0.16850  0.15257  0.71033  1.0000
  H   H128      1.0  0.14221  0.14277  0.72430  1.0000
  H   H129      1.0  0.14276  0.11534  0.75424  1.0000
  H   H130      1.0  0.16979  0.09787  0.77158  1.0000
  H   H131      1.0  0.19604  0.10776  0.75922  1.0000
  H   H132      1.0  0.18258  0.16228  0.76876  1.0000
  C   C171      1.0  0.00736  0.22292  0.82835  1.0000
  H   H133      1.0  0.07967  0.18925  0.47169  1.0000
  C   C172      1.0  0.21325  0.16840  0.70990  1.0000
  C   C173      1.0  0.12635  0.22406  0.22992  1.0000
  C   C174      1.0  0.17205  0.00574  0.45477  1.0000
  C   C175      1.0  0.22411  0.00279  0.23000  1.0000
  C   C176      1.0  0.21886  0.12560  0.78570  1.0000
  C   C177      1.0  0.02656  0.19982  0.78363  1.0000
  C   C178      1.0  0.06778  0.04643  0.53628  1.0000
  C   C179      1.0  0.11202  0.04848  0.71246  1.0000
  H   H134      1.0  0.07319  0.02671  0.57565  1.0000
  C   C180      1.0  0.10235  0.19196  0.52757  1.0000
  H   H135      1.0  0.23620  0.07280  0.78948  1.0000
  C   C181      1.0  0.10305  0.15254  0.41609  1.0000
  C   C182      1.0  0.09646  0.15133  0.57482  1.0000
  H   H136      1.0  0.10802  0.20042  0.47463  1.0000
  H   H137      1.0  0.22116  0.09877  0.62529  1.0000
  C   C183      1.0  0.09899  0.19688  0.56277  1.0000
  H   H138      1.0  0.13565  0.18433  0.52632  1.0000
  H   H139      1.0  0.02611  0.19437  0.48807  1.0000
  H   H140      1.0  0.22248  0.16176  0.69173  1.0000
  H   H141      1.0  0.19765  0.14833  0.59358  1.0000
  H   H142      1.0  0.15301  0.19337  0.18674  1.0000
  C   C184      1.0  0.02320  0.21471  0.83865  1.0000
  C   C185      1.0  0.20067  0.14405  0.64982  1.0000
  C   C186      1.0  0.21257  0.18548  0.71484  1.0000
  C   C187      1.0  0.21405  0.11610  0.66766  1.0000
  C   C188      1.0  0.99695  0.22645  0.46784  1.0000
  H   H143      1.0  0.05919  0.21999  0.54272  1.0000
  H   H144      1.0  0.10687  0.19616  0.26424  1.0000
  C   C189      1.0  0.08706  0.18702  0.23932  1.0000
  H   H145      1.0  0.07000  0.22892  0.48455  1.0000
  C   C190      1.0  0.21014  0.12322  0.60545  1.0000
  H   H146      1.0  0.16128  0.04173  0.56170  1.0000
  H   H147      1.0  0.22112  0.19195  0.70032  1.0000
  C   C191      1.0  0.21583  0.11153  0.63214  1.0000
  C   C192      1.0  0.10136  0.23349  0.28853  1.0000
  H   H148      1.0  0.09859  0.23856  0.55286  1.0000
  H   H149      1.0  0.03374  0.19042  0.76681  1.0000
  H   H150      1.0  0.00642  0.20569  0.74716  1.0000
  C   C193      1.0  0.07857  0.21896  0.20881  1.0000
  H   H151      1.0  0.18128  0.19245  0.77675  1.0000
  H   H152      1.0  0.00297  0.21679  0.52046  1.0000
  H   H153      1.0  0.23032  0.04768  0.67758  1.0000
  C   C194      1.0  0.14836  0.99779  0.68137  1.0000
  C   C195      1.0  0.22881  0.00565  0.33383  1.0000
  H   H154      1.0  0.15906  0.00722  0.46285  1.0000
  C   C196      1.0  0.16823  0.01712  0.54001  1.0000
  H   H155      1.0  0.18960  0.99851  0.72297  1.0000
  H   H156      1.0  0.00464  0.24073  0.73313  1.0000
  C   C197      1.0  0.14266  0.00876  0.58304  1.0000
  C   C198      1.0  0.08537  0.24024  0.30153  1.0000
  H   H157      1.0  0.23559  0.02306  0.21029  1.0000
  C   C199      1.0  0.16534  0.00063  0.54040  1.0000
  C   C200      1.0  0.20544  0.00212  0.43289  1.0000
  C   C201      1.0  0.99694  0.23703  0.27062  1.0000
  H   H158      1.0  0.23918  0.12657  0.70601  1.0000
  H   H159      1.0  0.10505  0.23000  0.49066  1.0000
  P   P6        1.0  0.10459  0.23074  0.24146  1.0000
  C   C202      1.0  0.11105  0.22927  0.34906  1.0000
  H   H160      1.0  0.12087  0.22469  0.36760  1.0000
  C   C203      1.0  0.99620  0.17468  0.70917  1.0000
  C   C204      1.0  0.11419  0.22783  0.31256  1.0000
  H   H161      1.0  0.19964  0.00147  0.55874  1.0000
  H   H162      1.0  0.05738  0.23166  0.97007  1.0000
  H   H163      1.0  0.21655  0.00540  0.34507  1.0000
  H   H164      1.0  0.13724  0.99975  0.69799  1.0000
  H   H165      1.0  0.10072  0.23880  0.16603  1.0000
  H   H166      1.0  0.00013  0.23161  0.84642  1.0000
  H   H167      1.0  0.07517  0.24384  0.28339  1.0000
  C   C205      1.0  0.15238  0.99660  0.56201  1.0000
  H   H168      1.0  0.00891  0.23017  0.46322  1.0000
  H   H169      1.0  0.00051  0.24073  0.17271  1.0000
  H   H170      1.0  0.23436  0.99805  0.78264  1.0000
  C   C206      1.0  0.15228  0.99764  0.35920  1.0000
  C   C207      1.0  0.08228  0.24173  0.33797  1.0000
  H   H171      1.0  0.09251  0.23692  0.39001  1.0000
  C   C208      1.0  0.21255  0.99566  0.75252  1.0000
  C   C209      1.0  0.24351  0.08588  0.26714  1.0000
  H   H172      1.0  0.22992  0.99529  0.66980  1.0000
  H   H173      1.0  0.19097  0.99502  0.31165  1.0000
  H   H174      1.0  0.00871  0.46762  0.77528  1.0000
  C   C210      1.0  0.00646  0.42579  0.82719  1.0000
  C   C211      1.0  0.99623  0.49293  0.76610  1.0000
  C   C212      1.0  0.02769  0.27417  0.35804  1.0000
  C   C213      1.0  0.00053  0.30307  0.19977  1.0000
  C   C214      1.0  0.04208  0.24880  0.80291  1.0000
  C   C215      1.0  0.04203  0.26804  0.20279  1.0000
  Fe  Fe17      1.0  0.04672  0.48750  0.25649  1.0000
  S   S31       1.0  0.05697  0.46752  0.21574  1.0000
  S   S32       1.0  0.02806  0.48336  0.29843  1.0000
  H   H175      1.0  0.00004  0.35442  0.27356  1.0000
  H   H176      1.0  0.01202  0.27288  0.85211  1.0000
  S   S33       1.0  0.04896  0.45656  0.65830  1.0000
  C   C216      1.0  0.04671  0.48638  0.46340  1.0000
  C   C217      1.0  0.01257  0.30139  0.31628  1.0000
  C   C218      1.0  0.03495  0.28837  0.35458  1.0000
  H   H177      1.0  0.00737  0.26250  0.34395  1.0000
  H   H178      1.0  0.00189  0.44132  0.16585  1.0000
  C   C219      1.0  0.99696  0.44196  0.82383  1.0000
  H   H179      1.0  0.06979  0.24654  0.34792  1.0000
  Fe  Fe18      1.0  0.03809  0.37305  0.17234  1.0000
  S   S34       1.0  0.02578  0.37246  0.11960  1.0000
  S   S35       1.0  0.03570  0.39588  0.20819  1.0000
  Fe  Fe19      1.0  0.04401  0.33400  0.18077  1.0000
  S   S36       1.0  0.03232  0.33084  0.12862  1.0000
  S   S37       1.0  0.05264  0.31404  0.22366  1.0000
  Fe  Fe20      1.0  0.04612  0.35052  0.10717  1.0000
  S   S38       1.0  0.05921  0.34698  0.05299  1.0000
  Fe  Fe21      1.0  0.01306  0.35289  0.14458  1.0000
  H   H180      1.0  0.06619  0.44030  0.16696  1.0000
  S   S39       1.0  0.05962  0.35221  0.15865  1.0000
  S   S40       1.0  0.02361  0.35484  0.19794  1.0000
  Fe  Fe22      1.0  0.02580  0.35578  0.85052  1.0000
  S   S41       1.0  0.05016  0.35637  0.82223  1.0000
  S   S42       1.0  0.01824  0.35669  0.90924  1.0000
  C   C220      1.0  0.99695  0.45027  0.28666  1.0000
  S   S43       1.0  0.03012  0.35981  0.74671  1.0000
  Fe  Fe23      1.0  0.04201  0.33870  0.78316  1.0000
  S   S44       1.0  0.05908  0.31518  0.76215  1.0000
  Fe  Fe24      1.0  0.03611  0.37733  0.78778  1.0000
  S   S45       1.0  0.04109  0.40410  0.78329  1.0000
  S   S46       1.0  0.01865  0.33682  0.81403  1.0000
  S   S47       1.0  0.01232  0.37759  0.81874  1.0000
  C   C221      1.0  0.05935  0.26953  0.71841  1.0000
  C   C222      1.0  0.06412  0.28418  0.73087  1.0000
  C   C223      1.0  0.05247  0.29681  0.74728  1.0000
  C   C224      1.0  0.03600  0.29443  0.75172  1.0000
  H   H181      1.0  0.09487  0.26593  0.26384  1.0000
  H   H182      1.0  0.07692  0.28579  0.72744  1.0000
  H   H183      1.0  0.02692  0.30386  0.76472  1.0000
  C   C225      1.0  0.04780  0.34955  0.01305  1.0000
  C   C226      1.0  0.05629  0.34684  0.98023  1.0000
  C   C227      1.0  0.04752  0.34894  0.94808  1.0000
  C   C228      1.0  0.03016  0.35383  0.94850  1.0000
  C   C229      1.0  0.02175  0.35655  0.98130  1.0000
  C   C230      1.0  0.03045  0.35437  0.01336  1.0000
  H   H184      1.0  0.06973  0.34324  0.97970  1.0000
  H   H185      1.0  0.05416  0.34699  0.92301  1.0000
  H   H186      1.0  0.00839  0.36037  0.98201  1.0000
  H   H187      1.0  0.02372  0.35648  0.03834  1.0000
  C   C231      1.0  0.04849  0.29337  0.22772  1.0000
  C   C232      1.0  0.04426  0.28475  0.19866  1.0000
  C   C233      1.0  0.05036  0.28505  0.26087  1.0000
  H   H188      1.0  0.04307  0.29085  0.17286  1.0000
  H   H189      1.0  0.05388  0.29149  0.28338  1.0000
  C   C234      1.0  0.04140  0.41842  0.74701  1.0000
  C   C235      1.0  0.04708  0.41315  0.71320  1.0000
  C   C236      1.0  0.04916  0.42501  0.68641  1.0000
  C   C237      1.0  0.04532  0.44228  0.69279  1.0000
  C   C238      1.0  0.03910  0.44757  0.72629  1.0000
  C   C239      1.0  0.03728  0.43570  0.75325  1.0000
  H   H190      1.0  0.05039  0.39994  0.70798  1.0000
  H   H191      1.0  0.05394  0.42076  0.66061  1.0000
  H   H192      1.0  0.03607  0.46079  0.73161  1.0000
  H   H193      1.0  0.03288  0.43991  0.77930  1.0000
  H   H194      1.0  0.01208  0.30365  0.18557  1.0000
  H   H195      1.0  0.05140  0.47308  0.46250  1.0000
  H   H196      1.0  0.00561  0.45537  0.26971  1.0000
  C   C240      1.0  0.09177  0.48348  0.48876  1.0000
  Fe  Fe25      1.0  0.00738  0.35885  0.78032  1.0000
  S   S48       1.0  0.03570  0.24929  0.70708  1.0000
  H   H197      1.0  0.12499  0.48353  0.50822  1.0000
  H   H198      1.0  0.00376  0.42046  0.20724  1.0000
  H   H199      1.0  0.00366  0.24845  0.66975  1.0000
  C   C241      1.0  0.00060  0.44767  0.32257  1.0000
  C   C242      1.0  0.05020  0.44805  0.21203  1.0000
  C   C243      1.0  0.03841  0.44338  0.23559  1.0000
  C   C244      1.0  0.03391  0.42756  0.23339  1.0000
  C   C245      1.0  0.04101  0.41616  0.20735  1.0000
  C   C246      1.0  0.05245  0.42099  0.18297  1.0000
  C   C247      1.0  0.05706  0.43683  0.18542  1.0000
  H   H200      1.0  0.03331  0.45175  0.25641  1.0000
  H   H201      1.0  0.02520  0.42397  0.25265  1.0000
  H   H202      1.0  0.05808  0.41239  0.16283  1.0000
  C   C248      1.0  0.07685  0.36647  0.74430  1.0000
  C   C249      1.0  0.08202  0.34979  0.75479  1.0000
  C   C250      1.0  0.08982  0.34591  0.78729  1.0000
  C   C251      1.0  0.09244  0.35873  0.80935  1.0000
  C   C252      1.0  0.08753  0.37554  0.79872  1.0000
  C   C253      1.0  0.07960  0.37930  0.76609  1.0000
  P   P7        1.0  0.09091  0.39187  0.82786  1.0000
  C   C254      1.0  0.08033  0.38870  0.86934  1.0000
  C   C255      1.0  0.11288  0.39140  0.83396  1.0000
  C   C256      1.0  0.11787  0.40396  0.85371  1.0000
  C   C257      1.0  0.13480  0.40407  0.85831  1.0000
  C   C258      1.0  0.14688  0.39174  0.84292  1.0000
  C   C259      1.0  0.14203  0.37935  0.82272  1.0000
  C   C260      1.0  0.12510  0.37921  0.81806  1.0000
  C   C261      1.0  0.06326  0.38807  0.86942  1.0000
  C   C262      1.0  0.05484  0.38542  0.90106  1.0000
  C   C263      1.0  0.06340  0.38347  0.93296  1.0000
  C   C264      1.0  0.08044  0.38383  0.93314  1.0000
  C   C265      1.0  0.08893  0.38635  0.90146  1.0000
  C   C266      1.0  0.08314  0.41240  0.80916  1.0000
  C   C267      1.0  0.09009  0.41730  0.77718  1.0000
  C   C268      1.0  0.08465  0.43330  0.76275  1.0000
  C   C269      1.0  0.07253  0.44467  0.78059  1.0000
  C   C270      1.0  0.06574  0.44002  0.81273  1.0000
  C   C271      1.0  0.07098  0.42394  0.82699  1.0000
  H   H203      1.0  0.07042  0.36948  0.71952  1.0000
  H   H204      1.0  0.07963  0.33986  0.73810  1.0000
  H   H205      1.0  0.09343  0.33295  0.79562  1.0000
  H   H206      1.0  0.09816  0.35555  0.83481  1.0000
  H   H207      1.0  0.07512  0.39207  0.75760  1.0000
  H   H208      1.0  0.10862  0.41370  0.86551  1.0000
  H   H209      1.0  0.13855  0.41378  0.87366  1.0000
  H   H210      1.0  0.16000  0.39186  0.84640  1.0000
  H   H211      1.0  0.15141  0.36991  0.81043  1.0000
  H   H212      1.0  0.12171  0.36970  0.80170  1.0000
  H   H213      1.0  0.05649  0.38958  0.84492  1.0000
  H   H214      1.0  0.04172  0.38464  0.90082  1.0000
  H   H215      1.0  0.05686  0.38141  0.95751  1.0000
  H   H216      1.0  0.08707  0.38200  0.95791  1.0000
  H   H217      1.0  0.10216  0.38629  0.90228  1.0000
  H   H218      1.0  0.09958  0.40865  0.76313  1.0000
  H   H219      1.0  0.08964  0.43685  0.73749  1.0000
  H   H220      1.0  0.06814  0.45697  0.76902  1.0000
  H   H221      1.0  0.05610  0.44875  0.82614  1.0000
  H   H222      1.0  0.06539  0.42062  0.85168  1.0000
  H   H223      1.0  0.01538  0.25440  0.80069  1.0000
  C   C272      1.0  0.02443  0.26702  0.84378  1.0000
  H   H224      1.0  0.03900  0.26144  0.18002  1.0000
  C   C273      1.0  0.01072  0.39733  0.29693  1.0000
  C   C274      1.0  0.02246  0.38266  0.30305  1.0000
  C   C275      1.0  0.01833  0.36715  0.29514  1.0000
  P   P8        1.0  0.04197  0.38338  0.32424  1.0000
  C   C276      1.0  0.03913  0.38171  0.37170  1.0000
  C   C277      1.0  0.05746  0.36598  0.30905  1.0000
  C   C278      1.0  0.05799  0.36141  0.27335  1.0000
  C   C279      1.0  0.06936  0.34749  0.26173  1.0000
  C   C280      1.0  0.08037  0.33809  0.28550  1.0000
  C   C281      1.0  0.08015  0.34270  0.32095  1.0000
  C   C282      1.0  0.06875  0.35660  0.33274  1.0000
  C   C283      1.0  0.05012  0.38750  0.39444  1.0000
  C   C284      1.0  0.04797  0.38631  0.43118  1.0000
  C   C285      1.0  0.03492  0.37922  0.44551  1.0000
  H   H225      1.0  0.01848  0.31386  0.03560  1.0000
  C   C286      1.0  0.02611  0.37450  0.38631  1.0000
  C   C287      1.0  0.04898  0.40280  0.31399  1.0000
  C   C288      1.0  0.04261  0.41720  0.33341  1.0000
  C   C289      1.0  0.04892  0.43189  0.32762  1.0000
  C   C290      1.0  0.06150  0.43238  0.30218  1.0000
  C   C291      1.0  0.06766  0.41824  0.28226  1.0000
  C   C292      1.0  0.06142  0.40352  0.28802  1.0000
  H   H226      1.0  0.15522  0.47899  0.51821  1.0000
  C   C293      1.0  0.09416  0.26546  0.23535  1.0000
  C   C294      1.0  0.04844  0.25400  0.93923  1.0000
  H   H227      1.0  0.04649  0.28878  0.36788  1.0000
  H   H228      1.0  0.02700  0.35560  0.30017  1.0000
  H   H229      1.0  0.04948  0.36847  0.25451  1.0000
  H   H230      1.0  0.06944  0.34383  0.23432  1.0000
  H   H231      1.0  0.08901  0.32719  0.27634  1.0000
  H   H232      1.0  0.08876  0.33543  0.33933  1.0000
  H   H233      1.0  0.06874  0.35985  0.36033  1.0000
  H   H234      1.0  0.06037  0.39294  0.38377  1.0000
  H   H235      1.0  0.05643  0.39091  0.44856  1.0000
  C   C295      1.0  0.05621  0.25199  0.81959  1.0000
  H   H236      1.0  0.01394  0.36774  0.43421  1.0000
  H   H237      1.0  0.01017  0.32233  0.97394  1.0000
  H   H238      1.0  0.03288  0.41704  0.35328  1.0000
  H   H239      1.0  0.04407  0.44298  0.34269  1.0000
  H   H240      1.0  0.06609  0.44389  0.29702  1.0000
  H   H241      1.0  0.07692  0.41889  0.26152  1.0000
  H   H242      1.0  0.06619  0.39289  0.27173  1.0000
  H   H243      1.0  0.02340  0.45606  0.14200  1.0000
  H   H244      1.0  0.01197  0.43607  0.67134  1.0000
  S   S49       1.0  0.04783  0.48514  0.39052  1.0000
  H   H245      1.0  0.09631  0.48810  0.46403  1.0000
  H   H246      1.0  0.02470  0.40907  0.85745  1.0000
  H   H247      1.0  0.99849  0.32190  0.08552  1.0000
  C   C296      1.0  0.00268  0.28807  0.91536  1.0000
  C   C297      1.0  0.00087  0.29627  0.23416  1.0000
  H   H248      1.0  0.01347  0.40941  0.30307  1.0000
  H   H249      1.0  0.01753  0.36980  0.36947  1.0000
  H   H250      1.0  0.03327  0.37831  0.47400  1.0000
  H   H251      1.0  0.07587  0.45025  0.52102  1.0000
  C   C298      1.0  0.04386  0.25974  0.23599  1.0000
  H   H252      1.0  0.08649  0.46130  0.46496  1.0000
  C   C299      1.0  0.00363  0.41432  0.69319  1.0000
  C   C300      1.0  0.05451  0.26259  0.84859  1.0000
  C   C301      1.0  0.03126  0.27977  0.73944  1.0000
  H   H253      1.0  0.01280  0.29105  0.24562  1.0000
  C   C302      1.0  0.02402  0.37328  0.42308  1.0000
  C   C303      1.0  0.01474  0.46180  0.16226  1.0000
  H   H254      1.0  0.99607  0.49122  0.32921  1.0000
  H   H255      1.0  0.02704  0.43000  0.90286  1.0000
  H   H256      1.0  0.01857  0.27799  0.74343  1.0000
  H   H257      1.0  0.06849  0.24644  0.80960  1.0000
  C   C304      1.0  0.09231  0.26536  0.16151  1.0000
  H   H258      1.0  0.06843  0.26005  0.70557  1.0000
  C   C305      1.0  0.04281  0.26730  0.72236  1.0000
  C   C306      1.0  0.04776  0.26847  0.26517  1.0000
  H   H259      1.0  0.00916  0.40626  0.67202  1.0000
  C   C307      1.0  0.08038  0.46195  0.52077  1.0000
  H   H260      1.0  0.07518  0.46623  0.57638  1.0000
  H   H261      1.0  0.08383  0.29202  0.16517  1.0000
  H   H262      1.0  0.09150  0.26537  0.13292  1.0000
  C   C308      1.0  0.00507  0.48481  0.20138  1.0000
  C   C309      1.0  0.08537  0.48626  0.55147  1.0000
  P   P9        1.0  0.03670  0.28319  0.89961  1.0000
  H   H263      1.0  0.00988  0.25764  0.27045  1.0000
  C   C310      1.0  0.04012  0.27071  0.93988  1.0000
  H   H264      1.0  0.08594  0.29212  0.23030  1.0000
  C   C311      1.0  0.03860  0.27008  0.86114  1.0000
  C   C312      1.0  0.04513  0.25169  0.00300  1.0000
  C   C313      1.0  0.03684  0.26831  0.00387  1.0000
  C   C314      1.0  0.03432  0.27779  0.97247  1.0000
  C   C315      1.0  0.01290  0.27354  0.34056  1.0000
  C   C316      1.0  0.00270  0.45328  0.17659  1.0000
  H   H265      1.0  0.05728  0.29671  0.95122  1.0000
  H   H266      1.0  0.00170  0.30450  0.72054  1.0000
  C   C317      1.0  0.99673  0.47593  0.77337  1.0000
  C   C318      1.0  0.05176  0.29685  0.89520  1.0000
  C   C319      1.0  0.05987  0.30128  0.92501  1.0000
  C   C320      1.0  0.07143  0.31191  0.92130  1.0000
  C   C321      1.0  0.07487  0.31833  0.88794  1.0000
  C   C322      1.0  0.06681  0.31406  0.85821  1.0000
  C   C323      1.0  0.05527  0.30340  0.86173  1.0000
  C   C324      1.0  0.08925  0.28043  0.21639  1.0000
  C   C325      1.0  0.02734  0.30201  0.33387  1.0000
  H   H267      1.0  0.03303  0.31297  0.33093  1.0000
  C   C326      1.0  0.99528  0.39647  0.28240  1.0000
  H   H268      1.0  0.00683  0.31205  0.30032  1.0000
  H   H269      1.0  0.03241  0.27389  0.02892  1.0000
  H   H270      1.0  0.02795  0.29069  0.97365  1.0000
  H   H271      1.0  0.02294  0.31888  0.88543  1.0000
  C   C327      1.0  0.00609  0.32083  0.03043  1.0000
  C   C328      1.0  0.09742  0.25035  0.18036  1.0000
  C   C329      1.0  0.01596  0.29553  0.90295  1.0000
  C   C330      1.0  0.00541  0.28702  0.31898  1.0000
  C   C331      1.0  0.99834  0.45376  0.84963  1.0000
  H   H272      1.0  0.07750  0.31541  0.94447  1.0000
  H   H273      1.0  0.08362  0.32679  0.88516  1.0000
  H   H274      1.0  0.06942  0.31910  0.83236  1.0000
  H   H275      1.0  0.04903  0.30042  0.83829  1.0000
  C   C332      1.0  0.01295  0.31262  0.89418  1.0000
  H   H276      1.0  0.00478  0.27492  0.92265  1.0000
  H   H277      1.0  0.06562  0.26500  0.86112  1.0000
  Fe  Fe26      1.0  0.04192  0.48518  0.65403  1.0000
  C   C333      1.0  0.08638  0.46816  0.48925  1.0000
  H   H278      1.0  0.00260  0.39261  0.18480  1.0000
  H   H279      1.0  0.04718  0.48714  0.52071  1.0000
  C   C334      1.0  0.08810  0.28038  0.17957  1.0000
  C   C335      1.0  0.01722  0.42153  0.85561  1.0000
  C   C336      1.0  0.00520  0.43111  0.69281  1.0000
  H   H280      1.0  0.00593  0.41642  0.80769  1.0000
  H   H281      1.0  0.05304  0.24819  0.91460  1.0000
  H   H282      1.0  0.01178  0.45107  0.33279  1.0000
  C   C337      1.0  0.07996  0.47096  0.55192  1.0000
  C   C338      1.0  0.01859  0.43335  0.88103  1.0000
  C   C339      1.0  0.99685  0.32200  0.89699  1.0000
  H   H283      1.0  0.04891  0.26242  0.29101  1.0000
  H   H284      1.0  0.03354  0.26359  0.37420  1.0000
  C   C340      1.0  0.99814  0.25366  0.27616  1.0000
  H   H285      1.0  0.99701  0.49160  0.67325  1.0000
  C   C341      1.0  0.01606  0.47747  0.17494  1.0000
  C   C342      1.0  0.02623  0.25647  0.81468  1.0000
  C   C343      1.0  0.99509  0.40790  0.72112  1.0000
  H   H286      1.0  0.02579  0.48380  0.16470  1.0000
  C   C344      1.0  0.00142  0.32563  0.99577  1.0000
  C   C345      1.0  0.99861  0.44141  0.72077  1.0000
  H   H287      1.0  0.01026  0.45867  0.89769  1.0000
  C   C346      1.0  0.09798  0.25023  0.21751  1.0000
  C   C347      1.0  0.00294  0.36639  0.28039  1.0000
  C   C348      1.0  0.00913  0.44948  0.87806  1.0000
  H   H288      1.0  0.00040  0.45421  0.72006  1.0000
  H   H289      1.0  0.13378  0.24541  0.25361  1.0000
  C   C349      1.0  0.99487  0.32540  0.05854  1.0000
  C   C350      1.0  0.14751  0.49098  0.52414  1.0000
  H   H290      1.0  0.08499  0.49299  0.57583  1.0000
  C   C351      1.0  0.13033  0.49361  0.51854  1.0000
  C   C352      1.0  0.09098  0.49283  0.51977  1.0000
  H   H291      1.0  0.04711  0.24436  0.02738  1.0000
  C   C353      1.0  0.05092  0.24454  0.97071  1.0000
  S   S50       1.0  0.05484  0.54935  0.27520  1.0000
  S   S51       1.0  0.02744  0.52212  0.32300  1.0000
  S   S52       1.0  0.03000  0.53319  0.63549  1.0000
  S   S53       1.0  0.06528  0.53383  0.70603  1.0000
  C   C354      1.0  0.00191  0.67381  0.01342  1.0000
  C   C355      1.0  0.02580  0.55225  0.81747  1.0000
  Fe  Fe27      1.0  0.04364  0.63539  0.15570  1.0000
  S   S54       1.0  0.02496  0.64810  0.11604  1.0000
  S   S55       1.0  0.04507  0.60693  0.15541  1.0000
  Fe  Fe28      1.0  0.05051  0.66966  0.18004  1.0000
  S   S56       1.0  0.03237  0.68403  0.14186  1.0000
  S   S57       1.0  0.06181  0.68252  0.22450  1.0000
  Fe  Fe29      1.0  0.01602  0.66607  0.15894  1.0000
  H   H292      1.0  0.06714  0.74307  0.68571  1.0000
  Fe  Fe30      1.0  0.04317  0.66462  0.10161  1.0000
  S   S58       1.0  0.04347  0.67364  0.04377  1.0000
  S   S59       1.0  0.03327  0.65260  0.19952  1.0000
  S   S60       1.0  0.06282  0.65112  0.13873  1.0000
  Fe  Fe31      1.0  0.05690  0.63153  0.77939  1.0000
  S   S61       1.0  0.04696  0.63278  0.83478  1.0000
  S   S62       1.0  0.05091  0.61206  0.74083  1.0000
  Fe  Fe32      1.0  0.06241  0.66828  0.78174  1.0000
  S   S63       1.0  0.05178  0.67197  0.83699  1.0000
  S   S64       1.0  0.06836  0.68744  0.74016  1.0000
  Fe  Fe33      1.0  0.06692  0.64660  0.84852  1.0000
  S   S65       1.0  0.07769  0.63945  0.90318  1.0000
  Fe  Fe34      1.0  0.02988  0.65866  0.82245  1.0000
  C   C356      1.0  0.00896  0.70155  0.32409  1.0000
  S   S66       1.0  0.07890  0.64327  0.79353  1.0000
  S   S67       1.0  0.04130  0.65638  0.76514  1.0000
  C   C357      1.0  0.05248  0.66301  0.00539  1.0000
  C   C358      1.0  0.04684  0.66924  0.97189  1.0000
  C   C359      1.0  0.05415  0.66189  0.94056  1.0000
  C   C360      1.0  0.06745  0.64833  0.94223  1.0000
  C   C361      1.0  0.07303  0.64197  0.97571  1.0000
  C   C362      1.0  0.06555  0.64921  0.00716  1.0000
  H   H293      1.0  0.03692  0.67998  0.97011  1.0000
  H   H294      1.0  0.04983  0.66700  0.91510  1.0000
  H   H295      1.0  0.08341  0.63158  0.97723  1.0000
  H   H296      1.0  0.07023  0.64450  0.03269  1.0000
  S   S68       1.0  0.03239  0.51261  0.23833  1.0000
  C   C363      1.0  0.04336  0.49555  0.43150  1.0000
  C   C364      1.0  0.09521  0.61059  0.05933  1.0000
  H   H297      1.0  0.12010  0.53398  0.54542  1.0000
  H   H298      1.0  0.08986  0.53131  0.64347  1.0000
  C   C365      1.0  0.05446  0.73350  0.21166  1.0000
  C   C366      1.0  0.08092  0.62296  0.25661  1.0000
  C   C367      1.0  0.07279  0.53699  0.54796  1.0000
  H   H299      1.0  0.10044  0.54602  0.25077  1.0000
  Fe  Fe35      1.0  0.04610  0.52412  0.27913  1.0000
  C   C368      1.0  0.05921  0.70445  0.23228  1.0000
  C   C369      1.0  0.05494  0.71640  0.20521  1.0000
  C   C370      1.0  0.99705  0.57816  0.34457  1.0000
  C   C371      1.0  0.01184  0.74081  0.35900  1.0000
  H   H300      1.0  0.99835  0.61216  0.98294  1.0000
  C   C372      1.0  0.06216  0.70997  0.26627  1.0000
  H   H301      1.0  0.05267  0.71241  0.17894  1.0000
  H   H302      1.0  0.05283  0.55501  0.57049  1.0000
  C   C373      1.0  0.08852  0.60955  0.23584  1.0000
  H   H303      1.0  0.06542  0.70088  0.28747  1.0000
  H   H304      1.0  0.00771  0.49762  0.76175  1.0000
  H   H305      1.0  0.06799  0.71848  0.91156  1.0000
  C   C374      1.0  0.07319  0.71652  0.77294  1.0000
  C   C375      1.0  0.06962  0.70901  0.74180  1.0000
  C   C376      1.0  0.06755  0.71876  0.71039  1.0000
  C   C377      1.0  0.01417  0.72276  0.71793  1.0000
  C   C378      1.0  0.07461  0.73355  0.77262  1.0000
  H   H306      1.0  0.07536  0.70900  0.79692  1.0000
  H   H307      1.0  0.06505  0.71304  0.68598  1.0000
  H   H308      1.0  0.08076  0.53635  0.21083  1.0000
  C   C379      1.0  0.06031  0.55542  0.71737  1.0000
  C   C380      1.0  0.06968  0.56155  0.74326  1.0000
  C   C381      1.0  0.06670  0.57871  0.75169  1.0000
  C   C382      1.0  0.05443  0.59003  0.73392  1.0000
  C   C383      1.0  0.04484  0.58382  0.70860  1.0000
  C   C384      1.0  0.04767  0.56667  0.70051  1.0000
  H   H309      1.0  0.07949  0.55302  0.75652  1.0000
  H   H310      1.0  0.07423  0.58323  0.77113  1.0000
  H   H311      1.0  0.03526  0.59240  0.69474  1.0000
  H   H312      1.0  0.04027  0.56223  0.68069  1.0000
  C   C385      1.0  0.05002  0.56585  0.24305  1.0000
  C   C386      1.0  0.04348  0.56341  0.21005  1.0000
  C   C387      1.0  0.04146  0.57632  0.18400  1.0000
  C   C388      1.0  0.04568  0.59193  0.19074  1.0000
  C   C389      1.0  0.05151  0.59462  0.22426  1.0000
  C   C390      1.0  0.05387  0.58160  0.25007  1.0000
  H   H313      1.0  0.04072  0.55133  0.20403  1.0000
  H   H314      1.0  0.03697  0.57406  0.15817  1.0000
  H   H315      1.0  0.05465  0.60659  0.22986  1.0000
  H   H316      1.0  0.05896  0.58365  0.27545  1.0000
  H   H317      1.0  0.04701  0.72449  0.40475  1.0000
  C   C391      1.0  0.01198  0.64458  0.83161  1.0000
  C   C392      1.0  0.01677  0.65220  0.86538  1.0000
  C   C393      1.0  0.01824  0.67043  0.86566  1.0000
  C   C394      1.0  0.01487  0.68136  0.83226  1.0000
  C   C395      1.0  0.01019  0.67355  0.79864  1.0000
  P   P10       1.0  0.01319  0.70396  0.83404  1.0000
  C   C396      1.0  0.05782  0.73900  0.24539  1.0000
  C   C397      1.0  0.03029  0.70923  0.85879  1.0000
  C   C398      1.0  0.04247  0.71697  0.84195  1.0000
  C   C399      1.0  0.15475  0.50377  0.53744  1.0000
  C   C400      1.0  0.05735  0.71617  0.89704  1.0000
  C   C401      1.0  0.04521  0.70875  0.91415  1.0000
  C   C402      1.0  0.03170  0.70544  0.89522  1.0000
  H   H318      1.0  0.00456  0.70177  0.35138  1.0000
  C   C403      1.0  0.09686  0.62901  0.19272  1.0000
  C   C404      1.0  0.01248  0.55867  0.76075  1.0000
  C   C405      1.0  0.01379  0.71191  0.78900  1.0000
  C   C406      1.0  0.02655  0.70463  0.76564  1.0000
  C   C407      1.0  0.02672  0.71004  0.73029  1.0000
  H   H319      1.0  0.02281  0.64004  0.99356  1.0000
  H   H320      1.0  0.12046  0.59843  0.04794  1.0000
  C   C408      1.0  0.04336  0.59459  0.86271  1.0000
  C   C409      1.0  0.07071  0.54455  0.60982  1.0000
  H   H321      1.0  0.07203  0.55231  0.15563  1.0000
  H   H322      1.0  0.01871  0.64473  0.88947  1.0000
  H   H323      1.0  0.02095  0.67547  0.89039  1.0000
  C   C410      1.0  0.00899  0.65516  0.79823  1.0000
  C   C411      1.0  0.13656  0.60317  0.19698  1.0000
  H   H324      1.0  0.02029  0.54071  0.71990  1.0000
  H   H325      1.0  0.04645  0.70529  0.94201  1.0000
  H   H326      1.0  0.02239  0.69991  0.90917  1.0000
  C   C412      1.0  0.03339  0.58841  0.83858  1.0000
  H   H327      1.0  0.07068  0.62165  0.07879  1.0000
  P   P11       1.0  0.00318  0.58244  0.81319  1.0000
  H   H328      1.0  0.03635  0.69471  0.77477  1.0000
  H   H329      1.0  0.03663  0.70430  0.71245  1.0000
  C   C413      1.0  0.09699  0.55286  0.22628  1.0000
  H   H330      1.0  0.07683  0.61357  0.14098  1.0000
  H   H331      1.0  0.16213  0.55943  0.17446  1.0000
  C   C414      1.0  0.08747  0.52540  0.55451  1.0000
  H   H332      1.0  0.03181  0.61405  0.28284  1.0000
  H   H333      1.0  0.01766  0.67488  0.32498  1.0000
  C   C415      1.0  0.09362  0.52343  0.58916  1.0000
  Fe  Fe36      1.0  0.04981  0.51992  0.67127  1.0000
  C   C416      1.0  0.08294  0.61481  0.08561  1.0000
  H   H334      1.0  0.05677  0.59260  0.85846  1.0000
  H   H335      1.0  0.08340  0.54501  0.38509  1.0000
  H   H336      1.0  0.01052  0.63166  0.83144  1.0000
  C   C417      1.0  0.15377  0.59957  0.20243  1.0000
  H   H337      1.0  0.11173  0.57149  0.23562  1.0000
  C   C418      1.0  0.01826  0.61263  0.07729  1.0000
  C   C419      1.0  0.03707  0.51272  0.43308  1.0000
  C   C420      1.0  0.99776  0.59723  0.77704  1.0000
  C   C421      1.0  0.00554  0.63274  0.03273  1.0000
  C   C422      1.0  0.11097  0.60172  0.06839  1.0000
  C   C423      1.0  0.07542  0.52926  0.42592  1.0000
  H   H338      1.0  0.00181  0.54356  0.39855  1.0000
  H   H339      1.0  0.10864  0.54879  0.41718  1.0000
  H   H340      1.0  0.00407  0.53435  0.57752  1.0000
  C   C424      1.0  0.99998  0.69436  0.96571  1.0000
  C   C425      1.0  0.01461  0.56307  0.79587  1.0000
  H   H341      1.0  0.00871  0.68538  0.70639  1.0000
  C   C426      1.0  0.00764  0.71649  0.30410  1.0000
  H   H342      1.0  0.01818  0.58953  0.28855  1.0000
  H   H343      1.0  0.15041  0.52915  0.55540  1.0000
  H   H344      1.0  0.00617  0.57291  0.39762  1.0000
  C   C427      1.0  0.06876  0.73581  0.71013  1.0000
  C   C428      1.0  0.03544  0.62223  0.03117  1.0000
  H   H345      1.0  0.99846  0.55338  0.14397  1.0000
  C   C429      1.0  0.08646  0.61026  0.12091  1.0000
  C   C430      1.0  0.08129  0.63935  0.24547  1.0000
  S   S69       1.0  0.05985  0.50068  0.62996  1.0000
  C   C431      1.0  0.10395  0.53327  0.46189  1.0000
  C   C432      1.0  0.08096  0.55638  0.17263  1.0000
  C   C433      1.0  0.01628  0.68631  0.30922  1.0000
  H   H346      1.0  0.07524  0.64979  0.26126  1.0000
  H   H347      1.0  0.06740  0.53840  0.52188  1.0000
  C   C434      1.0  0.06445  0.54649  0.57555  1.0000
  H   H348      1.0  0.01436  0.72693  0.69049  1.0000
  H   H349      1.0  0.06411  0.55171  0.63134  1.0000
  Fe  Fe37      1.0  0.01455  0.51579  0.65928  1.0000
  H   H350      1.0  0.02462  0.70007  0.22634  1.0000
  H   H351      1.0  0.02901  0.71693  0.35908  1.0000
  C   C435      1.0  0.03616  0.73341  0.39642  1.0000
  H   H352      1.0  0.00830  0.55491  0.25480  1.0000
  C   C436      1.0  0.00436  0.55245  0.19935  1.0000
  H   H353      1.0  0.00576  0.64963  0.77418  1.0000
  C   C437      1.0  0.08614  0.53905  0.41081  1.0000
  C   C438      1.0  0.02021  0.70052  0.25367  1.0000
  C   C439      1.0  0.07889  0.52151  0.45903  1.0000
  C   C440      1.0  0.03392  0.61240  0.06144  1.0000
  C   C441      1.0  0.15499  0.57164  0.18077  1.0000
  C   C442      1.0  0.06128  0.72714  0.27293  1.0000
  H   H354      1.0  0.04384  0.60914  0.90943  1.0000
  C   C443      1.0  0.01872  0.60722  0.89585  1.0000
  C   C444      1.0  0.03605  0.60395  0.89141  1.0000
  C   C445      1.0  0.00512  0.68898  0.99972  1.0000
  C   C446      1.0  0.16298  0.58382  0.19435  1.0000
  C   C447      1.0  0.12843  0.59097  0.18344  1.0000
  C   C448      1.0  0.02132  0.63238  0.01681  1.0000
  H   H355      1.0  0.08778  0.59701  0.24478  1.0000
  H   H356      1.0  0.00802  0.65841  0.67821  1.0000
  Fe  Fe38      1.0  0.03832  0.51284  0.59591  1.0000
  H   H357      1.0  0.06443  0.52758  0.41186  1.0000
  C   C449      1.0  0.13779  0.57518  0.17529  1.0000
  H   H358      1.0  0.09251  0.61421  0.03197  1.0000
  C   C450      1.0  0.14481  0.51923  0.54507  1.0000
  C   C451      1.0  0.05586  0.72047  0.86112  1.0000
  H   H359      1.0  0.02754  0.55529  0.84472  1.0000
  H   H360      1.0  0.04187  0.72027  0.81406  1.0000
  H   H361      1.0  0.15997  0.60903  0.21293  1.0000
  C   C452      1.0  0.03858  0.51155  0.49795  1.0000
  C   C453      1.0  0.00966  0.63077  0.26563  1.0000
  C   C454      1.0  0.08683  0.57108  0.16437  1.0000
  H   H362      1.0  0.07038  0.51404  0.47039  1.0000
  H   H363      1.0  0.11504  0.53503  0.47529  1.0000
  C   C455      1.0  0.08592  0.54734  0.20367  1.0000
  H   H364      1.0  0.04761  0.62222  0.01914  1.0000
  C   C456      1.0  0.09808  0.57664  0.18681  1.0000
  C   C457      1.0  0.09651  0.61248  0.20363  1.0000
  H   H365      1.0  0.06394  0.73111  0.29899  1.0000
  H   H366      1.0  0.01434  0.62553  0.72673  1.0000
  H   H367      1.0  0.01723  0.60537  0.10141  1.0000
  C   C458      1.0  0.03515  0.53758  0.80374  1.0000
  H   H368      1.0  0.01575  0.64144  0.26256  1.0000
  H   H369      1.0  0.03929  0.58174  0.81573  1.0000
  S   S70       1.0  0.03700  0.52252  0.53840  1.0000
  C   C459      1.0  0.00345  0.72609  0.15191  1.0000
  C   C460      1.0  0.10319  0.56736  0.21775  1.0000
  H   H370      1.0  0.02096  0.60651  0.77776  1.0000
  P   P12       1.0  0.10622  0.59535  0.17611  1.0000
  C   C461      1.0  0.01867  0.61537  0.27726  1.0000
  H   H371      1.0  0.07767  0.73916  0.79667  1.0000
  H   H372      1.0  0.99550  0.70994  0.11412  1.0000
  H   H373      1.0  0.04489  0.60487  0.07322  1.0000
  H   H374      1.0  0.03435  0.51993  0.40882  1.0000
  C   C462      1.0  0.01328  0.71582  0.26869  1.0000
  H   H375      1.0  0.12673  0.59017  0.11012  1.0000
  C   C463      1.0  0.11449  0.59709  0.10375  1.0000
  C   C464      1.0  0.00107  0.56801  0.37472  1.0000
  C   C465      1.0  0.08932  0.64236  0.21363  1.0000
  H   H376      1.0  0.13180  0.56562  0.16457  1.0000
  C   C466      1.0  0.01599  0.59108  0.84361  1.0000
  H   H377      1.0  0.07454  0.62064  0.28113  1.0000
  H   H378      1.0  0.00685  0.68106  0.77508  1.0000
  C   C467      1.0  0.02197  0.68582  0.27405  1.0000
  C   C468      1.0  0.01085  0.60152  0.28071  1.0000
  H   H379      1.0  0.04423  0.52957  0.81999  1.0000
  H   H380      1.0  0.99864  0.59104  0.34499  1.0000
  S   S71       1.0  0.03369  0.50335  0.69770  1.0000
  H   H381      1.0  0.03041  0.53403  0.46697  1.0000
  H   H382      1.0  0.04084  0.52237  0.75772  1.0000
  C   C469      1.0  0.09329  0.52326  0.47712  1.0000
  C   C470      1.0  0.08529  0.53302  0.61662  1.0000
  H   H383      1.0  0.01368  0.54116  0.19724  1.0000
  C   C471      1.0  0.02574  0.72914  0.37054  1.0000
  H   H384      1.0  0.08946  0.65512  0.20493  1.0000
  H   H385      1.0  0.01206  0.69627  0.01533  1.0000
  C   C472      1.0  0.10226  0.60148  0.13034  1.0000
  C   C473      1.0  0.00870  0.60082  0.87207  1.0000
  H   H386      1.0  0.10286  0.63164  0.16792  1.0000
  C   C474      1.0  0.00136  0.72494  0.77651  1.0000
  H   H387      1.0  0.17631  0.58106  0.19860  1.0000
  H   H388      1.0  0.12974  0.61545  0.20343  1.0000
  C   C475      1.0  0.03316  0.53344  0.76864  1.0000
  H   H389      1.0  0.08231  0.57814  0.14082  1.0000
  Fe  Fe39      1.0  0.01478  0.50908  0.28307  1.0000
  H   H390      1.0  0.01257  0.72702  0.25259  1.0000
  C   C476      1.0  0.03481  0.52067  0.46611  1.0000
  C   C477      1.0  0.99853  0.55151  0.37537  1.0000
  H   H391      1.0  0.01307  0.61497  0.91737  1.0000
  H   H392      1.0  0.00250  0.70613  0.95531  1.0000
  C   C478      1.0  0.99938  0.73494  0.18309  1.0000
  C   C479      1.0  0.00150  0.73015  0.74105  1.0000
  C   C480      1.0  0.10036  0.54113  0.42887  1.0000
  H   H393      1.0  0.00293  0.51210  0.53475  1.0000
  H   H394      1.0  0.02793  0.67410  0.26256  1.0000
  H   H395      1.0  0.01550  0.72585  0.13908  1.0000
  S   S72       1.0  0.06227  0.49925  0.29411  1.0000
  H   H396      1.0  0.00245  0.72702  0.89370  1.0000
  H   H397      1.0  0.06529  0.72629  0.84798  1.0000
  H   H398      1.0  0.00394  0.56669  0.74344  1.0000
  P   P13       1.0  0.99858  0.73619  0.32409  1.0000
  H   H399      1.0  0.00665  0.66955  0.03930  1.0000
  C   C481      1.0  0.00908  0.60723  0.76510  1.0000
  C   C482      1.0  0.07238  0.74332  0.74126  1.0000
  C   C483      1.0  0.02170  0.54387  0.74728  1.0000
  C   C484      1.0  0.00533  0.61809  0.73602  1.0000
  H   H400      1.0  0.10466  0.51426  0.59519  1.0000
  C   C485      1.0  0.00410  0.62274  0.06303  1.0000
  C   C486      1.0  0.99577  0.55935  0.16930  1.0000
  C   C487      1.0  0.12763  0.52190  0.53948  1.0000
  C   C488      1.0  0.00115  0.56022  0.23209  1.0000
  P   P14       1.0  0.09803  0.51262  0.51929  1.0000
  H   H401      1.0  0.05181  0.74251  0.19011  1.0000
  Fe  Fe40      1.0  0.04235  0.49673  0.33528  1.0000
  H   H402      1.0  0.99706  0.64049  0.15295  1.0000
  S   S73       1.0  0.02108  0.49645  0.61746  1.0000
  C   C489      1.0  0.12025  0.50908  0.52631  1.0000
  H   H403      1.0  0.00822  0.74173  0.19420  1.0000
  H   H404      1.0  0.00592  0.49702  0.21110  1.0000
  H   H405      1.0  0.99530  0.60375  0.87557  1.0000
  H   H406      1.0  0.16806  0.50170  0.54184  1.0000
  C   C490      1.0  0.99700  0.68284  0.69701  1.0000
  C   C491      1.0  0.99662  0.66759  0.68113  1.0000
  H   H407      1.0  0.02634  0.74368  0.88300  1.0000
  C   C492      1.0  0.04428  0.49430  0.49646  1.0000
  Fe  Fe41      1.0  0.18191  0.91608  0.62281  1.0000
  S   S74       1.0  0.15393  0.92191  0.62386  1.0000
  S   S75       1.0  0.19726  0.91884  0.57318  1.0000
  Fe  Fe42      1.0  0.18454  0.91166  0.70347  1.0000
  S   S76       1.0  0.15641  0.91686  0.71003  1.0000
  H   H408      1.0  0.07835  0.81761  0.42420  1.0000
  Fe  Fe43      1.0  0.15554  0.90019  0.66313  1.0000
  S   S77       1.0  0.14230  0.87753  0.65490  1.0000
  Fe  Fe44      1.0  0.15718  0.93795  0.67031  1.0000
  S   S78       1.0  0.14407  0.96494  0.67901  1.0000
  S   S79       1.0  0.18385  0.89362  0.65934  1.0000
  S   S80       1.0  0.18496  0.93341  0.66652  1.0000
  Fe  Fe45      1.0  0.03740  0.80251  0.65697  1.0000
  H   H409      1.0  0.12619  0.80371  0.37403  1.0000
  S   S81       1.0  0.01043  0.80015  0.64584  1.0000
  Fe  Fe46      1.0  0.06741  0.82042  0.67062  1.0000
  S   S82       1.0  0.08581  0.79643  0.66545  1.0000
  S   S83       1.0  0.07553  0.84597  0.67813  1.0000
  Fe  Fe47      1.0  0.07103  0.79251  0.61779  1.0000
  C   C493      1.0  0.19741  0.97725  0.53866  1.0000
  Fe  Fe48      1.0  0.06758  0.78375  0.69655  1.0000
  S   S84       1.0  0.05296  0.81674  0.62198  1.0000
  S   S85       1.0  0.05002  0.80824  0.70656  1.0000
  Fe  Fe49      1.0  0.17128  0.90328  0.37955  1.0000
  S   S86       1.0  0.14530  0.91794  0.37725  1.0000
  S   S87       1.0  0.17739  0.88883  0.43083  1.0000
  Fe  Fe50      1.0  0.17881  0.91105  0.30218  1.0000
  S   S88       1.0  0.15256  0.92570  0.29468  1.0000
  C   C494      1.0  0.20658  0.97130  0.29851  1.0000
  Fe  Fe51      1.0  0.15656  0.93728  0.34659  1.0000
  S   S89       1.0  0.15061  0.96435  0.36505  1.0000
  Fe  Fe52      1.0  0.14356  0.90478  0.32605  1.0000
  S   S90       1.0  0.11877  0.89516  0.31853  1.0000
  S   S91       1.0  0.18289  0.92341  0.35309  1.0000
  S   S92       1.0  0.16942  0.88935  0.32927  1.0000
  Fe  Fe53      1.0  0.05665  0.77983  0.29500  1.0000
  S   S93       1.0  0.05239  0.80622  0.27261  1.0000
  Fe  Fe54      1.0  0.05013  0.79349  0.37068  1.0000
  S   S94       1.0  0.04490  0.82024  0.35222  1.0000
  S   S95       1.0  0.04286  0.79010  0.42807  1.0000
  Fe  Fe55      1.0  0.03008  0.81092  0.30984  1.0000
  H   H410      1.0  0.04017  0.76060  0.73064  1.0000
  Fe  Fe56      1.0  0.06777  0.81305  0.31747  1.0000
  S   S96       1.0  0.09084  0.82606  0.31631  1.0000
  S   S97       1.0  0.03396  0.78466  0.33040  1.0000
  S   S98       1.0  0.07355  0.78617  0.33761  1.0000
  C   C495      1.0  0.11145  0.87565  0.32031  1.0000
  C   C496      1.0  0.09412  0.87591  0.32141  1.0000
  C   C497      1.0  0.08759  0.86098  0.32130  1.0000
  C   C498      1.0  0.09829  0.84543  0.31902  1.0000
  C   C499      1.0  0.11563  0.84517  0.31803  1.0000
  C   C500      1.0  0.12217  0.86008  0.31905  1.0000
  H   H411      1.0  0.08563  0.88780  0.32227  1.0000
  H   H412      1.0  0.07426  0.86155  0.32260  1.0000
  H   H413      1.0  0.12410  0.83330  0.31618  1.0000
  H   H414      1.0  0.13550  0.85954  0.31774  1.0000
  C   C501      1.0  0.07397  0.78856  0.52762  1.0000
  C   C502      1.0  0.08209  0.78560  0.49455  1.0000
  C   C503      1.0  0.07282  0.78676  0.46324  1.0000
  C   C504      1.0  0.05541  0.79077  0.46513  1.0000
  C   C505      1.0  0.04745  0.79438  0.49800  1.0000
  S   S99       1.0  0.05456  0.77779  0.64825  1.0000
  H   H415      1.0  0.09552  0.78191  0.49326  1.0000
  H   H416      1.0  0.07906  0.78385  0.43798  1.0000
  H   H417      1.0  0.09831  0.79769  0.38986  1.0000
  C   C506      1.0  0.18280  0.98016  0.78956  1.0000
  C   C507      1.0  0.19045  0.91183  0.53318  1.0000
  C   C508      1.0  0.19820  0.91535  0.50109  1.0000
  C   C509      1.0  0.19345  0.90933  0.46898  1.0000
  C   C510      1.0  0.18106  0.89958  0.46894  1.0000
  C   C511      1.0  0.17295  0.89655  0.50084  1.0000
  C   C512      1.0  0.17762  0.90262  0.53293  1.0000
  H   H418      1.0  0.20819  0.92239  0.50111  1.0000
  H   H419      1.0  0.19990  0.91155  0.44453  1.0000
  H   H420      1.0  0.16332  0.88911  0.50071  1.0000
  H   H421      1.0  0.17160  0.89981  0.55753  1.0000
  C   C513      1.0  0.12355  0.86903  0.66152  1.0000
  C   C514      1.0  0.12292  0.85300  0.64867  1.0000
  C   C515      1.0  0.10849  0.84575  0.65334  1.0000
  C   C516      1.0  0.09429  0.85440  0.67101  1.0000
  C   C517      1.0  0.09487  0.87047  0.68351  1.0000
  C   C518      1.0  0.10932  0.87769  0.67894  1.0000
  H   H422      1.0  0.13368  0.84615  0.63482  1.0000
  H   H423      1.0  0.10833  0.83348  0.64322  1.0000
  H   H424      1.0  0.08406  0.87740  0.69711  1.0000
  H   H425      1.0  0.10943  0.89000  0.68897  1.0000
  C   C519      1.0  0.15254  0.98280  0.34065  1.0000
  H   H426      1.0  0.19176  0.94763  0.26117  1.0000
  C   C520      1.0  0.11985  0.89353  0.57584  1.0000
  C   C521      1.0  0.23316  0.90466  0.73104  1.0000
  C   C522      1.0  0.18578  0.95562  0.24005  1.0000
  H   H427      1.0  0.23094  0.95510  0.08707  1.0000
  H   H428      1.0  0.15391  0.97195  0.28902  1.0000
  C   C523      1.0  0.12406  0.75938  0.65300  1.0000
  C   C524      1.0  0.05665  0.79338  0.52913  1.0000
  C   C525      1.0  0.99572  0.81745  0.41673  1.0000
  P   P15       1.0  0.17863  0.98493  0.51417  1.0000
  H   H429      1.0  0.22898  0.90016  0.70672  1.0000
  H   H430      1.0  0.13176  0.76119  0.70644  1.0000
  C   C526      1.0  0.15465  0.98169  0.66857  1.0000
  C   C527      1.0  0.23428  0.94916  0.71563  1.0000
  H   H431      1.0  0.00009  0.79755  0.34722  1.0000
  S   S100      1.0  0.07415  0.76480  0.74230  1.0000
  H   H432      1.0  0.17381  0.96717  0.63634  1.0000
  C   C528      1.0  0.01323  0.82989  0.52431  1.0000
  C   C529      1.0  0.19620  0.86204  0.56859  1.0000
  C   C530      1.0  0.18244  0.86128  0.59074  1.0000
  C   C531      1.0  0.22899  0.96564  0.79375  1.0000
  H   H433      1.0  0.02797  0.77238  0.78657  1.0000
  C   C532      1.0  0.14433  0.83247  0.52802  1.0000
  C   C533      1.0  0.02431  0.76788  0.90573  1.0000
  C   C534      1.0  0.15478  0.84898  0.45005  1.0000
  H   H434      1.0  0.01012  0.75414  0.82995  1.0000
  S   S101      1.0  0.08551  0.78538  0.56685  1.0000
  C   C535      1.0  0.17518  0.76181  0.78433  1.0000
  C   C536      1.0  0.15328  0.84005  0.71215  1.0000
  C   C537      1.0  0.06581  0.85929  0.09987  1.0000
  H   H435      1.0  0.18785  0.99121  0.19223  1.0000
  C   C538      1.0  0.16212  0.96260  0.78417  1.0000
  C   C539      1.0  0.17361  0.95113  0.76509  1.0000
  C   C540      1.0  0.18960  0.95423  0.75772  1.0000
  C   C541      1.0  0.19419  0.96895  0.76919  1.0000
  H   H436      1.0  0.24213  0.96562  0.28111  1.0000
  P   P16       1.0  0.21468  0.97322  0.75853  1.0000
  C   C542      1.0  0.07496  0.84813  0.07595  1.0000
  H   H437      1.0  0.03203  0.84521  0.52591  1.0000
  H   H438      1.0  0.21005  0.95960  0.83035  1.0000
  S   S102      1.0  0.00365  0.82286  0.29329  1.0000
  C   C543      1.0  0.01210  0.77186  0.25774  1.0000
  C   C544      1.0  0.15431  0.85338  0.41402  1.0000
  H   H439      1.0  0.21736  0.95996  0.18341  1.0000
  H   H440      1.0  0.15534  0.82954  0.58002  1.0000
  C   C545      1.0  0.22800  0.90885  0.28381  1.0000
  C   C546      1.0  0.22728  0.91610  0.78936  1.0000
  C   C547      1.0  0.01958  0.84407  0.57652  1.0000
  C   C548      1.0  0.19694  0.98284  0.32123  1.0000
  C   C549      1.0  0.21153  0.96752  0.68674  1.0000
  H   H441      1.0  0.14992  0.98404  0.56361  1.0000
  H   H442      1.0  0.12221  0.74661  0.65656  1.0000
  H   H443      1.0  0.01776  0.84421  0.20915  1.0000
  H   H444      1.0  0.16433  0.76834  0.69806  1.0000
  C   C550      1.0  0.00901  0.75691  0.37304  1.0000
  H   H445      1.0  0.03157  0.76319  0.92876  1.0000
  H   H446      1.0  0.14964  0.96023  0.78916  1.0000
  H   H447      1.0  0.17015  0.93979  0.75577  1.0000
  H   H448      1.0  0.19826  0.94515  0.74277  1.0000
  C   C551      1.0  0.16377  0.76996  0.72648  1.0000
  C   C552      1.0  0.20128  0.96258  0.36974  1.0000
  H   H449      1.0  0.03405  0.79758  0.49950  1.0000
  H   H450      1.0  0.11540  0.76155  0.59925  1.0000
  C   C553      1.0  0.00756  0.83730  0.59581  1.0000
  H   H451      1.0  0.13181  0.83114  0.47850  1.0000
  C   C554      1.0  0.02243  0.84033  0.54075  1.0000
  C   C555      1.0  0.22310  0.96011  0.82628  1.0000
  H   H452      1.0  0.21589  0.93851  0.35715  1.0000
  H   H453      1.0  0.04111  0.75284  0.43037  1.0000
  C   C556      1.0  0.02615  0.75692  0.52668  1.0000
  C   C557      1.0  0.22102  0.88798  0.12320  1.0000
  C   C558      1.0  0.11804  0.86812  0.23014  1.0000
  H   H454      1.0  0.99639  0.82060  0.70641  1.0000
  P   P17       1.0  0.14655  0.85405  0.52170  1.0000
  H   H455      1.0  0.20690  0.96144  0.63314  1.0000
  C   C559      1.0  0.13619  0.87501  0.46333  1.0000
  H   H456      1.0  0.15583  0.93422  0.54459  1.0000
  C   C560      1.0  0.09049  0.82052  0.41821  1.0000
  H   H457      1.0  0.13421  0.82988  0.39368  1.0000
  C   C561      1.0  0.12211  0.82716  0.40109  1.0000
  H   H458      1.0  0.05983  0.86182  0.51761  1.0000
  C   C562      1.0  0.09962  0.79274  0.24327  1.0000
  C   C563      1.0  0.01469  0.76069  0.49935  1.0000
  H   H459      1.0  0.05791  0.87062  0.09020  1.0000
  C   C564      1.0  0.07720  0.80387  0.18910  1.0000
  C   C565      1.0  0.08531  0.81531  0.20568  1.0000
  C   C566      1.0  0.09642  0.80962  0.23309  1.0000
  P   P18       1.0  0.07913  0.83736  0.19601  1.0000
  C   C567      1.0  0.09435  0.84938  0.20962  1.0000
  C   C568      1.0  0.07718  0.84126  0.14902  1.0000
  C   C569      1.0  0.06699  0.85593  0.13631  1.0000
  H   H460      1.0  0.07411  0.85079  0.04772  1.0000
  H   H461      1.0  0.12950  0.80159  0.48640  1.0000
  C   C570      1.0  0.08537  0.83366  0.08847  1.0000
  C   C571      1.0  0.08657  0.83027  0.12490  1.0000
  C   C572      1.0  0.08924  0.86567  0.22217  1.0000
  C   C573      1.0  0.10105  0.87493  0.23260  1.0000
  C   C574      1.0  0.13528  0.80771  0.50665  1.0000
  H   H462      1.0  0.21642  0.89169  0.14956  1.0000
  C   C575      1.0  0.11148  0.84289  0.20587  1.0000
  C   C576      1.0  0.05938  0.84338  0.21896  1.0000
  C   C577      1.0  0.05901  0.84771  0.25470  1.0000
  C   C578      1.0  0.04389  0.85129  0.27353  1.0000
  C   C579      1.0  0.02901  0.85027  0.25690  1.0000
  C   C580      1.0  0.02927  0.84559  0.22148  1.0000
  C   C581      1.0  0.04441  0.84209  0.20254  1.0000
  H   H463      1.0  0.10782  0.78858  0.26519  1.0000
  C   C582      1.0  0.24235  0.99315  0.34274  1.0000
  C   C583      1.0  0.23397  0.89484  0.10756  1.0000
  H   H464      1.0  0.06793  0.80807  0.16920  1.0000
  H   H465      1.0  0.10221  0.81825  0.24755  1.0000
  H   H466      1.0  0.06005  0.86481  0.15460  1.0000
  C   C584      1.0  0.00742  0.83157  0.77359  1.0000
  H   H467      1.0  0.03548  0.76564  0.57442  1.0000
  C   C585      1.0  0.20518  0.98836  0.55721  1.0000
  H   H468      1.0  0.09494  0.81916  0.13418  1.0000
  H   H469      1.0  0.07615  0.87123  0.22429  1.0000
  H   H470      1.0  0.24380  0.94415  0.15901  1.0000
  H   H471      1.0  0.13645  0.84691  0.21467  1.0000
  C   C586      1.0  0.19434  0.97846  0.35666  1.0000
  H   H472      1.0  0.11575  0.83059  0.19514  1.0000
  H   H473      1.0  0.07049  0.84785  0.26822  1.0000
  H   H474      1.0  0.04379  0.85431  0.30134  1.0000
  C   C587      1.0  0.15379  0.98324  0.30363  1.0000
  H   H475      1.0  0.01733  0.85257  0.27176  1.0000
  H   H476      1.0  0.04445  0.83793  0.17552  1.0000
  C   C588      1.0  0.09476  0.83556  0.42894  1.0000
  C   C589      1.0  0.11081  0.83864  0.42071  1.0000
  P   P19       1.0  0.08032  0.85014  0.45539  1.0000
  C   C590      1.0  0.08095  0.84317  0.50117  1.0000
  C   C591      1.0  0.08587  0.87062  0.45065  1.0000
  C   C592      1.0  0.08796  0.88007  0.48037  1.0000
  C   C593      1.0  0.09250  0.89573  0.47606  1.0000
  C   C594      1.0  0.09511  0.90205  0.44211  1.0000
  C   C595      1.0  0.09338  0.89262  0.41246  1.0000
  C   C596      1.0  0.08887  0.87695  0.41672  1.0000
  C   C597      1.0  0.09286  0.82946  0.51241  1.0000
  C   C598      1.0  0.09377  0.82465  0.54816  1.0000
  C   C599      1.0  0.08266  0.83332  0.57288  1.0000
  C   C600      1.0  0.07031  0.84657  0.56172  1.0000
  C   C601      1.0  0.06938  0.85145  0.52593  1.0000
  C   C602      1.0  0.05940  0.85052  0.44009  1.0000
  C   C603      1.0  0.05144  0.86331  0.41733  1.0000
  C   C604      1.0  0.03557  0.86288  0.40449  1.0000
  C   C605      1.0  0.02760  0.84963  0.41395  1.0000
  C   C606      1.0  0.03542  0.83691  0.43655  1.0000
  C   C607      1.0  0.05108  0.83748  0.45013  1.0000
  H   H477      1.0  0.11466  0.84993  0.42907  1.0000
  H   H478      1.0  0.08631  0.87542  0.50693  1.0000
  H   H479      1.0  0.09420  0.90289  0.49910  1.0000
  H   H480      1.0  0.09587  0.89731  0.38613  1.0000
  H   H481      1.0  0.08788  0.86965  0.39354  1.0000
  H   H482      1.0  0.10139  0.82236  0.49370  1.0000
  H   H483      1.0  0.10295  0.81403  0.55667  1.0000
  C   C608      1.0  0.15766  0.81114  0.67194  1.0000
  H   H484      1.0  0.05740  0.87355  0.40902  1.0000
  H   H485      1.0  0.02960  0.87264  0.38658  1.0000
  H   H486      1.0  0.01555  0.84900  0.40310  1.0000
  H   H487      1.0  0.02965  0.82623  0.44252  1.0000
  H   H488      1.0  0.05692  0.82739  0.46749  1.0000
  H   H489      1.0  0.09881  0.91411  0.43872  1.0000
  C   C609      1.0  0.10319  0.87190  0.57649  1.0000
  C   C610      1.0  0.20507  0.96033  0.53729  1.0000
  C   C611      1.0  0.09524  0.79408  0.77692  1.0000
  H   H490      1.0  0.08350  0.82960  0.60064  1.0000
  C   C612      1.0  0.11763  0.81238  0.39009  1.0000
  H   H491      1.0  0.15689  0.85852  0.59409  1.0000
  C   C613      1.0  0.14568  0.85975  0.47505  1.0000
  H   H492      1.0  0.09709  0.88728  0.24345  1.0000
  H   H493      1.0  0.19955  0.95145  0.52293  1.0000
  C   C614      1.0  0.22011  0.95461  0.55448  1.0000
  H   H494      1.0  0.09223  0.86727  0.58572  1.0000
  H   H495      1.0  0.16989  0.84884  0.67435  1.0000
  H   H496      1.0  0.12711  0.87519  0.23926  1.0000
  C   C615      1.0  0.10189  0.80901  0.39893  1.0000
  H   H497      1.0  0.15982  0.79987  0.65658  1.0000
  H   H498      1.0  0.22950  0.95094  0.87913  1.0000
  C   C616      1.0  0.01797  0.78496  0.90182  1.0000
  C   C617      1.0  0.01561  0.78387  0.55239  1.0000
  S   S103      1.0  0.05877  0.76056  0.25051  1.0000
  H   H499      1.0  0.20079  0.97748  0.68744  1.0000
  C   C618      1.0  0.16630  0.85641  0.53991  1.0000
  C   C619      1.0  0.01975  0.77117  0.76504  1.0000
  H   H500      1.0  0.21081  0.98462  0.47618  1.0000
  H   H501      1.0  0.23276  0.90378  0.93587  1.0000
  C   C620      1.0  0.08050  0.78697  0.19921  1.0000
  H   H502      1.0  0.01598  0.80553  0.76497  1.0000
  C   C621      1.0  0.01922  0.76104  0.39928  1.0000
  C   C622      1.0  0.20108  0.99301  0.46232  1.0000
  H   H503      1.0  0.21840  0.92055  0.81024  1.0000
  C   C623      1.0  0.12953  0.76769  0.68117  1.0000
  H   H504      1.0  0.14347  0.88795  0.54867  1.0000
  H   H505      1.0  0.02240  0.75916  0.67913  1.0000
  H   H506      1.0  0.13998  0.78590  0.54082  1.0000
  H   H507      1.0  0.07387  0.77822  0.18719  1.0000
  H   H508      1.0  0.20753  0.86482  0.57947  1.0000
  H   H509      1.0  0.23076  0.92617  0.06912  1.0000
  H   H510      1.0  0.22011  0.94575  0.29464  1.0000
  H   H511      1.0  0.06156  0.85306  0.58102  1.0000
  C   C624      1.0  0.22114  0.96302  0.71706  1.0000
  H   H512      1.0  0.11142  0.82689  0.71652  1.0000
  H   H513      1.0  0.11752  0.77712  0.76213  1.0000
  C   C625      1.0  0.23364  0.87756  0.05628  1.0000
  P   P20       1.0  0.20879  0.97612  0.25182  1.0000
  C   C626      1.0  0.15793  0.94291  0.52359  1.0000
  C   C627      1.0  0.15397  0.94004  0.48875  1.0000
  H   H514      1.0  0.02694  0.85184  0.58956  1.0000
  H   H515      1.0  0.21969  0.91238  0.19607  1.0000
  C   C628      1.0  0.19516  0.85972  0.53222  1.0000
  H   H516      1.0  0.14231  0.79410  0.79106  1.0000
  C   C629      1.0  0.16533  0.95653  0.53122  1.0000
  C   C630      1.0  0.01678  0.76370  0.70417  1.0000
  C   C631      1.0  0.22152  0.91047  0.75772  1.0000
  H   H517      1.0  0.16301  0.77590  0.82821  1.0000
  C   C632      1.0  0.02682  0.76456  0.73321  1.0000
  H   H518      1.0  0.12939  0.88378  0.48185  1.0000
  H   H519      1.0  0.16901  0.95804  0.55820  1.0000
  H   H520      1.0  0.17424  0.82300  0.63914  1.0000
  C   C633      1.0  0.13218  0.88340  0.55578  1.0000
  H   H521      1.0  0.14881  0.92913  0.48265  1.0000
  C   C634      1.0  0.16371  0.83861  0.68216  1.0000
  C   C635      1.0  0.16600  0.82412  0.66217  1.0000
  C   C636      1.0  0.11072  0.78983  0.75969  1.0000
  C   C637      1.0  0.16842  0.96772  0.50412  1.0000
  H   H522      1.0  0.09371  0.76842  0.23497  1.0000
  C   C638      1.0  0.14677  0.81268  0.70152  1.0000
  H   H523      1.0  0.15143  0.85142  0.72731  1.0000
  C   C639      1.0  0.14502  0.82705  0.72215  1.0000
  C   C640      1.0  0.15713  0.95099  0.46158  1.0000
  C   C641      1.0  0.01250  0.75765  0.27937  1.0000
  H   H524      1.0  0.13729  0.82831  0.74592  1.0000
  C   C642      1.0  0.16426  0.96482  0.46913  1.0000
  H   H525      1.0  0.01434  0.75171  0.47883  1.0000
  H   H526      1.0  0.20435  0.87065  0.11765  1.0000
  C   C643      1.0  0.00103  0.82312  0.54336  1.0000
  H   H527      1.0  0.02449  0.75021  0.28632  1.0000
  C   C644      1.0  0.99760  0.75344  0.29281  1.0000
  P   P21       1.0  0.13654  0.79561  0.71469  1.0000
  H   H528      1.0  0.09025  0.78470  0.79233  1.0000
  C   C645      1.0  0.11548  0.86174  0.55632  1.0000
  C   C646      1.0  0.15146  0.78218  0.74196  1.0000
  H   H529      1.0  0.15427  0.94860  0.43448  1.0000
  H   H530      1.0  0.21569  0.86121  0.05847  1.0000
  C   C647      1.0  0.15140  0.78441  0.77872  1.0000
  C   C648      1.0  0.01220  0.76287  0.84986  1.0000
  C   C649      1.0  0.24335  0.94911  0.18541  1.0000
  C   C650      1.0  0.09168  0.78141  0.22631  1.0000
  C   C651      1.0  0.02653  0.76846  0.55330  1.0000
  C   C652      1.0  0.12326  0.85216  0.21654  1.0000
  C   C653      1.0  0.22839  0.95790  0.19951  1.0000
  H   H531      1.0  0.99930  0.76654  0.36276  1.0000
  C   C654      1.0  0.22775  0.96382  0.23422  1.0000
  C   C655      1.0  0.99690  0.78213  0.24984  1.0000
  C   C656      1.0  0.22683  0.91124  0.22005  1.0000
  C   C657      1.0  0.16317  0.77419  0.79983  1.0000
  C   C658      1.0  0.00872  0.79103  0.87198  1.0000
  C   C659      1.0  0.11704  0.80172  0.73860  1.0000
  C   C660      1.0  0.13147  0.78441  0.67703  1.0000
  C   C661      1.0  0.12727  0.79285  0.64474  1.0000
  C   C662      1.0  0.16675  0.97706  0.79668  1.0000
  H   H532      1.0  0.20565  0.86084  0.51483  1.0000
  S   S104      1.0  0.19998  0.90951  0.75401  1.0000
  C   C663      1.0  0.10540  0.88775  0.58635  1.0000
  C   C664      1.0  0.18032  0.85682  0.51791  1.0000
  H   H533      1.0  0.16413  0.98288  0.16278  1.0000
  C   C665      1.0  0.21859  0.91020  0.25298  1.0000
  C   C666      1.0  0.08587  0.81018  0.77304  1.0000
  H   H534      1.0  0.08456  0.83442  0.74820  1.0000
  C   C667      1.0  0.00434  0.78793  0.52458  1.0000
  H   H535      1.0  0.23163  0.90175  0.00121  1.0000
  C   C668      1.0  0.10736  0.81775  0.73415  1.0000
  H   H536      1.0  0.07370  0.81335  0.78572  1.0000
  C   C669      1.0  0.09197  0.82202  0.75181  1.0000
  H   H537      1.0  0.09618  0.89533  0.60316  1.0000
  H   H538      1.0  0.18621  0.99140  0.79948  1.0000
  H   H539      1.0  0.11801  0.79113  0.59221  1.0000
  C   C670      1.0  0.22781  0.96577  0.57263  1.0000
  C   C671      1.0  0.23410  0.95517  0.85409  1.0000
  C   C672      1.0  0.17019  0.97528  0.18437  1.0000
  C   C673      1.0  0.12185  0.78447  0.61662  1.0000
  H   H540      1.0  0.12752  0.80604  0.64166  1.0000
  S   S105      1.0  0.19672  0.91009  0.25400  1.0000
  C   C674      1.0  0.99840  0.82682  0.57938  1.0000
  H   H541      1.0  0.22565  0.94144  0.55384  1.0000
  H   H542      1.0  0.05028  0.79577  0.55442  1.0000
  H   H543      1.0  0.01688  0.83525  0.75612  1.0000
  H   H544      1.0  0.15436  0.95691  0.18181  1.0000
  C   C675      1.0  0.17259  0.95078  0.22260  1.0000
  C   C676      1.0  0.17552  0.75974  0.74766  1.0000
  H   H545      1.0  0.12893  0.89132  0.41828  1.0000
  C   C677      1.0  0.99878  0.81166  0.45150  1.0000
  H   H546      1.0  0.22192  0.90795  0.30932  1.0000
  H   H547      1.0  0.14458  0.87214  0.37481  1.0000
  C   C678      1.0  0.13577  0.87934  0.42726  1.0000
  C   C679      1.0  0.21337  0.95526  0.31186  1.0000
  H   H548      1.0  0.01688  0.77356  0.40970  1.0000
  C   C680      1.0  0.14472  0.86851  0.40262  1.0000
  H   H549      1.0  0.00573  0.83962  0.62390  1.0000
  C   C681      1.0  0.00245  0.77698  0.76806  1.0000
  H   H550      1.0  0.02366  0.77525  0.24819  1.0000
  C   C682      1.0  0.16755  0.85855  0.57651  1.0000
  H   H551      1.0  0.12183  0.90560  0.58445  1.0000
  C   C683      1.0  0.18355  0.98006  0.20145  1.0000
  H   H552      1.0  0.11368  0.84942  0.54953  1.0000
  C   C684      1.0  0.16467  0.96067  0.19502  1.0000
  H   H553      1.0  0.00564  0.81522  0.39686  1.0000
  C   C685      1.0  0.13019  0.86732  0.54629  1.0000
  H   H554      1.0  0.17973  0.85579  0.48949  1.0000
  C   C686      1.0  0.19122  0.97044  0.23002  1.0000
  H   H555      1.0  0.15786  0.98591  0.81164  1.0000
  H   H556      1.0  0.16169  0.84528  0.39492  1.0000
  C   C687      1.0  0.21428  0.87605  0.10530  1.0000
  C   C688      1.0  0.14986  0.82360  0.55917  1.0000
  H   H557      1.0  0.16862  0.93923  0.23046  1.0000
  C   C689      1.0  0.22064  0.87078  0.07193  1.0000
  C   C690      1.0  0.12026  0.76776  0.62070  1.0000
  C   C691      1.0  0.21090  0.95102  0.34738  1.0000
  C   C692      1.0  0.00683  0.81464  0.77870  1.0000
  C   C693      1.0  0.02137  0.75686  0.87985  1.0000
  C   C694      1.0  0.13671  0.82447  0.50214  1.0000
  C   C695      1.0  0.14834  0.80685  0.56370  1.0000
  C   C696      1.0  0.16899  0.97936  0.64698  1.0000
  H   H558      1.0  0.16250  0.83732  0.45850  1.0000
  H   H559      1.0  0.19872  0.95905  0.39686  1.0000
  H   H560      1.0  0.01110  0.80497  0.45805  1.0000
  H   H561      1.0  0.15277  0.80003  0.58763  1.0000
  H   H562      1.0  0.09262  0.82511  0.06996  1.0000
  H   H563      1.0  0.18312  0.86328  0.61887  1.0000
  C   C697      1.0  0.21496  0.95840  0.65572  1.0000
  C   C698      1.0  0.14115  0.79888  0.53735  1.0000
  H   H564      1.0  0.16671  0.97293  0.44736  1.0000
  H   H565      1.0  0.23940  0.90363  0.12244  1.0000
  C   C699      1.0  0.24228  0.96095  0.25447  1.0000
  H   H566      1.0  0.18430  0.75390  0.80071  1.0000
  C   C700      1.0  0.00380  0.77613  0.49828  1.0000
  C   C701      1.0  0.22028  0.98262  0.57420  1.0000
  H   H567      1.0  0.18635  0.98713  0.37367  1.0000
  H   H568      1.0  0.01597  0.82682  0.49701  1.0000
  H   H569      1.0  0.23029  0.93725  0.63090  1.0000
  H   H570      1.0  0.18796  0.99087  0.62164  1.0000
  H   H571      1.0  0.23945  0.96130  0.58598  1.0000
  H   H572      1.0  0.24051  0.98303  0.36061  1.0000
  C   C702      1.0  0.17694  0.99288  0.63843  1.0000
  H   H573      1.0  0.02029  0.79352  0.92186  1.0000
  H   H574      1.0  0.22607  0.99126  0.58877  1.0000
  C   C703      1.0  0.03287  0.74935  0.41087  1.0000
  C   C704      1.0  0.99957  0.76918  0.70711  1.0000
  C   C705      1.0  0.22810  0.94474  0.65449  1.0000
  H   H575      1.0  0.24130  0.94455  0.73891  1.0000
  H   H576      1.0  0.01626  0.79269  0.57304  1.0000
  C   C706      1.0  0.24004  0.89003  0.07350  1.0000
  C   C707      1.0  0.00582  0.78004  0.84566  1.0000
  C   C708      1.0  0.24425  0.91059  0.21785  1.0000
  C   C709      1.0  0.23790  0.94028  0.68427  1.0000
  H   H577      1.0  0.99669  0.79359  0.23458  1.0000
  H   H578      1.0  0.23885  0.87287  0.03106  1.0000
  C   C710      1.0  0.24256  0.93010  0.07277  1.0000
  C   C711      1.0  0.24261  0.94654  0.08265  1.0000
  H   H579      1.0  0.23548  0.99377  0.22687  1.0000
  H   H580      1.0  0.03480  0.74509  0.52719  1.0000
  H   H581      1.0  0.18492  0.75024  0.73562  1.0000
  C   C712      1.0  0.99570  0.84372  0.79045  1.0000
  H   H582      1.0  0.00394  0.80431  0.86960  1.0000
  H   H583      1.0  0.99608  0.85684  0.78612  1.0000
  C   C713      1.0  0.24445  0.91579  0.79440  1.0000
  C   C714      1.0  0.24360  0.90091  0.98781  1.0000
  C   C715      1.0  0.24415  0.90226  0.95079  1.0000
  H   H584      1.0  0.99502  0.77886  0.47687  1.0000
  Fe  Fe57      1.0  0.45259  0.07511  0.31393  1.0000
  S   S106      1.0  0.46071  0.05179  0.34700  1.0000
  S   S107      1.0  0.42415  0.08313  0.31190  1.0000
  C   C716      1.0  0.25275  0.06039  0.23521  1.0000
  C   C717      1.0  0.25797  0.09169  0.25503  1.0000
  C   C718      1.0  0.48612  0.01742  0.80421  1.0000
  C   C719      1.0  0.34599  0.00836  0.42034  1.0000
  Fe  Fe58      1.0  0.49280  0.04252  0.67492  1.0000
  Fe  Fe59      1.0  0.48035  0.06448  0.36909  1.0000
  C   C720      1.0  0.45813  0.00526  0.39190  1.0000
  S   S108      1.0  0.46960  0.06672  0.26773  1.0000
  S   S109      1.0  0.47124  0.08868  0.33917  1.0000
  H   H585      1.0  0.35552  0.00168  0.43751  1.0000
  C   C721      1.0  0.33697  0.02052  0.36323  1.0000
  H   H586      1.0  0.31546  0.00420  0.01873  1.0000
  Fe  Fe60      1.0  0.47542  0.07296  0.63430  1.0000
  S   S110      1.0  0.47008  0.08810  0.68447  1.0000
  S   S111      1.0  0.46332  0.08127  0.58092  1.0000
  H   H587      1.0  0.46923  0.02661  0.56042  1.0000
  C   C722      1.0  0.34049  0.10796  0.89973  1.0000
  Fe  Fe61      1.0  0.46256  0.06522  0.70967  1.0000
  S   S112      1.0  0.44198  0.06018  0.74861  1.0000
  H   H588      1.0  0.37580  0.05419  0.52854  1.0000
  S   S113      1.0  0.46636  0.05094  0.65918  1.0000
  Fe  Fe62      1.0  0.34963  0.07164  0.18142  1.0000
  S   S114      1.0  0.35047  0.04867  0.14972  1.0000
  S   S115      1.0  0.37616  0.07699  0.18299  1.0000
  Fe  Fe63      1.0  0.31114  0.07571  0.18904  1.0000
  S   S116      1.0  0.30997  0.05327  0.15622  1.0000
  S   S117      1.0  0.28794  0.08991  0.21821  1.0000
  Fe  Fe64      1.0  0.33204  0.04154  0.18807  1.0000
  S   S118      1.0  0.33649  0.01548  0.21045  1.0000
  Fe  Fe65      1.0  0.32866  0.06248  0.11941  1.0000
  S   S119      1.0  0.33510  0.05532  0.06189  1.0000
  S   S120      1.0  0.33263  0.06329  0.22287  1.0000
  S   S121      1.0  0.32838  0.08616  0.14950  1.0000
  Fe  Fe66      1.0  0.34410  0.07734  0.80157  1.0000
  S   S122      1.0  0.34402  0.06092  0.85022  1.0000
  S   S123      1.0  0.36528  0.09031  0.78215  1.0000
  Fe  Fe67      1.0  0.30786  0.07404  0.78176  1.0000
  S   S124      1.0  0.30524  0.05736  0.82878  1.0000
  S   S125      1.0  0.29010  0.07967  0.73506  1.0000
  Fe  Fe68      1.0  0.31781  0.07479  0.85966  1.0000
  S   S126      1.0  0.30717  0.08500  0.91260  1.0000
  Fe  Fe69      1.0  0.33152  0.04494  0.81582  1.0000
  S   S127      1.0  0.34050  0.01731  0.81049  1.0000
  S   S128      1.0  0.31856  0.09263  0.81321  1.0000
  S   S129      1.0  0.33344  0.06035  0.76669  1.0000
  C   C723      1.0  0.32696  0.06382  0.02086  1.0000
  C   C724      1.0  0.31406  0.07772  0.01875  1.0000
  C   C725      1.0  0.30810  0.08401  0.98541  1.0000
  C   C726      1.0  0.31501  0.07653  0.95392  1.0000
  C   C727      1.0  0.32804  0.06271  0.95605  1.0000
  C   C728      1.0  0.33393  0.05637  0.98936  1.0000
  H   H589      1.0  0.30864  0.08359  0.04276  1.0000
  H   H590      1.0  0.29806  0.09473  0.98399  1.0000
  H   H591      1.0  0.33351  0.05690  0.93206  1.0000
  H   H592      1.0  0.34396  0.04564  0.99071  1.0000
  C   C729      1.0  0.36824  0.02007  0.71809  1.0000
  H   H593      1.0  0.27862  0.02726  0.15910  1.0000
  C   C730      1.0  0.45669  0.01768  0.74405  1.0000
  C   C731      1.0  0.35418  0.11358  0.70424  1.0000
  H   H594      1.0  0.31876  0.01926  0.14357  1.0000
  C   C732      1.0  0.43724  0.01033  0.30417  1.0000
  C   C733      1.0  0.42037  0.06843  0.75502  1.0000
  C   C734      1.0  0.41308  0.08455  0.74369  1.0000
  C   C735      1.0  0.39618  0.09097  0.75194  1.0000
  C   C736      1.0  0.38630  0.08131  0.77116  1.0000
  C   C737      1.0  0.39349  0.06504  0.78174  1.0000
  C   C738      1.0  0.41042  0.05868  0.77376  1.0000
  H   H595      1.0  0.42056  0.09222  0.72935  1.0000
  H   H596      1.0  0.39077  0.10358  0.74371  1.0000
  H   H597      1.0  0.38609  0.05745  0.79655  1.0000
  H   H598      1.0  0.41590  0.04614  0.78240  1.0000
  C   C739      1.0  0.35505  0.99709  0.07620  1.0000
  H   H599      1.0  0.34825  0.00928  0.90690  1.0000
  C   C740      1.0  0.38102  0.02354  0.36410  1.0000
  C   C741      1.0  0.47122  0.07525  0.53780  1.0000
  C   C742      1.0  0.46052  0.07843  0.50869  1.0000
  C   C743      1.0  0.46628  0.07401  0.47399  1.0000
  H   H600      1.0  0.25989  0.10390  0.26271  1.0000
  C   C744      1.0  0.39849  0.02122  0.36527  1.0000
  H   H601      1.0  0.44773  0.08443  0.51313  1.0000
  H   H602      1.0  0.45790  0.07647  0.45197  1.0000
  C   C745      1.0  0.41108  0.08060  0.27604  1.0000
  C   C746      1.0  0.41749  0.07655  0.24204  1.0000
  C   C747      1.0  0.40659  0.07545  0.21405  1.0000
  C   C748      1.0  0.38923  0.07781  0.21980  1.0000
  C   C749      1.0  0.38282  0.08152  0.25397  1.0000
  C   C750      1.0  0.39369  0.08310  0.28180  1.0000
  H   H603      1.0  0.43080  0.07467  0.23709  1.0000
  H   H604      1.0  0.41163  0.07286  0.18768  1.0000
  H   H605      1.0  0.36949  0.08360  0.25870  1.0000
  H   H606      1.0  0.38858  0.08640  0.30787  1.0000
  H   H607      1.0  0.37936  0.02059  0.05524  1.0000
  C   C751      1.0  0.47747  0.00874  0.64022  1.0000
  H   H608      1.0  0.36741  0.00861  0.66759  1.0000
  H   H609      1.0  0.35923  0.12456  0.71021  1.0000
  H   H610      1.0  0.47822  0.01947  0.62341  1.0000
  H   H611      1.0  0.31991  0.09631  0.72131  1.0000
  H   H612      1.0  0.33710  0.08107  0.62225  1.0000
  H   H613      1.0  0.40363  0.06172  0.35833  1.0000
  C   C752      1.0  0.40543  0.09436  0.93019  1.0000
  C   C753      1.0  0.28887  0.02563  0.29130  1.0000
  H   H614      1.0  0.26104  0.02419  0.86944  1.0000
  C   C754      1.0  0.39837  0.04076  0.26860  1.0000
  C   C755      1.0  0.38156  0.03973  0.26585  1.0000
  C   C756      1.0  0.37624  0.03187  0.23695  1.0000
  H   H615      1.0  0.35898  0.02784  0.47800  1.0000
  C   C757      1.0  0.39908  0.00590  0.08608  1.0000
  H   H616      1.0  0.36321  0.03107  0.23476  1.0000
  S   S130      1.0  0.49091  0.05987  0.42516  1.0000
  C   C758      1.0  0.32631  0.00213  0.18700  1.0000
  H   H617      1.0  0.44629  0.08508  0.90451  1.0000
  H   H618      1.0  0.25899  0.10896  0.80688  1.0000
  H   H619      1.0  0.36293  0.99549  0.16788  1.0000
  C   C759      1.0  0.34977  0.01213  0.38497  1.0000
  C   C760      1.0  0.32902  0.01427  0.05825  1.0000
  C   C761      1.0  0.43439  0.08333  0.91580  1.0000
  H   H620      1.0  0.36566  0.05052  0.43844  1.0000
  C   C762      1.0  0.26724  0.06616  0.22332  1.0000
  H   H621      1.0  0.33010  0.11481  0.88488  1.0000
  P   P22       1.0  0.38345  0.07571  0.96184  1.0000
  H   H622      1.0  0.39181  0.01572  0.99602  1.0000
  H   H623      1.0  0.30297  0.00045  0.11377  1.0000
  C   C763      1.0  0.43574  0.05019  0.84504  1.0000
  Fe  Fe70      1.0  0.48917  0.07780  0.29523  1.0000
  H   H624      1.0  0.44817  0.03203  0.29250  1.0000
  C   C764      1.0  0.37180  0.03989  0.36081  1.0000
  H   H625      1.0  0.36901  0.03484  0.76438  1.0000
  C   C765      1.0  0.36215  0.06771  0.61067  1.0000
  H   H626      1.0  0.47152  0.03592  0.21320  1.0000
  C   C766      1.0  0.26997  0.08189  0.23309  1.0000
  C   C767      1.0  0.37455  0.04933  0.92529  1.0000
  H   H627      1.0  0.39425  0.05619  0.43484  1.0000
  H   H628      1.0  0.29353  0.00656  0.88537  1.0000
  H   H629      1.0  0.44963  0.03461  0.61082  1.0000
  H   H630      1.0  0.39065  0.00615  0.42994  1.0000
  H   H631      1.0  0.35839  0.04219  0.35906  1.0000
  H   H632      1.0  0.47264  0.00025  0.88707  1.0000
  C   C768      1.0  0.46390  0.01897  0.40523  1.0000
  C   C769      1.0  0.45405  0.02954  0.42926  1.0000
  C   C770      1.0  0.43835  0.02643  0.44031  1.0000
  C   C771      1.0  0.43286  0.01237  0.42743  1.0000
  P   P23       1.0  0.42531  0.04057  0.47017  1.0000
  C   C772      1.0  0.43323  0.03826  0.51468  1.0000
  C   C773      1.0  0.42438  0.06201  0.45555  1.0000
  C   C774      1.0  0.41979  0.07510  0.47950  1.0000
  C   C775      1.0  0.41912  0.09169  0.46834  1.0000
  C   C776      1.0  0.42308  0.09536  0.43327  1.0000
  C   C777      1.0  0.42747  0.08245  0.40924  1.0000
  C   C778      1.0  0.42792  0.06586  0.42009  1.0000
  C   C779      1.0  0.45021  0.03229  0.52101  1.0000
  C   C780      1.0  0.45609  0.03097  0.55564  1.0000
  H   H633      1.0  0.44065  0.00228  0.85957  1.0000
  H   H634      1.0  0.39510  0.10486  0.93039  1.0000
  C   C781      1.0  0.42231  0.04293  0.54355  1.0000
  C   C782      1.0  0.40434  0.03630  0.47171  1.0000
  C   C783      1.0  0.40054  0.02328  0.49354  1.0000
  C   C784      1.0  0.38420  0.02033  0.49604  1.0000
  C   C785      1.0  0.37162  0.03014  0.47619  1.0000
  C   C786      1.0  0.37537  0.04295  0.45400  1.0000
  C   C787      1.0  0.39164  0.04609  0.45189  1.0000
  C   C788      1.0  0.40912  0.00553  0.11581  1.0000
  C   C789      1.0  0.26013  0.07470  0.76601  1.0000
  H   H635      1.0  0.45528  0.00362  0.61613  1.0000
  H   H636      1.0  0.45858  0.04037  0.43854  1.0000
  C   C790      1.0  0.30334  0.00143  0.86688  1.0000
  H   H637      1.0  0.41706  0.07261  0.50699  1.0000
  H   H638      1.0  0.41599  0.10170  0.48713  1.0000
  H   H639      1.0  0.42294  0.10817  0.42469  1.0000
  H   H640      1.0  0.43082  0.08534  0.38225  1.0000
  H   H641      1.0  0.43123  0.05615  0.40075  1.0000
  H   H642      1.0  0.45905  0.02885  0.49955  1.0000
  C   C791      1.0  0.27999  0.01828  0.21318  1.0000
  C   C792      1.0  0.38769  0.04192  0.98178  1.0000
  C   C793      1.0  0.38689  0.02514  0.97643  1.0000
  H   H643      1.0  0.40926  0.04796  0.53941  1.0000
  H   H644      1.0  0.41021  0.01553  0.50885  1.0000
  H   H645      1.0  0.26304  0.11415  0.74282  1.0000
  C   C794      1.0  0.36857  0.03480  0.66160  1.0000
  C   C795      1.0  0.31709  0.02140  0.41198  1.0000
  C   C796      1.0  0.40450  0.02679  0.21258  1.0000
  C   C797      1.0  0.44647  0.01723  0.71505  1.0000
  C   C798      1.0  0.37994  0.05359  0.35897  1.0000
  C   C799      1.0  0.40979  0.03436  0.24213  1.0000
  C   C800      1.0  0.36802  0.02007  0.68108  1.0000
  H   H646      1.0  0.44610  0.02649  0.69397  1.0000
  C   C801      1.0  0.49370  0.06364  0.49696  1.0000
  C   C802      1.0  0.44962  0.03959  0.83068  1.0000
  H   H647      1.0  0.42265  0.03570  0.24463  1.0000
  C   C803      1.0  0.38766  0.02531  0.21050  1.0000
  H   H648      1.0  0.42089  0.00959  0.43532  1.0000
  C   C804      1.0  0.32072  0.02516  0.37675  1.0000
  H   H649      1.0  0.40211  0.09489  0.00666  1.0000
  H   H650      1.0  0.36845  0.03448  0.63303  1.0000
  C   C805      1.0  0.26040  0.07890  0.70251  1.0000
  C   C806      1.0  0.36902  0.03479  0.73564  1.0000
  H   H651      1.0  0.42208  0.04971  0.13658  1.0000
  H   H652      1.0  0.31238  0.02452  0.85993  1.0000
  C   C807      1.0  0.45724  0.00578  0.77164  1.0000
  C   C808      1.0  0.35764  0.08599  0.67873  1.0000
  C   C809      1.0  0.36946  0.04954  0.71628  1.0000
  C   C810      1.0  0.36921  0.04968  0.67914  1.0000
  C   C811      1.0  0.40771  0.01965  0.13719  1.0000
  C   C812      1.0  0.26486  0.00553  0.82909  1.0000
  C   C813      1.0  0.38755  0.02033  0.07753  1.0000
  H   H653      1.0  0.42006  0.03303  0.36439  1.0000
  C   C814      1.0  0.27459  0.01428  0.77176  1.0000
  H   H654      1.0  0.32829  0.04695  0.67585  1.0000
  C   C815      1.0  0.32672  0.00502  0.82847  1.0000
  H   H655      1.0  0.41509  0.09452  0.60040  1.0000
  H   H656      1.0  0.46376  0.02764  0.74532  1.0000
  P   P24       1.0  0.41923  0.01894  0.17784  1.0000
  H   H657      1.0  0.36986  0.06088  0.73036  1.0000
  C   C816      1.0  0.36878  0.99741  0.32358  1.0000
  C   C817      1.0  0.31205  0.04035  0.28426  1.0000
  H   H658      1.0  0.30221  0.04841  0.64224  1.0000
  C   C818      1.0  0.28519  0.05510  0.30496  1.0000
  H   H659      1.0  0.37627  0.10185  0.67670  1.0000
  C   C819      1.0  0.36896  0.07898  0.06650  1.0000
  C   C820      1.0  0.43289  0.04629  0.15299  1.0000
  C   C821      1.0  0.32122  0.03070  0.71664  1.0000
  C   C822      1.0  0.30887  0.02230  0.72956  1.0000
  S   S131      1.0  0.48864  0.05482  0.72740  1.0000
  C   C823      1.0  0.34006  0.07452  0.56764  1.0000
  H   H660      1.0  0.32735  0.08025  0.56134  1.0000
  C   C824      1.0  0.31882  0.04017  0.68529  1.0000
  C   C825      1.0  0.39609  0.03410  0.12822  1.0000
  C   C826      1.0  0.30415  0.04093  0.66637  1.0000
  C   C827      1.0  0.26967  0.00407  0.16517  1.0000
  C   C828      1.0  0.44467  0.05676  0.15271  1.0000
  C   C829      1.0  0.34565  0.07492  0.60233  1.0000
  C   C830      1.0  0.43491  0.03199  0.17514  1.0000
  C   C831      1.0  0.26890  0.07727  0.73481  1.0000
  C   C832      1.0  0.43262  0.06780  0.93026  1.0000
  H   H661      1.0  0.33259  0.02990  0.73135  1.0000
  H   H662      1.0  0.35951  0.07487  0.08332  1.0000
  H   H663      1.0  0.28100  0.03234  0.66291  1.0000
  C   C833      1.0  0.32971  0.01300  0.43375  1.0000
  H   H664      1.0  0.34513  0.02144  0.09703  1.0000
  H   H665      1.0  0.26579  0.04089  0.31046  1.0000
  H   H666      1.0  0.31360  0.01455  0.27215  1.0000
  H   H667      1.0  0.28518  0.02877  0.22178  1.0000
  C   C834      1.0  0.39178  0.09393  0.05910  1.0000
  H   H668      1.0  0.44283  0.06799  0.13626  1.0000
  C   C835      1.0  0.38617  0.03442  0.09844  1.0000
  C   C836      1.0  0.30562  0.02569  0.28222  1.0000
  H   H669      1.0  0.27743  0.04020  0.76793  1.0000
  C   C837      1.0  0.36384  0.10058  0.68523  1.0000
  C   C838      1.0  0.26453  0.02152  0.84205  1.0000
  C   C839      1.0  0.35534  0.10109  0.88226  1.0000
  P   P25       1.0  0.37000  0.06889  0.65477  1.0000
  C   C840      1.0  0.35089  0.06702  0.54103  1.0000
  H   H670      1.0  0.31091  0.03162  0.35985  1.0000
  C   C841      1.0  0.29198  0.03203  0.67858  1.0000
  Fe  Fe71      1.0  0.47862  0.04437  0.30205  1.0000
  H   H671      1.0  0.37700  0.04549  0.09217  1.0000
  P   P26       1.0  0.27955  0.01004  0.72580  1.0000
  H   H672      1.0  0.43385  0.06349  0.83907  1.0000
  C   C842      1.0  0.34327  0.01183  0.07894  1.0000
  H   H673      1.0  0.40256  0.04713  0.29044  1.0000
  H   H674      1.0  0.35655  0.10281  0.85382  1.0000
  H   H675      1.0  0.38314  0.01939  0.18831  1.0000
  H   H676      1.0  0.39428  0.04499  0.14492  1.0000
  C   C843      1.0  0.37287  0.05997  0.58386  1.0000
  C   C844      1.0  0.39136  0.07173  0.64965  1.0000
  C   C845      1.0  0.42822  0.04148  0.57808  1.0000
  H   H677      1.0  0.38573  0.09110  0.60908  1.0000
  H   H678      1.0  0.37887  0.09124  0.10881  1.0000
  C   C846      1.0  0.39539  0.08345  0.62461  1.0000
  H   H679      1.0  0.31994  0.02579  0.06024  1.0000
  C   C847      1.0  0.44902  0.02830  0.19669  1.0000
  H   H680      1.0  0.37261  0.04530  0.28564  1.0000
  C   C848      1.0  0.37982  0.08831  0.08084  1.0000
  H   H681      1.0  0.45817  0.04490  0.81352  1.0000
  C   C849      1.0  0.48293  0.06650  0.46792  1.0000
  C   C850      1.0  0.41193  0.08545  0.61958  1.0000
  H   H682      1.0  0.40140  0.05339  0.69000  1.0000
  C   C851      1.0  0.36730  0.05977  0.54916  1.0000
  H   H683      1.0  0.41635  0.02118  0.88546  1.0000
  C   C852      1.0  0.40408  0.06222  0.66986  1.0000
  C   C853      1.0  0.33832  0.11209  0.71701  1.0000
  C   C854      1.0  0.45860  0.05301  0.17434  1.0000
  C   C855      1.0  0.39730  0.05113  0.36068  1.0000
  H   H684      1.0  0.43035  0.05684  0.68017  1.0000
  C   C856      1.0  0.30177  0.05514  0.29504  1.0000
  C   C857      1.0  0.46081  0.03874  0.19614  1.0000
  C   C858      1.0  0.34171  0.08459  0.69187  1.0000
  C   C859      1.0  0.26060  0.00665  0.30483  1.0000
  C   C860      1.0  0.42453  0.07583  0.63954  1.0000
  C   C861      1.0  0.42060  0.06419  0.66448  1.0000
  P   P27       1.0  0.46772  0.00850  0.81196  1.0000
  H   H685      1.0  0.43733  0.07751  0.63581  1.0000
  H   H686      1.0  0.38563  0.05429  0.58970  1.0000
  C   C862      1.0  0.26980  0.00194  0.79401  1.0000
  H   H687      1.0  0.25742  0.04133  0.70719  1.0000
  H   H688      1.0  0.40009  0.10128  0.07028  1.0000
  C   C863      1.0  0.46461  0.99975  0.63595  1.0000
  C   C864      1.0  0.37980  0.02050  0.94572  1.0000
  C   C865      1.0  0.27613  0.01757  0.17745  1.0000
  H   H689      1.0  0.33107  0.12194  0.73268  1.0000
  C   C866      1.0  0.44270  0.00189  0.40325  1.0000
  C   C867      1.0  0.31393  0.01164  0.85223  1.0000
  C   C868      1.0  0.33207  0.09762  0.71074  1.0000
  H   H690      1.0  0.33680  0.07334  0.68802  1.0000
  H   H691      1.0  0.26647  0.07355  0.79106  1.0000
  C   C869      1.0  0.27875  0.04039  0.30336  1.0000
  C   C870      1.0  0.36681  0.08895  0.93799  1.0000
  H   H692      1.0  0.36819  0.02907  0.89618  1.0000
  C   C871      1.0  0.38140  0.05419  0.95631  1.0000
  H   H693      1.0  0.27711  0.06667  0.31249  1.0000
  H   H694      1.0  0.26733  0.00318  0.13723  1.0000
  H   H695      1.0  0.42498  0.01744  0.30965  1.0000
  C   C872      1.0  0.45174  0.02224  0.83632  1.0000
  C   C873      1.0  0.45035  0.01854  0.29446  1.0000
  H   H696      1.0  0.30650  0.06673  0.29479  1.0000
  H   H697      1.0  0.48429  0.03018  0.85421  1.0000
  C   C874      1.0  0.38209  0.08069  0.00843  1.0000
  H   H698      1.0  0.27623  0.05855  0.20622  1.0000
  C   C875      1.0  0.42974  0.99802  0.18952  1.0000
  H   H699      1.0  0.37283  0.06614  0.35547  1.0000
  C   C876      1.0  0.29420  0.02280  0.71054  1.0000
  C   C877      1.0  0.35183  0.09596  0.95532  1.0000
  H   H700      1.0  0.31094  0.01527  0.75429  1.0000
  C   C878      1.0  0.37018  0.07503  0.03056  1.0000
  H   H701      1.0  0.41268  0.05179  0.87454  1.0000
  C   C879      1.0  0.39288  0.09023  0.02299  1.0000
  C   C880      1.0  0.41721  0.06546  0.94431  1.0000
  H   H702      1.0  0.36168  0.06775  0.01996  1.0000
  C   C881      1.0  0.33879  0.10549  0.93624  1.0000
  H   H703      1.0  0.32487  0.04026  0.27622  1.0000
  C   C882      1.0  0.31830  0.00714  0.15506  1.0000
  H   H704      1.0  0.37967  0.08604  0.88688  1.0000
  H   H705      1.0  0.42903  0.00442  0.69056  1.0000
  C   C883      1.0  0.48948  0.00377  0.66608  1.0000
  C   C884      1.0  0.40342  0.07867  0.94392  1.0000
  C   C885      1.0  0.36845  0.09162  0.90122  1.0000
  H   H706      1.0  0.36979  0.05840  0.90498  1.0000
  C   C886      1.0  0.37367  0.03260  0.92014  1.0000
  H   H707      1.0  0.34661  0.06698  0.51408  1.0000
  H   H708      1.0  0.39328  0.04531  0.00567  1.0000
  H   H709      1.0  0.41610  0.05333  0.95523  1.0000
  C   C887      1.0  0.43970  0.01566  0.85639  1.0000
  H   H710      1.0  0.44317  0.05752  0.93019  1.0000
  H   H711      1.0  0.32705  0.11040  0.94951  1.0000
  H   H712      1.0  0.34987  0.09381  0.98330  1.0000
  C   C888      1.0  0.26911  0.03394  0.81989  1.0000
  C   C889      1.0  0.44509  0.03556  0.58407  1.0000
  C   C890      1.0  0.46623  0.00922  0.28718  1.0000
  P   P28       1.0  0.28067  0.00692  0.28388  1.0000
  C   C891      1.0  0.42583  0.02632  0.87081  1.0000
  H   H713      1.0  0.47578  0.02176  0.39610  1.0000
  C   C892      1.0  0.25070  0.11748  0.75478  1.0000
  C   C893      1.0  0.25985  0.01448  0.70339  1.0000
  H   H714      1.0  0.45081  0.01758  0.21467  1.0000
  C   C894      1.0  0.42082  0.09661  0.91592  1.0000
  H   H715      1.0  0.42221  0.10867  0.90482  1.0000
  H   H716      1.0  0.26707  0.08088  0.67821  1.0000
  C   C895      1.0  0.42377  0.04357  0.86481  1.0000
  C   C896      1.0  0.27718  0.00558  0.23706  1.0000
  C   C897      1.0  0.27402  0.03038  0.78478  1.0000
  H   H717      1.0  0.26899  0.04630  0.83001  1.0000
  H   H718      1.0  0.41983  0.04519  0.60025  1.0000
  C   C898      1.0  0.40655  0.03496  0.36398  1.0000
  H   H719      1.0  0.46758  0.06127  0.17466  1.0000
  H   H720      1.0  0.36763  0.00875  0.73335  1.0000
  H   H721      1.0  0.33917  0.00272  0.96719  1.0000
  H   H722      1.0  0.37906  0.00753  0.94167  1.0000
  H   H723      1.0  0.46546  0.99739  0.37226  1.0000
  H   H724      1.0  0.40003  0.99490  0.07008  1.0000
  C   C899      1.0  0.43676  0.00488  0.71332  1.0000
  C   C900      1.0  0.32651  0.00198  0.03486  1.0000
  H   H725      1.0  0.33953  0.02337  0.33569  1.0000
  H   H726      1.0  0.40596  0.00876  0.36673  1.0000
  C   C901      1.0  0.30952  0.99640  0.13795  1.0000
  H   H727      1.0  0.30446  0.02497  0.42234  1.0000
  C   C902      1.0  0.49145  0.02733  0.82997  1.0000
  H   H728      1.0  0.38134  0.01034  0.51316  1.0000
  H   H729      1.0  0.49215  0.00579  0.75345  1.0000
  H   H730      1.0  0.26169  0.99579  0.84652  1.0000
  S   S132      1.0  0.48307  0.01909  0.27814  1.0000
  H   H731      1.0  0.25075  0.04833  0.22691  1.0000
  H   H732      1.0  0.36607  0.99529  0.09222  1.0000
  H   H733      1.0  0.39142  0.00427  0.30175  1.0000
  H   H734      1.0  0.29601  0.99999  0.35253  1.0000
  C   C903      1.0  0.25164  0.00154  0.69395  1.0000
  H   H735      1.0  0.24808  0.02853  0.27593  1.0000
  C   C904      1.0  0.24842  0.11456  0.79097  1.0000
  P   P29       1.0  0.37063  0.00569  0.36691  1.0000
  C   C905      1.0  0.48788  0.06785  0.53168  1.0000
  C   C906      1.0  0.24678  0.01878  0.29518  1.0000
  H   H736      1.0  0.41564  0.99607  0.23829  1.0000
  C   C907      1.0  0.25185  0.03114  0.69804  1.0000
  C   C908      1.0  0.38096  0.99817  0.29714  1.0000
  H   H737      1.0  0.32683  0.00995  0.46099  1.0000
  H   H738      1.0  0.44735  0.99641  0.14552  1.0000
  H   H739      1.0  0.49346  0.00158  0.46649  1.0000
  C   C909      1.0  0.34788  0.99647  0.91460  1.0000
  Fe  Fe72      1.0  0.43772  0.92025  0.33479  1.0000
  S   S133      1.0  0.42677  0.93959  0.37391  1.0000
  S   S134      1.0  0.42088  0.90336  0.31368  1.0000
  H   H740      1.0  0.31183  0.96373  0.94766  1.0000
  H   H741      1.0  0.28454  0.94505  0.08396  1.0000
  C   C910      1.0  0.29092  0.98090  0.68783  1.0000
  Fe  Fe73      1.0  0.44656  0.92118  0.72436  1.0000
  S   S135      1.0  0.44192  0.92890  0.66739  1.0000
  S   S136      1.0  0.42839  0.91101  0.76242  1.0000
  Fe  Fe74      1.0  0.45514  0.94979  0.67890  1.0000
  S   S137      1.0  0.44739  0.97482  0.65263  1.0000
  H   H742      1.0  0.37407  0.91346  0.53587  1.0000
  Fe  Fe75      1.0  0.29520  0.91415  0.20765  1.0000
  S   S138      1.0  0.29285  0.92010  0.14919  1.0000
  S   S139      1.0  0.27588  0.90734  0.24778  1.0000
  Fe  Fe76      1.0  0.33045  0.92382  0.21100  1.0000
  S   S140      1.0  0.33043  0.93033  0.15277  1.0000
  S   S141      1.0  0.35000  0.93289  0.24497  1.0000
  Fe  Fe77      1.0  0.30389  0.94253  0.16113  1.0000
  S   S142      1.0  0.29687  0.96748  0.13373  1.0000
  Fe  Fe78      1.0  0.31963  0.90747  0.14428  1.0000
  S   S143      1.0  0.32944  0.89044  0.09864  1.0000
  S   S144      1.0  0.30416  0.93779  0.21976  1.0000
  S   S145      1.0  0.32165  0.89951  0.20235  1.0000
  Fe  Fe79      1.0  0.30136  0.94558  0.85857  1.0000
  S   S146      1.0  0.30417  0.93919  0.80142  1.0000
  S   S147      1.0  0.29189  0.97193  0.87498  1.0000
  Fe  Fe80      1.0  0.31501  0.91099  0.88381  1.0000
  S   S148      1.0  0.31924  0.90158  0.82767  1.0000
  S   S149      1.0  0.32200  0.89273  0.93012  1.0000
  Fe  Fe81      1.0  0.32957  0.92491  0.81561  1.0000
  S   S150      1.0  0.34875  0.92996  0.77325  1.0000
  Fe  Fe82      1.0  0.29366  0.91651  0.81637  1.0000
  S   S151      1.0  0.27804  0.90779  0.77329  1.0000
  S   S152      1.0  0.32734  0.93309  0.87241  1.0000
  S   S153      1.0  0.28869  0.92409  0.87330  1.0000
  H   H743      1.0  0.47098  0.97819  0.57309  1.0000
  C   C911      1.0  0.31853  0.97792  0.83465  1.0000
  H   H744      1.0  0.31713  0.97671  0.37597  1.0000
  H   H745      1.0  0.36705  0.92864  0.59751  1.0000
  C   C912      1.0  0.40338  0.93015  0.60592  1.0000
  H   H746      1.0  0.32054  0.96490  0.82795  1.0000
  H   H747      1.0  0.34340  0.92043  0.08001  1.0000
  C   C913      1.0  0.42631  0.89567  0.63387  1.0000
  H   H748      1.0  0.44505  0.86000  0.57035  1.0000
  H   H749      1.0  0.27908  0.97594  0.05920  1.0000
  Fe  Fe83      1.0  0.48269  0.92818  0.72185  1.0000
  C   C914      1.0  0.37674  0.91578  0.16867  1.0000
  H   H750      1.0  0.49290  0.94766  0.88566  1.0000
  C   C915      1.0  0.30328  0.97345  0.03443  1.0000
  H   H751      1.0  0.26537  0.96882  0.00480  1.0000
  C   C916      1.0  0.25838  0.89870  0.00715  1.0000
  C   C917      1.0  0.30897  0.98059  0.15264  1.0000
  C   C918      1.0  0.46329  0.97881  0.54987  1.0000
  H   H752      1.0  0.42474  0.85970  0.74112  1.0000
  C   C919      1.0  0.37123  0.95527  0.14021  1.0000
  C   C920      1.0  0.31791  0.97531  0.18325  1.0000
  S   S154      1.0  0.47275  0.90030  0.60485  1.0000
  H   H753      1.0  0.31829  0.96295  0.19395  1.0000
  C   C921      1.0  0.32607  0.89255  0.05211  1.0000
  C   C922      1.0  0.31845  0.90742  0.03469  1.0000
  C   C923      1.0  0.31713  0.90807  0.99712  1.0000
  C   C924      1.0  0.32314  0.89374  0.97710  1.0000
  C   C925      1.0  0.33038  0.87901  0.99491  1.0000
  C   C926      1.0  0.33196  0.87847  0.03179  1.0000
  H   H754      1.0  0.31392  0.91845  0.04997  1.0000
  H   H755      1.0  0.31147  0.91955  0.98379  1.0000
  H   H756      1.0  0.33501  0.86786  0.97998  1.0000
  H   H757      1.0  0.33783  0.86694  0.04472  1.0000
  C   C927      1.0  0.25370  0.90903  0.24868  1.0000
  C   C928      1.0  0.27409  0.90011  0.95209  1.0000
  H   H758      1.0  0.36879  0.87145  0.64718  1.0000
  C   C929      1.0  0.34848  0.92706  0.05848  1.0000
  H   H759      1.0  0.38856  0.92784  0.65364  1.0000
  H   H760      1.0  0.42752  0.91052  0.53368  1.0000
  H   H761      1.0  0.43025  0.98296  0.73842  1.0000
  C   C930      1.0  0.33985  0.94262  0.04673  1.0000
  H   H762      1.0  0.38926  0.99120  0.24419  1.0000
  H   H763      1.0  0.48350  0.94538  0.46930  1.0000
  H   H764      1.0  0.42124  0.90550  0.65195  1.0000
  H   H765      1.0  0.39110  0.94677  0.40364  1.0000
  P   P30       1.0  0.40124  0.91022  0.58794  1.0000
  C   C931      1.0  0.27569  0.88389  0.07311  1.0000
  C   C932      1.0  0.40853  0.96009  0.63566  1.0000
  C   C933      1.0  0.40632  0.91717  0.76636  1.0000
  C   C934      1.0  0.39722  0.92839  0.74229  1.0000
  C   C935      1.0  0.37964  0.93222  0.74493  1.0000
  C   C936      1.0  0.37096  0.92515  0.77214  1.0000
  C   C937      1.0  0.38008  0.91416  0.79664  1.0000
  C   C938      1.0  0.39765  0.91009  0.79355  1.0000
  H   H766      1.0  0.40379  0.93385  0.72139  1.0000
  H   H767      1.0  0.37272  0.94074  0.72585  1.0000
  H   H768      1.0  0.37358  0.90868  0.81771  1.0000
  H   H769      1.0  0.40457  0.90136  0.81228  1.0000
  H   H770      1.0  0.25256  0.90685  0.30563  1.0000
  H   H771      1.0  0.46782  0.90493  0.47477  1.0000
  C   C939      1.0  0.36749  0.81146  0.77248  1.0000
  H   H772      1.0  0.37475  0.79233  0.73373  1.0000
  C   C940      1.0  0.27278  0.94093  0.08071  1.0000
  C   C941      1.0  0.45658  0.92704  0.56463  1.0000
  C   C942      1.0  0.45149  0.93530  0.53247  1.0000
  H   H773      1.0  0.45356  0.93337  0.58945  1.0000
  H   H774      1.0  0.44445  0.94789  0.53293  1.0000
  C   C943      1.0  0.40133  0.91164  0.29399  1.0000
  C   C944      1.0  0.39172  0.90073  0.28001  1.0000
  C   C945      1.0  0.37606  0.90690  0.26471  1.0000
  C   C946      1.0  0.36980  0.92411  0.26320  1.0000
  C   C947      1.0  0.37949  0.93498  0.27701  1.0000
  C   C948      1.0  0.39515  0.92884  0.29214  1.0000
  H   H775      1.0  0.39636  0.88740  0.28133  1.0000
  H   H776      1.0  0.36875  0.89829  0.25475  1.0000
  H   H777      1.0  0.37486  0.94826  0.27611  1.0000
  H   H778      1.0  0.40237  0.93743  0.30261  1.0000
  C   C949      1.0  0.32901  0.98814  0.81977  1.0000
  C   C950      1.0  0.49313  0.95032  0.45464  1.0000
  C   C951      1.0  0.25941  0.90175  0.93292  1.0000
  H   H779      1.0  0.30337  0.98826  0.77056  1.0000
  H   H780      1.0  0.44047  0.98518  0.58012  1.0000
  C   C952      1.0  0.25711  0.95187  0.24049  1.0000
  P   P31       1.0  0.40043  0.93136  0.13426  1.0000
  C   C953      1.0  0.28500  0.87099  0.05298  1.0000
  C   C954      1.0  0.30120  0.96533  0.68249  1.0000
  C   C955      1.0  0.47600  0.98054  0.68283  1.0000
  C   C956      1.0  0.33817  0.98699  0.03237  1.0000
  H   H781      1.0  0.44739  0.98423  0.79090  1.0000
  H   H782      1.0  0.48387  0.97385  0.91903  1.0000
  C   C957      1.0  0.38841  0.95137  0.14681  1.0000
  H   H783      1.0  0.26816  0.94899  0.25658  1.0000
  C   C958      1.0  0.27856  0.96919  0.00434  1.0000
  C   C959      1.0  0.24611  0.96572  0.78926  1.0000
  C   C960      1.0  0.28624  0.97315  0.03491  1.0000
  C   C961      1.0  0.29877  0.86043  0.06766  1.0000
  C   C962      1.0  0.36753  0.91607  0.60797  1.0000
  C   C963      1.0  0.44596  0.98281  0.55394  1.0000
  C   C964      1.0  0.30247  0.98189  0.74606  1.0000
  C   C965      1.0  0.44020  0.99293  0.30764  1.0000
  H   H784      1.0  0.38833  0.95402  0.07453  1.0000
  C   C966      1.0  0.35375  0.89582  0.63855  1.0000
  S   S155      1.0  0.44776  0.93816  0.29837  1.0000
  C   C967      1.0  0.29610  0.98973  0.30018  1.0000
  C   C968      1.0  0.41551  0.91314  0.48349  1.0000
  C   C969      1.0  0.26695  0.99134  0.18870  1.0000
  H   H785      1.0  0.38160  0.92251  0.00126  1.0000
  C   C970      1.0  0.46883  0.99181  0.28812  1.0000
  C   C971      1.0  0.38572  0.91346  0.52176  1.0000
  C   C972      1.0  0.25103  0.95570  0.84965  1.0000
  C   C973      1.0  0.43746  0.99278  0.74032  1.0000
  C   C974      1.0  0.36332  0.91970  0.04167  1.0000
  C   C975      1.0  0.32635  0.98609  0.20062  1.0000
  H   H786      1.0  0.36169  0.97325  0.05167  1.0000
  H   H787      1.0  0.43045  0.96798  0.25411  1.0000
  C   C976      1.0  0.30496  0.96630  0.97235  1.0000
  H   H788      1.0  0.28592  0.89990  0.93833  1.0000
  C   C977      1.0  0.43579  0.98340  0.52450  1.0000
  H   H789      1.0  0.30077  0.95891  0.65784  1.0000
  C   C978      1.0  0.37990  0.99068  0.26450  1.0000
  C   C979      1.0  0.34252  0.99266  0.94870  1.0000
  C   C980      1.0  0.31316  0.96666  0.74012  1.0000
  C   C981      1.0  0.31233  0.95822  0.70868  1.0000
  H   H790      1.0  0.24783  0.92942  0.68363  1.0000
  C   C982      1.0  0.25612  0.90949  0.76807  1.0000
  H   H791      1.0  0.45820  0.97022  0.30033  1.0000
  C   C983      1.0  0.46465  0.91114  0.49968  1.0000
  H   H792      1.0  0.32939  0.95316  0.33704  1.0000
  H   H793      1.0  0.34324  0.95102  0.93858  1.0000
  C   C984      1.0  0.25705  0.96081  0.81716  1.0000
  C   C985      1.0  0.34616  0.95103  0.01816  1.0000
  C   C986      1.0  0.41630  0.95476  0.60358  1.0000
  C   C987      1.0  0.38227  0.97235  0.38752  1.0000
  C   C988      1.0  0.39928  0.96388  0.43896  1.0000
  C   C989      1.0  0.36667  0.90372  0.17265  1.0000
  C   C990      1.0  0.45590  0.98368  0.29884  1.0000
  C   C991      1.0  0.36211  0.97110  0.14795  1.0000
  H   H794      1.0  0.43618  0.91233  0.03021  1.0000
  H   H795      1.0  0.42160  0.93449  0.98982  1.0000
  H   H796      1.0  0.34278  0.89265  0.65167  1.0000
  C   C992      1.0  0.27276  0.92450  0.07092  1.0000
  H   H797      1.0  0.32218  0.96140  0.75994  1.0000
  H   H798      1.0  0.32049  0.94626  0.70466  1.0000
  H   H799      1.0  0.43530  0.98031  0.46787  1.0000
  C   C993      1.0  0.46580  0.91076  0.56460  1.0000
  H   H800      1.0  0.34194  0.92115  0.62643  1.0000
  H   H801      1.0  0.35914  0.88231  0.15014  1.0000
  H   H802      1.0  0.25097  0.96974  0.76428  1.0000
  C   C994      1.0  0.38563  0.91473  0.48470  1.0000
  C   C995      1.0  0.42553  0.88144  0.57851  1.0000
  H   H803      1.0  0.33285  0.98195  0.22470  1.0000
  H   H804      1.0  0.45857  0.86270  0.62758  1.0000
  C   C996      1.0  0.41760  0.93399  0.01733  1.0000
  C   C997      1.0  0.41567  0.91182  0.52045  1.0000
  H   H805      1.0  0.40634  0.95405  0.45541  1.0000
  H   H806      1.0  0.36622  0.97612  0.23329  1.0000
  H   H807      1.0  0.41099  0.97134  0.64762  1.0000
  C   C998      1.0  0.36163  0.94396  0.00276  1.0000
  H   H808      1.0  0.39771  0.95531  0.01228  1.0000
  H   H809      1.0  0.35326  0.95788  0.87890  1.0000
  H   H810      1.0  0.28176  0.86907  0.02597  1.0000
  H   H811      1.0  0.31399  0.85452  0.11383  1.0000
  H   H812      1.0  0.32073  0.95321  0.27488  1.0000
  C   C999      1.0  0.44046  0.88408  0.64352  1.0000
  H   H813      1.0  0.37865  0.88127  0.09887  1.0000
  H   H814      1.0  0.36718  0.95042  0.98174  1.0000
  C   C1000     1.0  0.44332  0.99013  0.16881  1.0000
  H   H815      1.0  0.36950  0.90731  0.04982  1.0000
  H   H816      1.0  0.25041  0.91104  0.19232  1.0000
  C   C1001     1.0  0.41234  0.86645  0.73511  1.0000
  C   C1002     1.0  0.25773  0.95189  0.08708  1.0000
  H   H817      1.0  0.42134  0.88668  0.70850  1.0000
  C   C1003     1.0  0.41901  0.89471  0.60091  1.0000
  H   H818      1.0  0.39691  0.90206  0.09190  1.0000
  H   H819      1.0  0.43019  0.90741  0.24204  1.0000
  C   C1004     1.0  0.40719  0.93254  0.08853  1.0000
  Fe  Fe84      1.0  0.43829  0.95699  0.33945  1.0000
  C   C1005     1.0  0.42527  0.98994  0.22048  1.0000
  C   C1006     1.0  0.44748  0.96636  0.20950  1.0000
  C   C1007     1.0  0.35055  0.96750  0.89869  1.0000
  H   H820      1.0  0.25923  0.89904  0.71590  1.0000
  S   S156      1.0  0.46219  0.91289  0.36402  1.0000
  C   C1008     1.0  0.25821  0.99361  0.32830  1.0000
  C   C1009     1.0  0.38271  0.88805  0.61988  1.0000
  H   H821      1.0  0.43448  0.93825  0.12856  1.0000
  C   C1010     1.0  0.40051  0.91458  0.46559  1.0000
  H   H822      1.0  0.45463  0.95441  0.21813  1.0000
  C   C1011     1.0  0.31275  0.97032  0.00297  1.0000
  C   C1012     1.0  0.35329  0.91188  0.62435  1.0000
  H   H823      1.0  0.36482  0.94611  0.12911  1.0000
  C   C1013     1.0  0.25034  0.90400  0.73639  1.0000
  C   C1014     1.0  0.38043  0.88473  0.72190  1.0000
  C   C1015     1.0  0.38221  0.86953  0.74099  1.0000
  C   C1016     1.0  0.39829  0.86037  0.74728  1.0000
  P   P32       1.0  0.36440  0.86213  0.76002  1.0000
  C   C1017     1.0  0.36262  0.86645  0.80684  1.0000
  C   C1018     1.0  0.34521  0.87272  0.74034  1.0000
  C   C1019     1.0  0.33570  0.86425  0.71906  1.0000
  C   C1020     1.0  0.32024  0.87247  0.70648  1.0000
  C   C1021     1.0  0.31420  0.88914  0.71500  1.0000
  C   C1022     1.0  0.32370  0.89768  0.73567  1.0000
  C   C1023     1.0  0.33907  0.88947  0.74848  1.0000
  C   C1024     1.0  0.34814  0.86433  0.82577  1.0000
  C   C1025     1.0  0.34640  0.86796  0.86181  1.0000
  C   C1026     1.0  0.35893  0.87402  0.87911  1.0000
  C   C1027     1.0  0.37333  0.87628  0.86045  1.0000
  C   C1028     1.0  0.37521  0.87250  0.82447  1.0000
  C   C1029     1.0  0.36748  0.83997  0.75212  1.0000
  C   C1030     1.0  0.36490  0.82857  0.77918  1.0000
  C   C1031     1.0  0.37272  0.80560  0.73883  1.0000
  C   C1032     1.0  0.37540  0.81686  0.71182  1.0000
  C   C1033     1.0  0.37282  0.83398  0.71842  1.0000
  H   H824      1.0  0.36832  0.89235  0.71732  1.0000
  H   H825      1.0  0.39997  0.84880  0.76260  1.0000
  H   H826      1.0  0.33985  0.85123  0.71294  1.0000
  H   H827      1.0  0.31269  0.86580  0.69095  1.0000
  H   H828      1.0  0.30194  0.89534  0.70649  1.0000
  H   H829      1.0  0.31889  0.91051  0.74292  1.0000
  H   H830      1.0  0.34602  0.89609  0.76555  1.0000
  H   H831      1.0  0.33806  0.86012  0.81256  1.0000
  H   H832      1.0  0.33508  0.86660  0.87623  1.0000
  H   H833      1.0  0.35728  0.87725  0.90684  1.0000
  H   H834      1.0  0.38292  0.88126  0.87374  1.0000
  H   H835      1.0  0.38633  0.87472  0.81057  1.0000
  H   H836      1.0  0.36100  0.83274  0.80553  1.0000
  H   H837      1.0  0.37953  0.81230  0.68577  1.0000
  H   H838      1.0  0.37499  0.84256  0.69726  1.0000
  C   C1034     1.0  0.39905  0.98064  0.44636  1.0000
  C   C1035     1.0  0.30127  0.98978  0.33543  1.0000
  P   P33       1.0  0.25783  0.89766  0.05497  1.0000
  H   H839      1.0  0.43828  0.99125  0.39273  1.0000
  C   C1036     1.0  0.32008  0.96338  0.32699  1.0000
  C   C1037     1.0  0.40077  0.91202  0.54000  1.0000
  C   C1038     1.0  0.36691  0.98222  0.25825  1.0000
  H   H840      1.0  0.27009  0.98950  0.78440  1.0000
  H   H841      1.0  0.42708  0.91296  0.46867  1.0000
  H   H842      1.0  0.36548  0.80272  0.79347  1.0000
  C   C1039     1.0  0.34488  0.96369  0.93254  1.0000
  C   C1040     1.0  0.39453  0.89059  0.70922  1.0000
  S   S157      1.0  0.44851  0.93883  0.46059  1.0000
  C   C1041     1.0  0.30326  0.97650  0.27833  1.0000
  H   H843      1.0  0.30900  0.97623  0.05869  1.0000
  C   C1042     1.0  0.36729  0.89138  0.14740  1.0000
  C   C1043     1.0  0.42582  0.92150  0.04008  1.0000
  C   C1044     1.0  0.41045  0.88160  0.71631  1.0000
  Fe  Fe85      1.0  0.45147  0.93390  0.40115  1.0000
  C   C1045     1.0  0.36841  0.88388  0.63605  1.0000
  H   H844      1.0  0.39314  0.90249  0.69525  1.0000
  C   C1046     1.0  0.48031  0.97428  0.81668  1.0000
  H   H845      1.0  0.40562  0.98380  0.46902  1.0000
  C   C1047     1.0  0.48787  0.95924  0.87179  1.0000
  S   S158      1.0  0.47179  0.90510  0.71256  1.0000
  H   H846      1.0  0.35819  0.90412  0.19516  1.0000
  C   C1048     1.0  0.35252  0.98465  0.05312  1.0000
  H   H847      1.0  0.24867  0.92005  0.81890  1.0000
  H   H848      1.0  0.37587  0.92540  0.18831  1.0000
  H   H849      1.0  0.37404  0.91567  0.47068  1.0000
  H   H850      1.0  0.32820  0.94791  0.05985  1.0000
  H   H851      1.0  0.27023  0.96103  0.81381  1.0000
  C   C1049     1.0  0.45217  0.97436  0.17884  1.0000
  C   C1050     1.0  0.45553  0.92749  0.49983  1.0000
  C   C1051     1.0  0.39636  0.96368  0.16048  1.0000
  Fe  Fe86      1.0  0.47145  0.93288  0.33000  1.0000
  C   C1052     1.0  0.47626  0.98885  0.87235  1.0000
  C   C1053     1.0  0.31320  0.97664  0.34878  1.0000
  H   H852      1.0  0.28456  0.91615  0.06628  1.0000
  H   H853      1.0  0.42705  0.91091  0.09278  1.0000
  C   C1054     1.0  0.41366  0.93996  0.58866  1.0000
  C   C1055     1.0  0.38775  0.91544  0.13955  1.0000
  H   H854      1.0  0.46552  0.97478  0.46005  1.0000
  C   C1056     1.0  0.31513  0.96336  0.29185  1.0000
  C   C1057     1.0  0.27983  0.88549  0.10859  1.0000
  H   H855      1.0  0.40051  0.91541  0.43686  1.0000
  C   C1058     1.0  0.30307  0.86240  0.10273  1.0000
  C   C1059     1.0  0.25767  0.91885  0.06778  1.0000
  C   C1060     1.0  0.38243  0.90425  0.60597  1.0000
  C   C1061     1.0  0.29351  0.87483  0.12327  1.0000
  H   H856      1.0  0.44657  0.88537  0.66823  1.0000
  H   H857      1.0  0.42489  0.96179  0.59094  1.0000
  H   H858      1.0  0.29694  0.87642  0.15038  1.0000
  H   H859      1.0  0.47540  0.96979  0.69977  1.0000
  H   H860      1.0  0.26907  0.93883  0.19547  1.0000
  S   S159      1.0  0.42472  0.98267  0.32488  1.0000
  C   C1062     1.0  0.39821  0.95051  0.65303  1.0000
  C   C1063     1.0  0.25766  0.94611  0.20591  1.0000
  C   C1064     1.0  0.39075  0.95977  0.40974  1.0000
  C   C1065     1.0  0.38719  0.97954  0.16790  1.0000
  C   C1066     1.0  0.42065  0.92076  0.07553  1.0000
  C   C1067     1.0  0.46973  0.90281  0.53198  1.0000
  S   S160      1.0  0.45763  0.94364  0.73686  1.0000
  H   H861      1.0  0.37612  0.96874  0.36465  1.0000
  H   H862      1.0  0.39244  0.95452  0.67826  1.0000
  C   C1068     1.0  0.39591  0.93542  0.63868  1.0000
  H   H863      1.0  0.42005  0.93604  0.56416  1.0000
  H   H864      1.0  0.48100  0.98456  0.28170  1.0000
  C   C1069     1.0  0.34127  0.97615  0.95820  1.0000
  H   H865      1.0  0.40959  0.96109  0.16559  1.0000
  H   H866      1.0  0.39335  0.98893  0.17870  1.0000
  H   H867      1.0  0.49078  0.94801  0.82049  1.0000
  C   C1070     1.0  0.44726  0.92737  0.17482  1.0000
  H   H868      1.0  0.45677  0.91583  0.22411  1.0000
  H   H869      1.0  0.27256  0.89504  0.12493  1.0000
  S   S161      1.0  0.48065  0.93626  0.66444  1.0000
  C   C1071     1.0  0.28794  0.96573  0.97311  1.0000
  H   H870      1.0  0.42238  0.98586  0.52796  1.0000
  C   C1072     1.0  0.30552  0.98459  0.85782  1.0000
  H   H871      1.0  0.25988  0.90276  0.90423  1.0000
  C   C1073     1.0  0.48274  0.97397  0.89050  1.0000
  C   C1074     1.0  0.37827  0.89086  0.11844  1.0000
  C   C1075     1.0  0.24541  0.90821  0.28161  1.0000
  C   C1076     1.0  0.37001  0.92822  0.01410  1.0000
  C   C1077     1.0  0.38855  0.90276  0.11458  1.0000
  C   C1078     1.0  0.46031  0.97680  0.48652  1.0000
  C   C1079     1.0  0.39891  0.94498  0.06542  1.0000
  C   C1080     1.0  0.37007  0.98324  0.16177  1.0000
  C   C1081     1.0  0.27358  0.89880  0.98904  1.0000
  C   C1082     1.0  0.44609  0.91877  0.20691  1.0000
  H   H872      1.0  0.34530  0.97403  0.28003  1.0000
  H   H873      1.0  0.41990  0.88013  0.55328  1.0000
  C   C1083     1.0  0.43108  0.91404  0.21708  1.0000
  H   H874      1.0  0.45893  0.93106  0.16709  1.0000
  H   H875      1.0  0.34882  0.97397  0.14313  1.0000
  P   P34       1.0  0.33475  0.97099  0.00257  1.0000
  C   C1084     1.0  0.43340  0.93129  0.15296  1.0000
  C   C1085     1.0  0.41721  0.91783  0.19526  1.0000
  H   H876      1.0  0.40573  0.91413  0.20418  1.0000
  C   C1086     1.0  0.40417  0.94573  0.03002  1.0000
  H   H877      1.0  0.47997  0.97420  0.78797  1.0000
  Fe  Fe87      1.0  0.46770  0.91478  0.65602  1.0000
  S   S162      1.0  0.46216  0.95317  0.36905  1.0000
  C   C1087     1.0  0.41830  0.92632  0.16274  1.0000
  C   C1088     1.0  0.35228  0.98384  0.88993  1.0000
  H   H878      1.0  0.33900  0.98288  0.80175  1.0000
  C   C1089     1.0  0.48667  0.95942  0.83496  1.0000
  H   H879      1.0  0.25688  0.98864  0.70019  1.0000
  H   H880      1.0  0.46293  0.96851  0.16341  1.0000
  C   C1090     1.0  0.44722  0.87126  0.62061  1.0000
  H   H881      1.0  0.29995  0.97628  0.25082  1.0000
  H   H882      1.0  0.26842  0.98363  0.33509  1.0000
  C   C1091     1.0  0.43967  0.86984  0.58825  1.0000
  C   C1092     1.0  0.43388  0.97404  0.22994  1.0000
  H   H883      1.0  0.48154  0.94470  0.55162  1.0000
  H   H884      1.0  0.39399  0.87867  0.61885  1.0000
  C   C1093     1.0  0.44299  0.98037  0.49081  1.0000
  C   C1094     1.0  0.47059  0.97559  0.51614  1.0000
  H   H885      1.0  0.28508  0.89788  0.00340  1.0000
  C   C1095     1.0  0.49444  0.94446  0.55772  1.0000
  H   H886      1.0  0.30628  0.85086  0.05172  1.0000
  H   H887      1.0  0.28204  0.96275  0.94922  1.0000
  H   H888      1.0  0.34674  0.98718  0.33759  1.0000
  C   C1096     1.0  0.35589  0.98862  0.31721  1.0000
  C   C1097     1.0  0.46382  0.98569  0.65735  1.0000
  C   C1098     1.0  0.39054  0.99326  0.42424  1.0000
  H   H889      1.0  0.25785  0.96449  0.09550  1.0000
  C   C1099     1.0  0.38212  0.98924  0.39458  1.0000
  C   C1100     1.0  0.48881  0.98959  0.68719  1.0000
  H   H890      1.0  0.47687  0.89022  0.53167  1.0000
  H   H891      1.0  0.41761  0.99409  0.12241  1.0000
  H   H892      1.0  0.28304  0.98665  0.66655  1.0000
  C   C1101     1.0  0.35499  0.98110  0.28468  1.0000
  H   H893      1.0  0.26828  0.98232  0.24258  1.0000
  H   H894      1.0  0.26242  0.98064  0.17895  1.0000
  H   H895      1.0  0.25952  0.95215  0.87135  1.0000
  C   C1102     1.0  0.27053  0.99218  0.22456  1.0000
  H   H896      1.0  0.35649  0.98684  0.86354  1.0000
  C   C1103     1.0  0.29117  0.98910  0.72009  1.0000
  C   C1104     1.0  0.47465  0.98902  0.83539  1.0000
  S   S163      1.0  0.49422  0.93548  0.29449  1.0000
  H   H897      1.0  0.49348  0.93318  0.41187  1.0000
  P   P35       1.0  0.49297  0.97169  0.51107  1.0000
  C   C1105     1.0  0.44750  0.99334  0.76965  1.0000
  Fe  Fe88      1.0  0.64166  0.08074  0.21331  1.0000
  S   S164      1.0  0.65165  0.07133  0.16037  1.0000
  S   S165      1.0  0.65633  0.08768  0.25999  1.0000
  Fe  Fe89      1.0  0.60641  0.07244  0.19974  1.0000
  S   S166      1.0  0.61402  0.06273  0.14511  1.0000
  S   S167      1.0  0.58455  0.06527  0.23213  1.0000
  Fe  Fe90      1.0  0.63787  0.05036  0.17023  1.0000
  S   S168      1.0  0.64862  0.02350  0.16017  1.0000
  Fe  Fe91      1.0  0.62707  0.08454  0.13840  1.0000
  S   S169      1.0  0.62924  0.09781  0.08489  1.0000
  S   S170      1.0  0.62986  0.05846  0.22472  1.0000
  S   S171      1.0  0.61766  0.09570  0.19155  1.0000
  Fe  Fe92      1.0  0.64261  0.08398  0.81768  1.0000
  S   S172      1.0  0.64665  0.06770  0.86697  1.0000
  S   S173      1.0  0.66029  0.10055  0.79537  1.0000
  Fe  Fe93      1.0  0.60945  0.07263  0.79962  1.0000
  S   S174      1.0  0.61131  0.05577  0.84763  1.0000
  S   S175      1.0  0.59237  0.06963  0.75367  1.0000
  Fe  Fe94      1.0  0.61923  0.07635  0.87810  1.0000
  S   S176      1.0  0.60687  0.07815  0.93338  1.0000
  Fe  Fe95      1.0  0.63833  0.04854  0.83333  1.0000
  S   S177      1.0  0.65124  0.02172  0.83346  1.0000
  S   S178      1.0  0.61536  0.09419  0.83052  1.0000
  S   S179      1.0  0.63636  0.06398  0.78362  1.0000
  P   P36       1.0  0.59415  0.14003  0.92601  1.0000
  C   C1106     1.0  0.58185  0.00127  0.98018  1.0000
  H   H898      1.0  0.50000  0.02917  0.47933  1.0000
  C   C1107     1.0  0.65454  0.08296  0.61668  1.0000
  H   H899      1.0  0.54202  0.00755  0.70898  1.0000
  H   H900      1.0  0.63277  0.00129  0.25553  1.0000
  H   H901      1.0  0.54214  0.14424  0.85761  1.0000
  H   H902      1.0  0.72196  0.05859  0.18547  1.0000
  H   H903      1.0  0.65935  0.05051  0.64083  1.0000
  H   H904      1.0  0.56131  0.15538  0.89612  1.0000
  C   C1108     1.0  0.68832  0.09885  0.61691  1.0000
  H   H905      1.0  0.66856  0.02490  0.74104  1.0000
  C   C1109     1.0  0.68172  0.09364  0.78410  1.0000
  C   C1110     1.0  0.69008  0.10384  0.76243  1.0000
  C   C1111     1.0  0.70706  0.09867  0.75279  1.0000
  C   C1112     1.0  0.71589  0.08322  0.76486  1.0000
  C   C1113     1.0  0.70749  0.07304  0.78645  1.0000
  C   C1114     1.0  0.69053  0.07817  0.79590  1.0000
  H   H906      1.0  0.68340  0.11583  0.75312  1.0000
  H   H907      1.0  0.71336  0.10675  0.73654  1.0000
  H   H908      1.0  0.71419  0.06115  0.79618  1.0000
  H   H909      1.0  0.68429  0.07028  0.81271  1.0000
  C   C1115     1.0  0.62489  0.08983  0.04327  1.0000
  C   C1116     1.0  0.63280  0.09471  0.01233  1.0000
  C   C1117     1.0  0.62831  0.09013  0.97853  1.0000
  C   C1118     1.0  0.61537  0.08123  0.97521  1.0000
  C   C1119     1.0  0.60783  0.07590  0.00617  1.0000
  C   C1120     1.0  0.61272  0.07996  0.04002  1.0000
  H   H910      1.0  0.64222  0.10235  0.01451  1.0000
  H   H911      1.0  0.63434  0.09410  0.95498  1.0000
  H   H912      1.0  0.59775  0.06909  0.00393  1.0000
  H   H913      1.0  0.60638  0.07630  0.06351  1.0000
  C   C1121     1.0  0.67808  0.08823  0.26081  1.0000
  C   C1122     1.0  0.68786  0.08801  0.22986  1.0000
  C   C1123     1.0  0.70474  0.08971  0.23171  1.0000
  C   C1124     1.0  0.71219  0.09118  0.26451  1.0000
  C   C1125     1.0  0.70258  0.09076  0.29552  1.0000
  C   C1126     1.0  0.68559  0.08955  0.29360  1.0000
  H   H914      1.0  0.68230  0.08703  0.20444  1.0000
  H   H915      1.0  0.71201  0.09007  0.20754  1.0000
  H   H916      1.0  0.70808  0.09190  0.32094  1.0000
  H   H917      1.0  0.67817  0.08978  0.31771  1.0000
  H   H918      1.0  0.66518  0.02649  0.98849  1.0000
  C   C1127     1.0  0.59254  0.02223  0.10585  1.0000
  H   H919      1.0  0.72182  0.05062  0.68086  1.0000
  C   C1128     1.0  0.63632  0.00875  0.83514  1.0000
  C   C1129     1.0  0.62037  0.01432  0.82161  1.0000
  C   C1130     1.0  0.60820  0.00431  0.82514  1.0000
  H   H920      1.0  0.62880  0.13401  0.74687  1.0000
  P   P37       1.0  0.63942  0.01599  0.03322  1.0000
  H   H921      1.0  0.61730  0.02641  0.80872  1.0000
  H   H922      1.0  0.59577  0.00885  0.81544  1.0000
  C   C1131     1.0  0.55752  0.11978  0.85458  1.0000
  C   C1132     1.0  0.63179  0.01699  0.98859  1.0000
  H   H923      1.0  0.60689  0.13731  0.85301  1.0000
  C   C1133     1.0  0.63308  0.01204  0.17199  1.0000
  C   C1134     1.0  0.61741  0.02028  0.18381  1.0000
  C   C1135     1.0  0.60490  0.01121  0.19282  1.0000
  H   H924      1.0  0.63121  0.07918  0.52924  1.0000
  C   C1136     1.0  0.66271  0.03496  0.01047  1.0000
  H   H925      1.0  0.61480  0.03365  0.18619  1.0000
  H   H926      1.0  0.59274  0.01771  0.20155  1.0000
  C   C1137     1.0  0.53530  0.08310  0.73870  1.0000
  C   C1138     1.0  0.54550  0.07238  0.71548  1.0000
  C   C1139     1.0  0.56288  0.06838  0.72061  1.0000
  C   C1140     1.0  0.57027  0.07462  0.74955  1.0000
  C   C1141     1.0  0.56003  0.08502  0.77328  1.0000
  C   C1142     1.0  0.54268  0.08938  0.76761  1.0000
  H   H927      1.0  0.54005  0.06764  0.69289  1.0000
  H   H928      1.0  0.57067  0.06056  0.70173  1.0000
  H   H929      1.0  0.56551  0.09003  0.79541  1.0000
  H   H930      1.0  0.53493  0.09777  0.78558  1.0000
  C   C1143     1.0  0.52826  0.08406  0.25421  1.0000
  C   C1144     1.0  0.53683  0.09238  0.22887  1.0000
  C   C1145     1.0  0.55405  0.08698  0.22187  1.0000
  C   C1146     1.0  0.56290  0.07306  0.24001  1.0000
  C   C1147     1.0  0.55435  0.06482  0.26553  1.0000
  C   C1148     1.0  0.53720  0.07033  0.27278  1.0000
  H   H931      1.0  0.56043  0.09349  0.20226  1.0000
  H   H932      1.0  0.56100  0.05398  0.27959  1.0000
  H   H933      1.0  0.53087  0.06381  0.29239  1.0000
  H   H934      1.0  0.61493  0.01941  0.89289  1.0000
  H   H935      1.0  0.67682  0.03761  0.12512  1.0000
  C   C1149     1.0  0.64844  0.04348  0.06584  1.0000
  C   C1150     1.0  0.66309  0.07486  0.58741  1.0000
  P   P38       1.0  0.71552  0.02882  0.22583  1.0000
  H   H936      1.0  0.66598  0.00631  0.24047  1.0000
  C   C1151     1.0  0.70687  0.03930  0.18574  1.0000
  C   C1152     1.0  0.71237  0.05361  0.17242  1.0000
  C   C1153     1.0  0.70519  0.06200  0.14223  1.0000
  C   C1154     1.0  0.69252  0.05614  0.12496  1.0000
  C   C1155     1.0  0.68695  0.04193  0.13795  1.0000
  C   C1156     1.0  0.69398  0.03363  0.16835  1.0000
  C   C1157     1.0  0.56981  0.99597  0.28160  1.0000
  C   C1158     1.0  0.57646  0.17049  0.94970  1.0000
  H   H937      1.0  0.57803  0.21110  0.92945  1.0000
  C   C1159     1.0  0.65369  0.10036  0.68490  1.0000
  H   H938      1.0  0.66885  0.11899  0.67236  1.0000
  C   C1160     1.0  0.70185  0.03693  0.26229  1.0000
  C   C1161     1.0  0.70842  0.03975  0.29526  1.0000
  C   C1162     1.0  0.69783  0.04658  0.32291  1.0000
  C   C1163     1.0  0.68059  0.05026  0.31820  1.0000
  C   C1164     1.0  0.67392  0.04702  0.28592  1.0000
  C   C1165     1.0  0.68447  0.04041  0.25806  1.0000
  H   H939      1.0  0.61579  0.09303  0.58111  1.0000
  C   C1166     1.0  0.58628  0.02982  0.98503  1.0000
  C   C1167     1.0  0.57836  0.02016  0.92892  1.0000
  H   H940      1.0  0.65314  0.01495  0.35289  1.0000
  C   C1168     1.0  0.62899  0.03224  0.96954  1.0000
  H   H941      1.0  0.68677  0.06285  0.10201  1.0000
  C   C1169     1.0  0.72519  0.03461  0.72710  1.0000
  H   H942      1.0  0.68904  0.02302  0.17866  1.0000
  H   H943      1.0  0.72847  0.05813  0.24836  1.0000
  C   C1170     1.0  0.58328  0.11576  0.88691  1.0000
  C   C1171     1.0  0.65120  0.03249  0.03736  1.0000
  H   H944      1.0  0.62151  0.04463  0.92007  1.0000
  H   H945      1.0  0.61252  0.04804  0.30343  1.0000
  H   H946      1.0  0.72171  0.03693  0.29964  1.0000
  H   H947      1.0  0.70304  0.04937  0.34773  1.0000
  H   H948      1.0  0.67241  0.05605  0.33917  1.0000
  H   H949      1.0  0.66058  0.05028  0.28192  1.0000
  H   H950      1.0  0.67894  0.03840  0.23315  1.0000
  H   H951      1.0  0.71969  0.00517  0.16690  1.0000
  C   C1172     1.0  0.68581  0.08940  0.64752  1.0000
  C   C1173     1.0  0.66693  0.06027  0.03822  1.0000
  H   H952      1.0  0.63111  0.04366  0.98122  1.0000
  H   H953      1.0  0.56962  0.16318  0.96678  1.0000
  C   C1174     1.0  0.67231  0.05020  0.73907  1.0000
  H   H954      1.0  0.58980  0.03959  0.00054  1.0000
  H   H955      1.0  0.65328  0.06640  0.08680  1.0000
  H   H956      1.0  0.67826  0.10305  0.59872  1.0000
  H   H957      1.0  0.58900  0.04829  0.09081  1.0000
  C   C1175     1.0  0.55364  0.13630  0.86590  1.0000
  C   C1176     1.0  0.62271  0.01168  0.67861  1.0000
  C   C1177     1.0  0.62334  0.03294  0.93484  1.0000
  H   H958      1.0  0.57917  0.11270  0.95878  1.0000
  H   H959      1.0  0.67242  0.07140  0.03800  1.0000
  C   C1178     1.0  0.62979  0.02310  0.73346  1.0000
  H   H960      1.0  0.54907  0.11493  0.83755  1.0000
  C   C1179     1.0  0.62855  0.12760  0.92925  1.0000
  H   H961      1.0  0.50667  0.05817  0.49253  1.0000
  C   C1180     1.0  0.66819  0.03597  0.72456  1.0000
  C   C1181     1.0  0.59116  0.12047  0.04120  1.0000
  H   H962      1.0  0.70593  0.01193  0.34784  1.0000
  C   C1182     1.0  0.61728  0.13323  0.87046  1.0000
  H   H963      1.0  0.62709  0.12714  0.95774  1.0000
  C   C1183     1.0  0.70385  0.10329  0.60982  1.0000
  C   C1184     1.0  0.71685  0.09872  0.63360  1.0000
  C   C1185     1.0  0.71440  0.08952  0.66424  1.0000
  C   C1186     1.0  0.69902  0.08478  0.67112  1.0000
  H   H964      1.0  0.70578  0.11050  0.58610  1.0000
  H   H965      1.0  0.72882  0.10239  0.62839  1.0000
  H   H966      1.0  0.72437  0.08622  0.68307  1.0000
  H   H967      1.0  0.69755  0.07786  0.69532  1.0000
  C   C1187     1.0  0.71560  0.99719  0.25526  1.0000
  H   H968      1.0  0.65895  0.11766  0.86593  1.0000
  C   C1188     1.0  0.55749  0.10285  0.46954  1.0000
  C   C1189     1.0  0.56038  0.08892  0.49241  1.0000
  C   C1190     1.0  0.56490  0.07290  0.47864  1.0000
  C   C1191     1.0  0.56639  0.07076  0.44197  1.0000
  C   C1192     1.0  0.56317  0.08467  0.41883  1.0000
  C   C1193     1.0  0.55894  0.10075  0.43288  1.0000
  P   P39       1.0  0.56444  0.08210  0.37141  1.0000
  C   C1194     1.0  0.58403  0.08642  0.35366  1.0000
  C   C1195     1.0  0.56234  0.06091  0.36194  1.0000
  C   C1196     1.0  0.57641  0.04874  0.35347  1.0000
  C   C1197     1.0  0.57472  0.03228  0.34714  1.0000
  C   C1198     1.0  0.55907  0.02773  0.35015  1.0000
  C   C1199     1.0  0.54510  0.03966  0.35938  1.0000
  C   C1200     1.0  0.54669  0.05616  0.36505  1.0000
  C   C1201     1.0  0.58889  0.08209  0.31875  1.0000
  C   C1202     1.0  0.60393  0.08534  0.30448  1.0000
  C   C1203     1.0  0.61436  0.09284  0.32507  1.0000
  C   C1204     1.0  0.60968  0.09717  0.35996  1.0000
  C   C1205     1.0  0.59457  0.09400  0.37426  1.0000
  C   C1206     1.0  0.54687  0.09617  0.35237  1.0000
  C   C1207     1.0  0.53129  0.09878  0.37008  1.0000
  C   C1208     1.0  0.51749  0.10913  0.35506  1.0000
  C   C1209     1.0  0.51916  0.11720  0.32255  1.0000
  C   C1210     1.0  0.53465  0.11498  0.30511  1.0000
  C   C1211     1.0  0.54844  0.10443  0.31976  1.0000
  H   H969      1.0  0.55390  0.11526  0.48022  1.0000
  H   H970      1.0  0.55899  0.09055  0.52081  1.0000
  H   H971      1.0  0.56705  0.06211  0.49639  1.0000
  H   H972      1.0  0.56979  0.05824  0.43185  1.0000
  H   H973      1.0  0.55653  0.11166  0.41545  1.0000
  H   H974      1.0  0.58871  0.05185  0.35181  1.0000
  H   H975      1.0  0.58557  0.02306  0.33996  1.0000
  H   H976      1.0  0.57537  0.09666  0.85663  1.0000
  S   S180      1.0  0.50505  0.01552  0.67256  1.0000
  H   H977      1.0  0.53561  0.06506  0.37205  1.0000
  H   H978      1.0  0.58096  0.07626  0.30249  1.0000
  H   H979      1.0  0.60743  0.08212  0.27728  1.0000
  H   H980      1.0  0.62601  0.09537  0.31378  1.0000
  H   H981      1.0  0.61775  0.10311  0.37577  1.0000
  H   H982      1.0  0.59119  0.09753  0.40123  1.0000
  H   H983      1.0  0.52964  0.09256  0.39520  1.0000
  H   H984      1.0  0.50538  0.11059  0.36820  1.0000
  H   H985      1.0  0.50834  0.12473  0.31026  1.0000
  H   H986      1.0  0.53579  0.12088  0.27941  1.0000
  H   H987      1.0  0.56008  0.10258  0.30499  1.0000
  H   H988      1.0  0.52673  0.03532  0.78866  1.0000
  S   S181      1.0  0.49923  0.05461  0.32641  1.0000
  C   C1212     1.0  0.73057  0.02820  0.55141  1.0000
  H   H989      1.0  0.60568  0.13887  0.05414  1.0000
  H   H990      1.0  0.64015  0.04156  0.08767  1.0000
  C   C1213     1.0  0.73902  0.08323  0.51527  1.0000
  C   C1214     1.0  0.65822  0.11609  0.68713  1.0000
  C   C1215     1.0  0.58216  0.03296  0.94949  1.0000
  C   C1216     1.0  0.64919  0.12822  0.70926  1.0000
  C   C1217     1.0  0.55484  0.00710  0.71639  1.0000
  C   C1218     1.0  0.56076  0.02207  0.71912  1.0000
  C   C1219     1.0  0.57702  0.02185  0.73031  1.0000
  P   P40       1.0  0.53762  0.99512  0.25847  1.0000
  H   H991      1.0  0.63633  0.08487  0.70422  1.0000
  H   H992      1.0  0.56269  0.19397  0.96836  1.0000
  C   C1220     1.0  0.64457  0.01774  0.33118  1.0000
  C   C1221     1.0  0.71555  0.03574  0.56758  1.0000
  C   C1222     1.0  0.62036  0.02467  0.70279  1.0000
  H   H993      1.0  0.67395  0.07587  0.73052  1.0000
  C   C1223     1.0  0.67155  0.06470  0.71838  1.0000
  C   C1224     1.0  0.57952  0.13230  0.89842  1.0000
  H   H994      1.0  0.67885  0.05106  0.98935  1.0000
  C   C1225     1.0  0.50606  0.03376  0.82438  1.0000
  S   S182      1.0  0.51357  0.08989  0.73134  1.0000
  H   H995      1.0  0.70925  0.07324  0.13263  1.0000
  S   S183      1.0  0.73329  0.09415  0.26527  1.0000
  H   H996      1.0  0.65295  0.14021  0.71153  1.0000
  H   H997      1.0  0.55256  0.03389  0.71346  1.0000
  H   H998      1.0  0.58143  0.03349  0.73356  1.0000
  C   C1226     1.0  0.51557  0.03010  0.79336  1.0000
  S   S184      1.0  0.73748  0.07614  0.75505  1.0000
  H   H999      1.0  0.58185  0.02377  0.12377  1.0000
  H   H1000     1.0  0.53008  0.10308  0.21448  1.0000
  C   C1227     1.0  0.58916  0.16257  0.92685  1.0000
  C   C1228     1.0  0.63997  0.09698  0.70504  1.0000
  C   C1229     1.0  0.69045  0.03784  0.84453  1.0000
  C   C1230     1.0  0.65611  0.05745  0.06585  1.0000
  C   C1231     1.0  0.60016  0.13964  0.99839  1.0000
  C   C1232     1.0  0.66317  0.05057  0.66803  1.0000
  C   C1233     1.0  0.50529  0.01137  0.56174  1.0000
  C   C1234     1.0  0.66357  0.03613  0.68908  1.0000
  S   S185      1.0  0.50650  0.09136  0.26195  1.0000
  H   H1001     1.0  0.62056  0.10633  0.74289  1.0000
  C   C1235     1.0  0.59663  0.03602  0.08743  1.0000
  H   H1002     1.0  0.62779  0.03311  0.75240  1.0000
  C   C1236     1.0  0.63769  0.08013  0.55365  1.0000
  H   H1003     1.0  0.59472  0.10767  0.89487  1.0000
  H   H1004     1.0  0.67703  0.04079  0.84196  1.0000
  H   H1005     1.0  0.60762  0.16661  0.88704  1.0000
  C   C1237     1.0  0.57232  0.10950  0.86520  1.0000
  C   C1238     1.0  0.63737  0.08936  0.61427  1.0000
  C   C1239     1.0  0.61079  0.03406  0.06529  1.0000
  H   H1006     1.0  0.60045  0.19728  0.88889  1.0000
  H   H1007     1.0  0.61220  0.02771  0.25629  1.0000
  H   H1008     1.0  0.61510  0.01273  0.65522  1.0000
  H   H1009     1.0  0.63035  0.09548  0.63643  1.0000
  C   C1240     1.0  0.49718  0.00402  0.49294  1.0000
  C   C1241     1.0  0.57247  0.18794  0.95061  1.0000
  C   C1242     1.0  0.65472  0.07356  0.55596  1.0000
  H   H1010     1.0  0.60674  0.14980  0.99267  1.0000
  C   C1243     1.0  0.59374  0.18980  0.90584  1.0000
  C   C1244     1.0  0.58111  0.19759  0.92870  1.0000
  C   C1245     1.0  0.63092  0.10916  0.72694  1.0000
  C   C1246     1.0  0.62189  0.00361  0.93858  1.0000
  C   C1247     1.0  0.53754  0.01517  0.23696  1.0000
  H   H1011     1.0  0.73850  0.04409  0.49004  1.0000
  C   C1248     1.0  0.52152  0.00873  0.32002  1.0000
  C   C1249     1.0  0.51155  0.00842  0.35060  1.0000
  C   C1250     1.0  0.64166  0.00865  0.73994  1.0000
  C   C1251     1.0  0.71602  0.00659  0.22382  1.0000
  H   H1012     1.0  0.49634  0.06567  0.55366  1.0000
  C   C1252     1.0  0.52384  0.02828  0.24064  1.0000
  C   C1253     1.0  0.52375  0.04361  0.22318  1.0000
  C   C1254     1.0  0.53735  0.04594  0.20183  1.0000
  C   C1255     1.0  0.55091  0.03285  0.19740  1.0000
  C   C1256     1.0  0.55086  0.01740  0.21429  1.0000
  H   H1013     1.0  0.71474  0.00318  0.28057  1.0000
  H   H1014     1.0  0.72765  0.07824  0.51475  1.0000
  C   C1257     1.0  0.73645  0.03246  0.23247  1.0000
  C   C1258     1.0  0.70076  0.00070  0.34552  1.0000
  H   H1015     1.0  0.74459  0.04343  0.79916  1.0000
  C   C1259     1.0  0.50071  0.01972  0.50024  1.0000
  H   H1016     1.0  0.66146  0.06752  0.53329  1.0000
  S   S186      1.0  0.50249  0.06344  0.64698  1.0000
  H   H1017     1.0  0.53295  0.03622  0.36225  1.0000
  H   H1018     1.0  0.52713  0.01951  0.31417  1.0000
  H   H1019     1.0  0.50933  0.01903  0.36798  1.0000
  C   C1260     1.0  0.65381  0.99678  0.04249  1.0000
  H   H1020     1.0  0.70618  0.00118  0.74218  1.0000
  H   H1021     1.0  0.72998  0.06407  0.61729  1.0000
  H   H1022     1.0  0.51329  0.05384  0.22687  1.0000
  H   H1023     1.0  0.53750  0.05803  0.18933  1.0000
  H   H1024     1.0  0.56157  0.03475  0.18133  1.0000
  C   C1261     1.0  0.58635  0.01399  0.00021  1.0000
  C   C1262     1.0  0.67046  0.04887  0.01081  1.0000
  H   H1025     1.0  0.59103  0.11553  0.06810  1.0000
  H   H1026     1.0  0.73852  0.08549  0.57214  1.0000
  H   H1027     1.0  0.73062  0.01814  0.53308  1.0000
  H   H1028     1.0  0.56744  0.00918  0.27507  1.0000
  C   C1263     1.0  0.70335  0.01693  0.69579  1.0000
  C   C1264     1.0  0.70760  0.03087  0.67837  1.0000
  H   H1029     1.0  0.50799  0.01439  0.58862  1.0000
  H   H1030     1.0  0.65489  0.11757  0.93130  1.0000
  C   C1265     1.0  0.72127  0.02035  0.74448  1.0000
  C   C1266     1.0  0.70990  0.01184  0.72895  1.0000
  C   C1267     1.0  0.62772  0.00280  0.97323  1.0000
  C   C1268     1.0  0.71772  0.02528  0.82100  1.0000
  H   H1031     1.0  0.63499  0.12762  0.82716  1.0000
  P   P41       1.0  0.73027  0.01355  0.78690  1.0000
  C   C1269     1.0  0.69787  0.04307  0.87418  1.0000
  C   C1270     1.0  0.71518  0.03914  0.87771  1.0000
  H   H1032     1.0  0.67756  0.99807  0.18143  1.0000
  C   C1271     1.0  0.64671  0.12217  0.87758  1.0000
  H   H1033     1.0  0.66014  0.02512  0.67806  1.0000
  H   H1034     1.0  0.73356  0.04175  0.73857  1.0000
  H   H1035     1.0  0.69474  0.01022  0.68385  1.0000
  H   H1036     1.0  0.70234  0.03482  0.65289  1.0000
  H   H1037     1.0  0.57760  0.10271  0.02032  1.0000
  H   H1038     1.0  0.67627  0.06968  0.58879  1.0000
  H   H1039     1.0  0.55775  0.01497  0.34552  1.0000
  H   H1040     1.0  0.67557  0.05024  0.76673  1.0000
  C   C1272     1.0  0.63556  0.12475  0.72916  1.0000
  C   C1273     1.0  0.59777  0.17235  0.90487  1.0000
  H   H1041     1.0  0.69016  0.05016  0.89438  1.0000
  C   C1274     1.0  0.63317  0.12781  0.85568  1.0000
  H   H1042     1.0  0.61104  0.03586  0.69825  1.0000
  C   C1275     1.0  0.62902  0.08797  0.58282  1.0000
  C   C1276     1.0  0.56457  0.14257  0.88779  1.0000
  C   C1277     1.0  0.71845  0.03977  0.69411  1.0000
  H   H1043     1.0  0.69429  0.02499  0.79535  1.0000
  H   H1044     1.0  0.58253  0.04514  0.93757  1.0000
  C   C1278     1.0  0.62141  0.03636  0.30395  1.0000
  H   H1045     1.0  0.73843  0.02693  0.85488  1.0000
  C   C1279     1.0  0.59947  0.13363  0.03326  1.0000
  C   C1280     1.0  0.58743  0.00665  0.73844  1.0000
  H   H1046     1.0  0.70374  0.05482  0.60344  1.0000
  C   C1281     1.0  0.49588  0.01357  0.77347  1.0000
  C   C1282     1.0  0.64441  0.12211  0.91434  1.0000
  C   C1283     1.0  0.61483  0.13314  0.90740  1.0000
  P   P42       1.0  0.66548  0.08430  0.65736  1.0000
  C   C1284     1.0  0.59278  0.13231  0.97104  1.0000
  C   C1285     1.0  0.58365  0.11321  0.01424  1.0000
  C   C1286     1.0  0.64497  0.00646  0.30346  1.0000
  C   C1287     1.0  0.63299  0.03277  0.33107  1.0000
  C   C1288     1.0  0.66723  0.06498  0.68262  1.0000
  C   C1289     1.0  0.58461  0.11894  0.97922  1.0000
  C   C1290     1.0  0.51051  0.01994  0.76807  1.0000
  C   C1291     1.0  0.70031  0.02897  0.81802  1.0000
  C   C1292     1.0  0.72508  0.03010  0.85142  1.0000
  H   H1047     1.0  0.73893  0.13667  0.41991  1.0000
  C   C1293     1.0  0.62130  0.02489  0.27710  1.0000
  C   C1294     1.0  0.60242  0.00643  0.10159  1.0000
  Fe  Fe96      1.0  0.49669  0.07653  0.69914  1.0000
  H   H1048     1.0  0.50997  0.04173  0.84386  1.0000
  C   C1295     1.0  0.61664  0.00447  0.07968  1.0000
  H   H1049     1.0  0.61378  0.04483  0.05107  1.0000
  H   H1050     1.0  0.63297  0.04167  0.35196  1.0000
  C   C1296     1.0  0.56149  0.99573  0.09668  1.0000
  H   H1051     1.0  0.59006  0.01164  0.02743  1.0000
  H   H1052     1.0  0.55483  0.00706  0.10868  1.0000
  H   H1053     1.0  0.50769  0.03545  0.54035  1.0000
  C   C1297     1.0  0.57834  0.00433  0.94408  1.0000
  C   C1298     1.0  0.63305  0.01001  0.27672  1.0000
  H   H1054     1.0  0.51769  0.01730  0.74379  1.0000
  S   S187      1.0  0.73779  0.08359  0.44289  1.0000
  H   H1055     1.0  0.51320  0.02675  0.25690  1.0000
  H   H1056     1.0  0.67845  0.99707  0.76587  1.0000
  H   H1057     1.0  0.65133  0.99936  0.09933  1.0000
  H   H1058     1.0  0.67910  0.01308  0.31770  1.0000
  C   C1299     1.0  0.71531  0.04881  0.59106  1.0000
  C   C1300     1.0  0.73010  0.05409  0.59886  1.0000
  C   C1301     1.0  0.50495  0.02332  0.53455  1.0000
  H   H1059     1.0  0.74238  0.00836  0.30490  1.0000
  C   C1302     1.0  0.62118  0.01836  0.06200  1.0000
  H   H1060     1.0  0.73732  0.04876  0.42566  1.0000
  C   C1303     1.0  0.61978  0.01866  0.91939  1.0000
  H   H1061     1.0  0.73985  0.13405  0.48540  1.0000
  H   H1062     1.0  0.56133  0.00727  0.21005  1.0000
  H   H1063     1.0  0.72093  0.04314  0.90078  1.0000
  H   H1064     1.0  0.59987  0.00648  0.74809  1.0000
  C   C1304     1.0  0.71853  0.99829  0.19140  1.0000
  H   H1065     1.0  0.70412  0.03151  0.56169  1.0000
  C   C1305     1.0  0.52395  0.99529  0.29675  1.0000
  C   C1306     1.0  0.68549  0.00133  0.32881  1.0000
  H   H1066     1.0  0.57584  0.02237  0.90097  1.0000
  H   H1067     1.0  0.64848  0.00768  0.76427  1.0000
  H   H1068     1.0  0.56209  0.00689  0.04487  1.0000
  H   H1069     1.0  0.59463  0.99634  0.29943  1.0000
  C   C1307     1.0  0.73897  0.04810  0.24368  1.0000
  H   H1070     1.0  0.59924  0.99573  0.11593  1.0000
  C   C1308     1.0  0.63472  0.99728  0.68482  1.0000
  C   C1309     1.0  0.64453  0.99575  0.71532  1.0000
  C   C1310     1.0  0.50411  0.99459  0.35822  1.0000
  C   C1311     1.0  0.56581  0.99561  0.06059  1.0000
  C   C1312     1.0  0.50179  0.99566  0.55448  1.0000
  H   H1071     1.0  0.49631  0.99435  0.38166  1.0000
  H   H1072     1.0  0.57591  0.99446  0.92732  1.0000
  C   C1313     1.0  0.63629  0.99463  0.16981  1.0000
  H   H1073     1.0  0.74427  0.38895  0.88858  1.0000
  C   C1314     1.0  0.58364  0.92517  0.72351  1.0000
  C   C1315     1.0  0.50257  0.93203  0.58071  1.0000
  C   C1316     1.0  0.67637  0.98635  0.78144  1.0000
  C   C1317     1.0  0.49886  0.94326  0.42223  1.0000
  C   C1318     1.0  0.68809  0.97144  0.33797  1.0000
  C   C1319     1.0  0.60342  0.97003  0.99598  1.0000
  C   C1320     1.0  0.51790  0.96583  0.64556  1.0000
  C   C1321     1.0  0.67524  0.79995  0.80989  1.0000
  H   H1074     1.0  0.73615  0.95476  0.75042  1.0000
  Fe  Fe97      1.0  0.73700  0.92164  0.34488  1.0000
  C   C1322     1.0  0.67727  0.95945  0.21679  1.0000
  C   C1323     1.0  0.71982  0.98092  0.19049  1.0000
  Fe  Fe98      1.0  0.59158  0.92410  0.23533  1.0000
  S   S188      1.0  0.58175  0.93966  0.18840  1.0000
  S   S189      1.0  0.57417  0.91665  0.27920  1.0000
  Fe  Fe99      1.0  0.62848  0.92497  0.21373  1.0000
  S   S190      1.0  0.62059  0.94079  0.16468  1.0000
  S   S191      1.0  0.65706  0.91877  0.22153  1.0000
  Fe  Fe100     1.0  0.60084  0.95502  0.20010  1.0000
  S   S192      1.0  0.59207  0.98280  0.20013  1.0000
  Fe  Fe101     1.0  0.60218  0.92416  0.15595  1.0000
  S   S193      1.0  0.59314  0.91875  0.10122  1.0000
  S   S194      1.0  0.60969  0.94067  0.24939  1.0000
  S   S195      1.0  0.61106  0.90699  0.20254  1.0000
  Fe  Fe102     1.0  0.59614  0.91577  0.83491  1.0000
  S   S196      1.0  0.59358  0.93197  0.88317  1.0000
  S   S197      1.0  0.57677  0.90239  0.81076  1.0000
  Fe  Fe103     1.0  0.63254  0.92046  0.81877  1.0000
  S   S198      1.0  0.63248  0.93709  0.86499  1.0000
  S   S199      1.0  0.65277  0.91590  0.77521  1.0000
  Fe  Fe104     1.0  0.61968  0.91905  0.89616  1.0000
  S   S200      1.0  0.63103  0.91333  0.95085  1.0000
  Fe  Fe105     1.0  0.60657  0.94876  0.84930  1.0000
  C   C1324     1.0  0.58157  0.99167  0.73572  1.0000
  S   S201      1.0  0.62152  0.90124  0.85046  1.0000
  S   S202      1.0  0.60732  0.93367  0.80039  1.0000
  C   C1325     1.0  0.67464  0.91558  0.77504  1.0000
  C   C1326     1.0  0.68332  0.91468  0.74236  1.0000
  C   C1327     1.0  0.70069  0.91406  0.74058  1.0000
  C   C1328     1.0  0.70971  0.91383  0.77169  1.0000
  C   C1329     1.0  0.70105  0.91478  0.80446  1.0000
  C   C1330     1.0  0.68360  0.91578  0.80616  1.0000
  H   H1075     1.0  0.67662  0.91418  0.71821  1.0000
  H   H1076     1.0  0.70717  0.91313  0.71521  1.0000
  H   H1077     1.0  0.70792  0.91450  0.82872  1.0000
  H   H1078     1.0  0.67715  0.91637  0.83153  1.0000
  C   C1331     1.0  0.60390  0.91805  0.05969  1.0000
  C   C1332     1.0  0.59495  0.91710  0.02857  1.0000
  C   C1333     1.0  0.60302  0.91592  0.99508  1.0000
  C   C1334     1.0  0.62017  0.91561  0.99230  1.0000
  C   C1335     1.0  0.62914  0.91653  0.02340  1.0000
  C   C1336     1.0  0.62103  0.91796  0.05689  1.0000
  H   H1079     1.0  0.58172  0.91705  0.03047  1.0000
  H   H1080     1.0  0.59604  0.91487  0.97149  1.0000
  H   H1081     1.0  0.64244  0.91610  0.02162  1.0000
  H   H1082     1.0  0.62809  0.91856  0.08059  1.0000
  C   C1337     1.0  0.67126  0.91901  0.25700  1.0000
  C   C1338     1.0  0.66601  0.92097  0.29243  1.0000
  C   C1339     1.0  0.67773  0.92134  0.31936  1.0000
  C   C1340     1.0  0.69490  0.91977  0.31138  1.0000
  C   C1341     1.0  0.70016  0.91783  0.27594  1.0000
  C   C1342     1.0  0.68846  0.91724  0.24912  1.0000
  H   H1083     1.0  0.65296  0.92187  0.29910  1.0000
  H   H1084     1.0  0.71328  0.91645  0.26925  1.0000
  H   H1085     1.0  0.69276  0.91547  0.22195  1.0000
  C   C1343     1.0  0.52368  0.92467  0.77177  1.0000
  C   C1344     1.0  0.53147  0.93316  0.79664  1.0000
  C   C1345     1.0  0.54760  0.92651  0.80896  1.0000
  C   C1346     1.0  0.55626  0.91123  0.79643  1.0000
  C   C1347     1.0  0.54840  0.90261  0.77190  1.0000
  C   C1348     1.0  0.53225  0.90930  0.75952  1.0000
  H   H1086     1.0  0.52494  0.94497  0.80651  1.0000
  H   H1087     1.0  0.55335  0.93319  0.82812  1.0000
  H   H1088     1.0  0.55489  0.89071  0.76223  1.0000
  H   H1089     1.0  0.52646  0.90258  0.74046  1.0000
  H   H1090     1.0  0.51596  0.94360  0.37811  1.0000
  C   C1349     1.0  0.62390  0.98552  0.17958  1.0000
  H   H1091     1.0  0.65882  0.92479  0.66030  1.0000
  C   C1350     1.0  0.73953  0.87017  0.50702  1.0000
  C   C1351     1.0  0.53808  0.96191  0.17856  1.0000
  C   C1352     1.0  0.64012  0.99299  0.85148  1.0000
  C   C1353     1.0  0.51650  0.93018  0.29140  1.0000
  C   C1354     1.0  0.52468  0.93572  0.26145  1.0000
  C   C1355     1.0  0.54222  0.93172  0.25731  1.0000
  C   C1356     1.0  0.55193  0.92217  0.28320  1.0000
  C   C1357     1.0  0.54376  0.91676  0.31335  1.0000
  C   C1358     1.0  0.52619  0.92069  0.31744  1.0000
  H   H1092     1.0  0.51738  0.94304  0.24110  1.0000
  H   H1093     1.0  0.54823  0.93591  0.23393  1.0000
  H   H1094     1.0  0.55109  0.90931  0.33353  1.0000
  H   H1095     1.0  0.52017  0.91620  0.34050  1.0000
  H   H1096     1.0  0.64828  0.98813  0.16057  1.0000
  H   H1097     1.0  0.67851  0.96401  0.00147  1.0000
  H   H1098     1.0  0.60299  0.86558  0.80519  1.0000
  C   C1359     1.0  0.51968  0.95629  0.67687  1.0000
  H   H1099     1.0  0.58363  0.91349  0.73779  1.0000
  H   H1100     1.0  0.66093  0.90289  0.89453  1.0000
  H   H1101     1.0  0.54840  0.99169  0.97242  1.0000
  C   C1360     1.0  0.56828  0.97010  0.97592  1.0000
  S   S203      1.0  0.50353  0.93424  0.75658  1.0000
  H   H1102     1.0  0.66900  0.97203  0.11268  1.0000
  S   S204      1.0  0.73188  0.91074  0.77101  1.0000
  H   H1103     1.0  0.72165  0.97456  0.16545  1.0000
  C   C1361     1.0  0.69597  0.86499  0.72676  1.0000
  C   C1362     1.0  0.66170  0.85556  0.88275  1.0000
  C   C1363     1.0  0.61415  0.86872  0.79282  1.0000
  H   H1104     1.0  0.71024  0.95892  0.36348  1.0000
  H   H1105     1.0  0.65861  0.85458  0.93961  1.0000
  C   C1364     1.0  0.67980  0.97172  0.19201  1.0000
  C   C1365     1.0  0.51672  0.98128  0.30510  1.0000
  H   H1106     1.0  0.60907  0.97160  0.05163  1.0000
  C   C1366     1.0  0.72052  0.88667  0.46577  1.0000
  C   C1367     1.0  0.63669  0.95346  0.98946  1.0000
  C   C1368     1.0  0.61012  0.96468  0.96275  1.0000
  C   C1369     1.0  0.72912  0.95749  0.80553  1.0000
  P   P43       1.0  0.66056  0.97737  0.72208  1.0000
  H   H1107     1.0  0.50845  0.96423  0.62691  1.0000
  C   C1370     1.0  0.65142  0.95982  0.71022  1.0000
  C   C1371     1.0  0.63581  0.95820  0.72471  1.0000
  C   C1372     1.0  0.62865  0.94456  0.71617  1.0000
  C   C1373     1.0  0.63689  0.93256  0.69284  1.0000
  C   C1374     1.0  0.53719  0.97443  0.84229  1.0000
  C   C1375     1.0  0.65964  0.94776  0.68671  1.0000
  C   C1376     1.0  0.70869  0.97182  0.68419  1.0000
  H   H1108     1.0  0.52343  0.98228  0.75826  1.0000
  H   H1109     1.0  0.56616  0.93173  0.94412  1.0000
  C   C1377     1.0  0.55245  0.97866  0.96600  1.0000
  C   C1378     1.0  0.66733  0.97496  0.76759  1.0000
  H   H1110     1.0  0.68366  0.95983  0.33452  1.0000
  H   H1111     1.0  0.53857  0.94714  0.92498  1.0000
  H   H1112     1.0  0.72267  0.96393  0.85964  1.0000
  H   H1113     1.0  0.63790  0.95647  0.04580  1.0000
  C   C1379     1.0  0.66343  0.86575  0.85289  1.0000
  C   C1380     1.0  0.69472  0.97146  0.70602  1.0000
  H   H1114     1.0  0.70832  0.89395  0.45989  1.0000
  C   C1381     1.0  0.50306  0.95623  0.54233  1.0000
  H   H1115     1.0  0.58497  0.94615  0.97662  1.0000
  H   H1116     1.0  0.62942  0.96720  0.74347  1.0000
  H   H1117     1.0  0.61696  0.94303  0.72861  1.0000
  C   C1382     1.0  0.67151  0.95867  0.82249  1.0000
  H   H1118     1.0  0.65614  0.97874  0.37857  1.0000
  H   H1119     1.0  0.67184  0.94851  0.67573  1.0000
  P   P44       1.0  0.66439  0.85756  0.80878  1.0000
  H   H1120     1.0  0.62571  0.89524  0.73042  1.0000
  H   H1121     1.0  0.66949  0.94799  0.83844  1.0000
  H   H1122     1.0  0.57901  0.94883  0.30751  1.0000
  H   H1123     1.0  0.65833  0.95183  0.77864  1.0000
  C   C1383     1.0  0.66159  0.80865  0.79129  1.0000
  H   H1124     1.0  0.65217  0.98891  0.86320  1.0000
  H   H1125     1.0  0.66463  0.98979  0.64891  1.0000
  H   H1126     1.0  0.62404  0.99210  0.07689  1.0000
  C   C1384     1.0  0.51429  0.98354  0.21800  1.0000
  C   C1385     1.0  0.57406  0.96648  0.10201  1.0000
  C   C1386     1.0  0.57834  0.96630  0.06602  1.0000
  C   C1387     1.0  0.57500  0.98107  0.04541  1.0000
  P   P45       1.0  0.58201  0.98076  0.99965  1.0000
  C   C1388     1.0  0.51936  0.93123  0.58840  1.0000
  C   C1389     1.0  0.66497  0.96105  0.78845  1.0000
  H   H1127     1.0  0.63095  0.97098  0.86817  1.0000
  H   H1128     1.0  0.64772  0.83260  0.77572  1.0000
  H   H1129     1.0  0.66977  0.95421  0.26985  1.0000
  C   C1390     1.0  0.55412  0.96870  0.83506  1.0000
  C   C1391     1.0  0.51299  0.96897  0.44945  1.0000
  H   H1130     1.0  0.69659  0.96561  0.73204  1.0000
  H   H1131     1.0  0.62658  0.97212  0.17828  1.0000
  S   S205      1.0  0.70924  0.91967  0.34668  1.0000
  H   H1132     1.0  0.63159  0.92171  0.68721  1.0000
  C   C1392     1.0  0.72574  0.96854  0.83369  1.0000
  H   H1133     1.0  0.57725  0.95511  0.11785  1.0000
  H   H1134     1.0  0.58470  0.95467  0.05461  1.0000
  H   H1135     1.0  0.66110  0.84251  0.88003  1.0000
  C   C1393     1.0  0.53129  0.98223  0.22516  1.0000
  C   C1394     1.0  0.67095  0.96396  0.25058  1.0000
  C   C1395     1.0  0.68054  0.97003  0.83593  1.0000
  H   H1136     1.0  0.74076  0.84015  0.35710  1.0000
  C   C1396     1.0  0.71688  0.97986  0.25431  1.0000
  H   H1137     1.0  0.52878  0.96611  0.40251  1.0000
  H   H1138     1.0  0.56492  0.93889  0.75746  1.0000
  C   C1397     1.0  0.64267  0.87819  0.76290  1.0000
  C   C1398     1.0  0.54177  0.97043  0.94757  1.0000
  H   H1139     1.0  0.69654  0.86347  0.69831  1.0000
  H   H1140     1.0  0.51189  0.94708  0.68226  1.0000
  C   C1399     1.0  0.56593  0.98125  0.11753  1.0000
  H   H1141     1.0  0.57330  0.96363  0.79496  1.0000
  H   H1142     1.0  0.54728  0.95347  0.16332  1.0000
  H   H1143     1.0  0.68543  0.96823  0.86244  1.0000
  H   H1144     1.0  0.53246  0.95124  0.72594  1.0000
  S   S206      1.0  0.59653  0.97633  0.84612  1.0000
  H   H1145     1.0  0.67345  0.92271  0.34663  1.0000
  C   C1400     1.0  0.59373  0.92569  0.69334  1.0000
  C   C1401     1.0  0.67886  0.98673  0.32576  1.0000
  C   C1402     1.0  0.60812  0.99382  0.19056  1.0000
  C   C1403     1.0  0.53209  0.97821  0.77942  1.0000
  C   C1404     1.0  0.64959  0.97079  0.36385  1.0000
  C   C1405     1.0  0.58303  0.95538  0.68655  1.0000
  H   H1146     1.0  0.56308  0.98145  0.14569  1.0000
  H   H1147     1.0  0.55640  0.97084  0.20918  1.0000
  C   C1406     1.0  0.50921  0.97370  0.19202  1.0000
  C   C1407     1.0  0.62805  0.98283  0.85437  1.0000
  H   H1148     1.0  0.62795  0.93930  0.37797  1.0000
  C   C1408     1.0  0.67483  0.96620  0.05794  1.0000
  H   H1149     1.0  0.71675  0.97267  0.27881  1.0000
  C   C1409     1.0  0.61371  0.96738  0.02577  1.0000
  C   C1410     1.0  0.68559  0.80872  0.82779  1.0000
  H   H1150     1.0  0.71774  0.97841  0.63297  1.0000
  C   C1411     1.0  0.49979  0.96358  0.46801  1.0000
  H   H1151     1.0  0.62619  0.94179  0.31297  1.0000
  H   H1152     1.0  0.65342  0.88265  0.75201  1.0000
  C   C1412     1.0  0.67243  0.97168  0.02276  1.0000
  C   C1413     1.0  0.52111  0.96282  0.17241  1.0000
  C   C1414     1.0  0.71891  0.97173  0.22195  1.0000
  H   H1153     1.0  0.52700  0.96391  0.53719  1.0000
  C   C1415     1.0  0.66834  0.83502  0.80932  1.0000
  C   C1416     1.0  0.66720  0.97622  0.08541  1.0000
  H   H1154     1.0  0.54117  0.94206  0.57850  1.0000
  C   C1417     1.0  0.50666  0.98106  0.33542  1.0000
  H   H1155     1.0  0.68492  0.96815  0.16608  1.0000
  H   H1156     1.0  0.68022  0.94640  0.20983  1.0000
  C   C1418     1.0  0.54110  0.97105  0.69590  1.0000
  C   C1419     1.0  0.63023  0.95899  0.02253  1.0000
  C   C1420     1.0  0.52812  0.94277  0.57270  1.0000
  C   C1421     1.0  0.66159  0.88960  0.89122  1.0000
  C   C1422     1.0  0.56006  0.96767  0.80002  1.0000
  H   H1157     1.0  0.60117  0.94121  0.65129  1.0000
  C   C1423     1.0  0.69439  0.86931  0.80008  1.0000
  C   C1424     1.0  0.54676  0.95356  0.93938  1.0000
  H   H1158     1.0  0.63627  0.98728  0.66592  1.0000
  C   C1425     1.0  0.51157  0.94909  0.40330  1.0000
  P   P46       1.0  0.55702  0.97277  0.72714  1.0000
  H   H1159     1.0  0.49585  0.92290  0.59239  1.0000
  C   C1426     1.0  0.70679  0.97843  0.64982  1.0000
  H   H1160     1.0  0.58254  0.96692  0.67146  1.0000
  C   C1427     1.0  0.62991  0.86152  0.80538  1.0000
  C   C1428     1.0  0.66309  0.88286  0.85733  1.0000
  C   C1429     1.0  0.67864  0.97828  0.69401  1.0000
  H   H1161     1.0  0.67310  0.85573  0.73337  1.0000
  C   C1430     1.0  0.68222  0.82620  0.82734  1.0000
  C   C1431     1.0  0.57278  0.95488  0.71672  1.0000
  C   C1432     1.0  0.68281  0.98397  0.81554  1.0000
  H   H1162     1.0  0.62912  0.99113  0.98794  1.0000
  C   C1433     1.0  0.57312  0.93968  0.73498  1.0000
  C   C1434     1.0  0.66019  0.86236  0.91661  1.0000
  C   C1435     1.0  0.56232  0.94487  0.95004  1.0000
  P   P47       1.0  0.65951  0.98682  0.30359  1.0000
  H   H1163     1.0  0.60164  0.91434  0.68422  1.0000
  C   C1436     1.0  0.52003  0.95519  0.54957  1.0000
  C   C1437     1.0  0.68153  0.86331  0.78334  1.0000
  C   C1438     1.0  0.66019  0.87934  0.92084  1.0000
  H   H1164     1.0  0.60252  0.96670  0.93928  1.0000
  C   C1439     1.0  0.56527  0.99178  0.72444  1.0000
  C   C1440     1.0  0.65229  0.93426  0.67783  1.0000
  H   H1165     1.0  0.50151  0.98677  0.57614  1.0000
  H   H1166     1.0  0.51722  0.95501  0.15260  1.0000
  C   C1441     1.0  0.54903  0.97211  0.77191  1.0000
  C   C1442     1.0  0.63257  0.95007  0.32705  1.0000
  C   C1443     1.0  0.63360  0.94861  0.36386  1.0000
  C   C1444     1.0  0.64198  0.95909  0.38232  1.0000
  H   H1167     1.0  0.53262  0.97524  0.86940  1.0000
  C   C1445     1.0  0.64909  0.97193  0.32667  1.0000
  C   C1446     1.0  0.64000  0.96189  0.30842  1.0000
  H   H1168     1.0  0.64930  0.94645  0.98706  1.0000
  C   C1447     1.0  0.61265  0.88062  0.76532  1.0000
  C   C1448     1.0  0.70849  0.87134  0.74351  1.0000
  H   H1169     1.0  0.71749  0.87830  0.79307  1.0000
  C   C1449     1.0  0.52620  0.97928  0.81450  1.0000
  H   H1170     1.0  0.66359  0.89104  0.83448  1.0000
  C   C1450     1.0  0.61205  0.98849  0.84130  1.0000
  H   H1171     1.0  0.65364  0.80185  0.77717  1.0000
  H   H1172     1.0  0.68263  0.95421  0.06395  1.0000
  H   H1173     1.0  0.51874  0.97050  0.28819  1.0000
  C   C1451     1.0  0.72371  0.87934  0.49934  1.0000
  C   C1452     1.0  0.57302  0.95309  0.96836  1.0000
  H   H1174     1.0  0.71865  0.87497  0.72811  1.0000
  H   H1175     1.0  0.69416  0.87101  0.82841  1.0000
  C   C1453     1.0  0.65819  0.82613  0.79078  1.0000
  H   H1176     1.0  0.60032  0.96633  0.31674  1.0000
  C   C1454     1.0  0.70335  0.97084  0.35427  1.0000
  C   C1455     1.0  0.56120  0.96907  0.28540  1.0000
  C   C1456     1.0  0.59344  0.94081  0.67485  1.0000
  C   C1457     1.0  0.68265  0.86077  0.74665  1.0000
  H   H1177     1.0  0.56277  0.96522  0.85656  1.0000
  C   C1458     1.0  0.62670  0.95645  0.95960  1.0000
  H   H1178     1.0  0.65859  0.88469  0.94702  1.0000
  H   H1179     1.0  0.72105  0.96675  0.69373  1.0000
  H   H1180     1.0  0.52555  0.92159  0.60637  1.0000
  H   H1181     1.0  0.71398  0.88096  0.51960  1.0000
  H   H1182     1.0  0.71999  0.95827  0.22144  1.0000
  H   H1183     1.0  0.60039  0.88645  0.75634  1.0000
  H   H1184     1.0  0.64278  0.95797  0.41088  1.0000
  C   C1459     1.0  0.53122  0.95885  0.70190  1.0000
  H   H1185     1.0  0.63168  0.95190  0.93417  1.0000
  H   H1186     1.0  0.69040  0.83286  0.84113  1.0000
  H   H1187     1.0  0.50068  0.97042  0.34080  1.0000
  H   H1188     1.0  0.63892  0.96287  0.27985  1.0000
  C   C1460     1.0  0.58516  0.98882  0.29615  1.0000
  H   H1189     1.0  0.74173  0.86453  0.53313  1.0000
  C   C1461     1.0  0.62689  0.88545  0.75055  1.0000
  C   C1462     1.0  0.52798  0.97772  0.63895  1.0000
  H   H1190     1.0  0.72186  0.98482  0.36983  1.0000
  H   H1191     1.0  0.55206  0.96124  0.28151  1.0000
  C   C1463     1.0  0.64432  0.86602  0.79013  1.0000
  H   H1192     1.0  0.63081  0.85276  0.82757  1.0000
  C   C1464     1.0  0.70780  0.87329  0.78018  1.0000
  H   H1193     1.0  0.69624  0.80197  0.84199  1.0000
  H   H1194     1.0  0.67783  0.78641  0.81028  1.0000
  C   C1465     1.0  0.53968  0.98022  0.66386  1.0000
  H   H1195     1.0  0.73051  0.89036  0.41366  1.0000
  C   C1466     1.0  0.73324  0.96337  0.77213  1.0000
  C   C1467     1.0  0.73309  0.88467  0.43971  1.0000
  H   H1196     1.0  0.51312  0.98391  0.82006  1.0000
  H   H1197     1.0  0.51905  0.97846  0.46009  1.0000
  H   H1198     1.0  0.52651  0.98528  0.61492  1.0000
  C   C1468     1.0  0.54319  0.97165  0.20474  1.0000
  C   C1469     1.0  0.66639  0.98087  0.25927  1.0000
  C   C1470     1.0  0.66904  0.99316  0.23424  1.0000
  C   C1471     1.0  0.57644  0.96203  0.30046  1.0000
  C   C1472     1.0  0.73374  0.98030  0.76674  1.0000
  H   H1199     1.0  0.72866  0.94435  0.80951  1.0000
  H   H1200     1.0  0.73134  0.91054  0.51865  1.0000
  H   H1201     1.0  0.52962  0.97712  0.93973  1.0000
  C   C1473     1.0  0.72633  0.98550  0.82836  1.0000
  C   C1474     1.0  0.51872  0.96184  0.41703  1.0000
  H   H1202     1.0  0.72369  0.99382  0.85053  1.0000
  C   C1475     1.0  0.58843  0.97188  0.30569  1.0000
  C   C1476     1.0  0.70976  0.98544  0.35799  1.0000
  S   S207      1.0  0.73919  0.93255  0.67887  1.0000
  H   H1203     1.0  0.54750  0.98931  0.65802  1.0000
  S   S208      1.0  0.74359  0.94339  0.37372  1.0000
  S   S209      1.0  0.74220  0.90929  0.59098  1.0000
  H   H1204     1.0  0.73686  0.98472  0.74075  1.0000
  C   C1477     1.0  0.67580  0.98856  0.20081  1.0000
  C   C1478     1.0  0.74335  0.91428  0.51877  1.0000
  C   C1479     1.0  0.55783  0.98605  0.27549  1.0000
  H   H1205     1.0  0.49605  0.97441  0.18746  1.0000
  C   C1480     1.0  0.66206  0.98699  0.01502  1.0000
  H   H1206     1.0  0.68940  0.98977  0.61038  1.0000
  H   H1207     1.0  0.58954  0.98010  0.74393  1.0000
  C   C1481     1.0  0.67682  0.98489  0.65930  1.0000
  H   H1208     1.0  0.50493  0.99199  0.23290  1.0000
  H   H1209     1.0  0.49812  0.98564  0.70711  1.0000
  H   H1210     1.0  0.68933  0.99308  0.82635  1.0000
  C   C1482     1.0  0.49824  0.99170  0.51979  1.0000
  C   C1483     1.0  0.69085  0.98487  0.63726  1.0000
  C   C1484     1.0  0.73019  0.99154  0.79465  1.0000
  H   H1211     1.0  0.66047  0.99107  0.98763  1.0000
  C   C1485     1.0  0.65701  0.99161  0.07775  1.0000
  H   H1212     1.0  0.61883  0.99266  0.92653  1.0000
  C   C1486     1.0  0.83232  0.09113  0.12128  1.0000
  S   S210      1.0  0.87956  0.20024  0.31491  1.0000
  Fe  Fe106     1.0  0.88398  0.19084  0.41558  1.0000
  S   S211      1.0  0.88705  0.17050  0.37546  1.0000
  S   S212      1.0  0.88785  0.18138  0.47207  1.0000
  Fe  Fe107     1.0  0.90216  0.18658  0.34413  1.0000
  S   S213      1.0  0.92770  0.17621  0.31903  1.0000
  Fe  Fe108     1.0  0.86413  0.18564  0.35071  1.0000
  S   S214      1.0  0.84077  0.17492  0.33491  1.0000
  C   C1487     1.0  0.82004  0.10502  0.12913  1.0000
  S   S215      1.0  0.86060  0.20564  0.39240  1.0000
  H   H1213     1.0  0.77267  0.04949  0.78974  1.0000
  H   H1214     1.0  0.75684  0.06292  0.25870  1.0000
  S   S216      1.0  0.78101  0.07625  0.39019  1.0000
  C   C1488     1.0  0.76880  0.03804  0.24463  1.0000
  Fe  Fe109     1.0  0.78126  0.09811  0.35211  1.0000
  S   S217      1.0  0.80349  0.11191  0.36133  1.0000
  Fe  Fe110     1.0  0.77598  0.06121  0.34373  1.0000
  S   S218      1.0  0.78981  0.03426  0.33767  1.0000
  C   C1489     1.0  0.83499  0.08418  0.18389  1.0000
  S   S219      1.0  0.89927  0.18944  0.65600  1.0000
  C   C1490     1.0  0.92833  0.20988  0.25074  1.0000
  C   C1491     1.0  0.76695  0.00215  0.54489  1.0000
  S   S220      1.0  0.89591  0.19361  0.74014  1.0000
  Fe  Fe111     1.0  0.91677  0.19137  0.69962  1.0000
  S   S221      1.0  0.94034  0.17186  0.70510  1.0000
  Fe  Fe112     1.0  0.87636  0.19305  0.69585  1.0000
  S   S222      1.0  0.84256  0.17210  0.69272  1.0000
  C   C1492     1.0  0.76461  0.00486  0.77339  1.0000
  H   H1215     1.0  0.78119  0.04005  0.25059  1.0000
  H   H1216     1.0  0.94599  0.15648  0.38735  1.0000
  H   H1217     1.0  0.76569  0.13503  0.51655  1.0000
  S   S223      1.0  0.79535  0.07804  0.64963  1.0000
  C   C1493     1.0  0.99361  0.21888  0.50007  1.0000
  C   C1494     1.0  0.82919  0.11785  0.24975  1.0000
  C   C1495     1.0  0.76454  0.13964  0.41419  1.0000
  Fe  Fe113     1.0  0.79190  0.09245  0.70004  1.0000
  S   S224      1.0  0.81463  0.10369  0.71592  1.0000
  H   H1218     1.0  0.86765  0.21787  0.76787  1.0000
  C   C1496     1.0  0.94905  0.22159  0.79552  1.0000
  H   H1219     1.0  0.75710  0.10705  0.20812  1.0000
  H   H1220     1.0  0.76598  0.99503  0.48988  1.0000
  C   C1497     1.0  0.91142  0.20945  0.24761  1.0000
  C   C1498     1.0  0.78541  0.01391  0.67717  1.0000
  C   C1499     1.0  0.76800  0.01720  0.68024  1.0000
  C   C1500     1.0  0.75918  0.00391  0.68261  1.0000
  C   C1501     1.0  0.79671  0.14353  0.53591  1.0000
  C   C1502     1.0  0.94466  0.20163  0.53109  1.0000
  H   H1221     1.0  0.76135  0.02997  0.68101  1.0000
  H   H1222     1.0  0.76707  0.13454  0.29823  1.0000
  C   C1503     1.0  0.96162  0.17395  0.70611  1.0000
  C   C1504     1.0  0.97303  0.15996  0.71773  1.0000
  H   H1223     1.0  0.84957  0.07015  0.14261  1.0000
  H   H1224     1.0  0.94750  0.22434  0.24395  1.0000
  C   C1505     1.0  0.98492  0.18884  0.69703  1.0000
  C   C1506     1.0  0.96758  0.18852  0.69583  1.0000
  H   H1225     1.0  0.96864  0.14867  0.72570  1.0000
  C   C1507     1.0  0.76191  0.03466  0.41561  1.0000
  C   C1508     1.0  0.78148  0.03375  0.55091  1.0000
  H   H1226     1.0  0.95891  0.19942  0.68679  1.0000
  C   C1509     1.0  0.83533  0.15273  0.69818  1.0000
  C   C1510     1.0  0.81869  0.15217  0.68985  1.0000
  C   C1511     1.0  0.81218  0.13732  0.69450  1.0000
  C   C1512     1.0  0.82223  0.12274  0.70783  1.0000
  C   C1513     1.0  0.83892  0.12328  0.71583  1.0000
  C   C1514     1.0  0.84546  0.13809  0.71087  1.0000
  H   H1227     1.0  0.81071  0.16341  0.68014  1.0000
  H   H1228     1.0  0.79932  0.13719  0.68844  1.0000
  H   H1229     1.0  0.84684  0.11214  0.72616  1.0000
  H   H1230     1.0  0.85826  0.13822  0.71739  1.0000
  C   C1515     1.0  0.77930  0.01731  0.33155  1.0000
  H   H1231     1.0  0.80156  0.23212  0.71815  1.0000
  C   C1516     1.0  0.96489  0.23912  0.67980  1.0000
  Fe  Fe114     1.0  0.76873  0.08965  0.63973  1.0000
  C   C1517     1.0  0.75507  0.00619  0.31403  1.0000
  C   C1518     1.0  0.76257  0.01990  0.32172  1.0000
  H   H1232     1.0  0.78734  0.09714  0.19841  1.0000
  C   C1519     1.0  0.74900  0.03837  0.47386  1.0000
  H   H1233     1.0  0.80430  0.16746  0.52709  1.0000
  H   H1234     1.0  0.75559  0.03248  0.31864  1.0000
  H   H1235     1.0  0.88741  0.22305  0.23180  1.0000
  C   C1520     1.0  0.99343  0.24028  0.71862  1.0000
  H   H1236     1.0  0.87497  0.22147  0.82976  1.0000
  C   C1521     1.0  0.78226  0.05021  0.54005  1.0000
  C   C1522     1.0  0.82744  0.23726  0.67635  1.0000
  C   C1523     1.0  0.82747  0.09113  0.51808  1.0000
  C   C1524     1.0  0.94583  0.18476  0.32716  1.0000
  C   C1525     1.0  0.94490  0.19973  0.34518  1.0000
  C   C1526     1.0  0.95946  0.20609  0.35145  1.0000
  C   C1527     1.0  0.97520  0.19769  0.33971  1.0000
  C   C1528     1.0  0.97615  0.18294  0.32082  1.0000
  C   C1529     1.0  0.96154  0.17653  0.31463  1.0000
  H   H1237     1.0  0.93294  0.20642  0.35431  1.0000
  H   H1238     1.0  0.95851  0.21764  0.36550  1.0000
  C   C1530     1.0  0.77637  0.02549  0.43046  1.0000
  H   H1239     1.0  0.77881  0.10256  0.51684  1.0000
  C   C1531     1.0  0.89012  0.19554  0.50539  1.0000
  C   C1532     1.0  0.89920  0.18944  0.53544  1.0000
  C   C1533     1.0  0.90062  0.20003  0.56351  1.0000
  C   C1534     1.0  0.92380  0.23789  0.22474  1.0000
  Fe  Fe115     1.0  0.75331  0.08476  0.39293  1.0000
  H   H1240     1.0  0.82780  0.09695  0.31055  1.0000
  H   H1241     1.0  0.90538  0.17651  0.53667  1.0000
  H   H1242     1.0  0.90808  0.19532  0.58595  1.0000
  H   H1243     1.0  0.87791  0.23602  0.53024  1.0000
  C   C1535     1.0  0.93447  0.22411  0.23994  1.0000
  C   C1536     1.0  0.83051  0.15746  0.34461  1.0000
  C   C1537     1.0  0.81365  0.15869  0.33546  1.0000
  C   C1538     1.0  0.80516  0.14513  0.34084  1.0000
  C   C1539     1.0  0.81340  0.12987  0.35519  1.0000
  C   C1540     1.0  0.83021  0.12868  0.36484  1.0000
  C   C1541     1.0  0.83870  0.14228  0.35953  1.0000
  H   H1244     1.0  0.80708  0.17027  0.32390  1.0000
  H   H1245     1.0  0.79221  0.14654  0.33371  1.0000
  H   H1246     1.0  0.83681  0.11707  0.37611  1.0000
  H   H1247     1.0  0.85166  0.14094  0.36652  1.0000
  C   C1542     1.0  0.82292  0.13509  0.24701  1.0000
  H   H1248     1.0  0.81262  0.04458  0.26895  1.0000
  H   H1249     1.0  0.97253  0.16610  0.39805  1.0000
  H   H1250     1.0  0.82941  0.07271  0.35098  1.0000
  C   C1543     1.0  0.78642  0.21361  0.72728  1.0000
  C   C1544     1.0  0.78593  0.19722  0.73828  1.0000
  C   C1545     1.0  0.80056  0.18657  0.74857  1.0000
  C   C1546     1.0  0.81571  0.19223  0.74738  1.0000
  C   C1547     1.0  0.81651  0.20837  0.73459  1.0000
  C   C1548     1.0  0.80160  0.21925  0.72579  1.0000
  P   P48       1.0  0.83628  0.21543  0.73396  1.0000
  C   C1549     1.0  0.84162  0.21797  0.77952  1.0000
  C   C1550     1.0  0.85188  0.19961  0.71268  1.0000
  C   C1551     1.0  0.86153  0.18552  0.73491  1.0000
  C   C1552     1.0  0.87271  0.17087  0.71756  1.0000
  C   C1553     1.0  0.87426  0.17015  0.67774  1.0000
  C   C1554     1.0  0.86490  0.18432  0.65501  1.0000
  C   C1555     1.0  0.85370  0.19893  0.67239  1.0000
  C   C1556     1.0  0.85807  0.21869  0.78825  1.0000
  H   H1251     1.0  0.94251  0.18670  0.62967  1.0000
  H   H1252     1.0  0.77500  0.22198  0.72001  1.0000
  C   C1557     1.0  0.90062  0.22324  0.23337  1.0000
  C   C1558     1.0  0.82930  0.21970  0.80649  1.0000
  C   C1559     1.0  0.97676  0.23272  0.17255  1.0000
  C   C1560     1.0  0.76784  0.09696  0.51661  1.0000
  Fe  Fe116     1.0  0.75025  0.08990  0.31352  1.0000
  H   H1253     1.0  0.77420  0.19279  0.73918  1.0000
  H   H1254     1.0  0.80027  0.17385  0.75729  1.0000
  H   H1255     1.0  0.82686  0.18387  0.75614  1.0000
  C   C1561     1.0  0.92978  0.22451  0.47151  1.0000
  H   H1256     1.0  0.85982  0.18530  0.76337  1.0000
  H   H1257     1.0  0.87902  0.16055  0.73365  1.0000
  H   H1258     1.0  0.88163  0.15933  0.66551  1.0000
  H   H1259     1.0  0.86601  0.18381  0.62644  1.0000
  H   H1260     1.0  0.84672  0.20846  0.65563  1.0000
  H   H1261     1.0  0.79335  0.01255  0.58293  1.0000
  C   C1562     1.0  0.78057  0.00848  0.76784  1.0000
  H   H1262     1.0  0.82246  0.22723  0.66477  1.0000
  C   C1563     1.0  0.90334  0.15449  0.60344  1.0000
  C   C1564     1.0  0.91002  0.14252  0.62880  1.0000
  C   C1565     1.0  0.90213  0.12903  0.63655  1.0000
  C   C1566     1.0  0.88777  0.12732  0.61847  1.0000
  C   C1567     1.0  0.88112  0.13915  0.59236  1.0000
  C   C1568     1.0  0.88882  0.15300  0.58578  1.0000
  P   P49       1.0  0.86325  0.13668  0.56656  1.0000
  C   C1569     1.0  0.84985  0.15702  0.56514  1.0000
  C   C1570     1.0  0.87035  0.13043  0.52212  1.0000
  C   C1571     1.0  0.88128  0.13901  0.50319  1.0000
  C   C1572     1.0  0.88606  0.13484  0.46829  1.0000
  C   C1573     1.0  0.88010  0.12199  0.45191  1.0000
  C   C1574     1.0  0.86922  0.11338  0.47037  1.0000
  C   C1575     1.0  0.86428  0.11764  0.50521  1.0000
  C   C1576     1.0  0.84612  0.16572  0.53290  1.0000
  C   C1577     1.0  0.83655  0.18185  0.53252  1.0000
  C   C1578     1.0  0.83056  0.18941  0.56428  1.0000
  C   C1579     1.0  0.83416  0.18081  0.59645  1.0000
  C   C1580     1.0  0.84390  0.16476  0.59689  1.0000
  C   C1581     1.0  0.85267  0.12111  0.58733  1.0000
  C   C1582     1.0  0.86069  0.10426  0.58863  1.0000
  C   C1583     1.0  0.85307  0.09220  0.60589  1.0000
  C   C1584     1.0  0.83728  0.09680  0.62153  1.0000
  C   C1585     1.0  0.82898  0.11337  0.61939  1.0000
  C   C1586     1.0  0.83658  0.12550  0.60241  1.0000
  H   H1263     1.0  0.90931  0.16508  0.59785  1.0000
  H   H1264     1.0  0.92109  0.14393  0.64299  1.0000
  H   H1265     1.0  0.90711  0.11993  0.65680  1.0000
  H   H1266     1.0  0.88189  0.11688  0.62557  1.0000
  H   H1267     1.0  0.88358  0.16275  0.56708  1.0000
  H   H1268     1.0  0.88577  0.14933  0.51460  1.0000
  H   H1269     1.0  0.89414  0.14191  0.45376  1.0000
  H   H1270     1.0  0.88369  0.11894  0.42469  1.0000
  H   H1271     1.0  0.86433  0.10363  0.45741  1.0000
  H   H1272     1.0  0.85543  0.11115  0.51838  1.0000
  H   H1273     1.0  0.85087  0.16036  0.50801  1.0000
  H   H1274     1.0  0.83406  0.18859  0.50752  1.0000
  H   H1275     1.0  0.82332  0.20199  0.56396  1.0000
  H   H1276     1.0  0.82966  0.18661  0.62126  1.0000
  H   H1277     1.0  0.84692  0.15842  0.62211  1.0000
  H   H1278     1.0  0.87302  0.10051  0.57694  1.0000
  H   H1279     1.0  0.85951  0.07932  0.60772  1.0000
  H   H1280     1.0  0.83148  0.08761  0.63581  1.0000
  H   H1281     1.0  0.81676  0.11683  0.63175  1.0000
  H   H1282     1.0  0.82976  0.13819  0.60144  1.0000
  C   C1587     1.0  0.76330  0.02870  0.48893  1.0000
  C   C1588     1.0  0.81516  0.10847  0.16432  1.0000
  C   C1589     1.0  0.76644  0.02242  0.23345  1.0000
  H   H1283     1.0  0.87574  0.21730  0.47997  1.0000
  C   C1590     1.0  0.83176  0.16979  0.43008  1.0000
  H   H1284     1.0  0.78998  0.15734  0.63405  1.0000
  C   C1591     1.0  0.94312  0.19086  0.60224  1.0000
  C   C1592     1.0  0.91918  0.23413  0.49616  1.0000
  H   H1285     1.0  0.98815  0.17634  0.31152  1.0000
  H   H1286     1.0  0.98476  0.19290  0.78272  1.0000
  C   C1593     1.0  0.78814  0.00084  0.33548  1.0000
  C   C1594     1.0  0.75028  0.13754  0.43354  1.0000
  H   H1287     1.0  0.74692  0.12583  0.25751  1.0000
  S   S225      1.0  0.89490  0.23720  0.77947  1.0000
  C   C1595     1.0  0.94278  0.17964  0.57494  1.0000
  C   C1596     1.0  0.84887  0.14095  0.26885  1.0000
  H   H1288     1.0  0.95177  0.22801  0.17593  1.0000
  H   H1289     1.0  0.97350  0.18798  0.44130  1.0000
  H   H1290     1.0  0.76798  0.09547  0.45963  1.0000
  C   C1597     1.0  0.77712  0.02259  0.46705  1.0000
  H   H1291     1.0  0.92456  0.21542  0.80158  1.0000
  C   C1598     1.0  0.77054  0.03691  0.78591  1.0000
  S   S226      1.0  0.74824  0.06815  0.34938  1.0000
  P   P50       1.0  0.76451  0.02440  0.53597  1.0000
  C   C1599     1.0  0.74705  0.08647  0.48333  1.0000
  C   C1600     1.0  0.83464  0.23519  0.71001  1.0000
  C   C1601     1.0  0.83350  0.22183  0.84160  1.0000
  C   C1602     1.0  0.75143  0.01731  0.78513  1.0000
  H   H1292     1.0  0.83613  0.08851  0.09400  1.0000
  S   S227      1.0  0.76494  0.10349  0.58727  1.0000
  S   S228      1.0  0.91602  0.21875  0.69188  1.0000
  C   C1603     1.0  0.81654  0.05586  0.27730  1.0000
  C   C1604     1.0  0.94517  0.21276  0.55880  1.0000
  C   C1605     1.0  0.81997  0.08450  0.26554  1.0000
  C   C1606     1.0  0.97848  0.21346  0.50566  1.0000
  H   H1293     1.0  0.74886  0.00731  0.21949  1.0000
  C   C1607     1.0  0.76601  0.11133  0.22487  1.0000
  C   C1608     1.0  0.97970  0.23519  0.73554  1.0000
  H   H1294     1.0  0.81044  0.13974  0.23767  1.0000
  H   H1295     1.0  0.86793  0.11955  0.28003  1.0000
  C   C1609     1.0  0.96615  0.21545  0.79027  1.0000
  C   C1610     1.0  0.93779  0.21061  0.79840  1.0000
  C   C1611     1.0  0.84996  0.22238  0.85004  1.0000
  H   H1296     1.0  0.81190  0.08000  0.44113  1.0000
  S   S229      1.0  0.75853  0.06798  0.66338  1.0000
  C   C1612     1.0  0.83985  0.08076  0.14867  1.0000
  H   H1297     1.0  0.85322  0.22413  0.87718  1.0000
  C   C1613     1.0  0.85539  0.12384  0.27063  1.0000
  C   C1614     1.0  0.79992  0.15909  0.54612  1.0000
  C   C1615     1.0  0.96049  0.18718  0.79101  1.0000
  H   H1298     1.0  0.83520  0.13129  0.46861  1.0000
  P   P51       1.0  0.98037  0.22978  0.78229  1.0000
  H   H1299     1.0  0.93662  0.19923  0.26214  1.0000
  H   H1300     1.0  0.92031  0.16880  0.42074  1.0000
  S   S230      1.0  0.77819  0.08214  0.30505  1.0000
  C   C1616     1.0  0.98198  0.23157  0.27805  1.0000
  C   C1617     1.0  0.94349  0.19341  0.79589  1.0000
  H   H1301     1.0  0.85092  0.09911  0.26217  1.0000
  H   H1302     1.0  0.79492  0.07097  0.54502  1.0000
  H   H1303     1.0  0.77704  0.01231  0.23069  1.0000
  P   P52       1.0  0.81666  0.10291  0.23722  1.0000
  C   C1618     1.0  0.82232  0.09783  0.19186  1.0000
  C   C1619     1.0  0.79191  0.15350  0.60676  1.0000
  H   H1304     1.0  0.94647  0.22553  0.55304  1.0000
  H   H1305     1.0  0.85623  0.14991  0.27732  1.0000
  C   C1620     1.0  0.82513  0.08541  0.30052  1.0000
  C   C1621     1.0  0.83270  0.14656  0.25682  1.0000
  C   C1622     1.0  0.78005  0.13847  0.46877  1.0000
  C   C1623     1.0  0.78315  0.10578  0.21948  1.0000
  C   C1624     1.0  0.82604  0.07165  0.32365  1.0000
  C   C1625     1.0  0.79461  0.11097  0.24195  1.0000
  H   H1306     1.0  0.94195  0.16679  0.58127  1.0000
  H   H1307     1.0  0.83523  0.08582  0.53993  1.0000
  H   H1308     1.0  0.93471  0.18493  0.79682  1.0000
  C   C1626     1.0  0.82437  0.08094  0.49068  1.0000
  H   H1309     1.0  0.85221  0.14927  0.43685  1.0000
  H   H1310     1.0  0.96547  0.23630  0.85312  1.0000
  H   H1311     1.0  0.82292  0.11583  0.53901  1.0000
  Fe  Fe117     1.0  0.89674  0.21706  0.65113  1.0000
  H   H1312     1.0  0.84121  0.07626  0.20485  1.0000
  H   H1313     1.0  0.81438  0.11321  0.10795  1.0000
  C   C1627     1.0  0.96140  0.17122  0.41322  1.0000
  C   C1628     1.0  0.96185  0.18378  0.43763  1.0000
  H   H1314     1.0  0.96242  0.16503  0.30035  1.0000
  H   H1315     1.0  0.80103  0.99871  0.34331  1.0000
  S   S231      1.0  0.87512  0.22211  0.68929  1.0000
  Fe  Fe118     1.0  0.87769  0.21895  0.35872  1.0000
  C   C1629     1.0  0.75078  0.13612  0.47045  1.0000
  H   H1316     1.0  0.82970  0.06772  0.49119  1.0000
  Fe  Fe119     1.0  0.78492  0.05764  0.67821  1.0000
  H   H1317     1.0  0.79990  0.17606  0.58914  1.0000
  C   C1630     1.0  0.89288  0.21682  0.56201  1.0000
  C   C1631     1.0  0.82037  0.10814  0.51759  1.0000
  H   H1318     1.0  0.98950  0.20001  0.68901  1.0000
  C   C1632     1.0  0.94423  0.20743  0.59416  1.0000
  C   C1633     1.0  0.99003  0.16041  0.71973  1.0000
  C   C1634     1.0  0.83908  0.15382  0.44210  1.0000
  C   C1635     1.0  0.76557  0.13665  0.48807  1.0000
  H   H1319     1.0  0.80907  0.18789  0.42576  1.0000
  C   C1636     1.0  0.78350  0.02453  0.77375  1.0000
  C   C1637     1.0  0.88397  0.22304  0.53167  1.0000
  C   C1638     1.0  0.96623  0.21616  0.47946  1.0000
  H   H1320     1.0  0.94431  0.23485  0.79579  1.0000
  H   H1321     1.0  0.82765  0.15985  0.25599  1.0000
  H   H1322     1.0  0.97664  0.20690  0.53021  1.0000
  C   C1639     1.0  0.84566  0.11232  0.26078  1.0000
  C   C1640     1.0  0.80980  0.11503  0.49005  1.0000
  H   H1323     1.0  0.79935  0.10971  0.44009  1.0000
  C   C1641     1.0  0.81432  0.08781  0.46257  1.0000
  S   S232      1.0  0.90067  0.20552  0.38635  1.0000
  H   H1324     1.0  0.79569  0.02750  0.76788  1.0000
  C   C1642     1.0  0.80714  0.10478  0.46212  1.0000
  C   C1643     1.0  0.96973  0.22378  0.44713  1.0000
  C   C1644     1.0  0.80616  0.03306  0.58605  1.0000
  H   H1325     1.0  0.79043  0.14102  0.41600  1.0000
  C   C1645     1.0  0.74511  0.04666  0.58265  1.0000
  C   C1646     1.0  0.97178  0.19811  0.78802  1.0000
  C   C1647     1.0  0.88270  0.21246  0.50321  1.0000
  S   S233      1.0  0.75333  0.10746  0.35763  1.0000
  H   H1326     1.0  0.76136  0.03699  0.38736  1.0000
  H   H1327     1.0  0.81606  0.05576  0.58624  1.0000
  S   S234      1.0  0.78364  0.07086  0.72985  1.0000
  S   S235      1.0  0.79708  0.03020  0.67434  1.0000
  H   H1328     1.0  0.90670  0.19848  0.25680  1.0000
  H   H1329     1.0  0.79189  0.17035  0.45843  1.0000
  H   H1330     1.0  0.82195  0.04639  0.33032  1.0000
  C   C1648     1.0  0.79750  0.16403  0.58141  1.0000
  C   C1649     1.0  0.78866  0.12123  0.27050  1.0000
  C   C1650     1.0  0.86223  0.22083  0.82336  1.0000
  H   H1331     1.0  0.81643  0.21949  0.80060  1.0000
  S   S236      1.0  0.76527  0.10482  0.68953  1.0000
  H   H1332     1.0  0.78437  0.12977  0.61644  1.0000
  C   C1651     1.0  0.94349  0.18499  0.53954  1.0000
  C   C1652     1.0  0.94724  0.19107  0.45600  1.0000
  C   C1653     1.0  0.81552  0.06966  0.25415  1.0000
  H   H1333     1.0  0.95453  0.23087  0.72786  1.0000
  C   C1654     1.0  0.82942  0.14370  0.46006  1.0000
  C   C1655     1.0  0.90677  0.23741  0.22189  1.0000
  C   C1656     1.0  0.76023  0.12190  0.25290  1.0000
  C   C1657     1.0  0.93234  0.18541  0.45002  1.0000
  C   C1658     1.0  0.82177  0.05687  0.31204  1.0000
  S   S237      1.0  0.89467  0.23014  0.59749  1.0000
  Fe  Fe120     1.0  0.75718  0.08195  0.71461  1.0000
  H   H1334     1.0  0.81071  0.06894  0.22785  1.0000
  H   H1335     1.0  0.78889  0.12087  0.55475  1.0000
  C   C1659     1.0  0.77936  0.14009  0.43167  1.0000
  P   P53       1.0  0.79985  0.13682  0.49044  1.0000
  H   H1336     1.0  0.94324  0.17602  0.51899  1.0000
  C   C1660     1.0  0.96535  0.23477  0.71585  1.0000
  C   C1661     1.0  0.79127  0.13299  0.56174  1.0000
  C   C1662     1.0  0.80508  0.16563  0.45412  1.0000
  P   P54       1.0  0.94698  0.20832  0.48534  1.0000
  H   H1337     1.0  0.96485  0.17386  0.78818  1.0000
  C   C1663     1.0  0.94647  0.16577  0.40721  1.0000
  H   H1338     1.0  0.77295  0.05713  0.52257  1.0000
  C   C1664     1.0  0.81475  0.17565  0.43591  1.0000
  H   H1339     1.0  0.79726  0.12457  0.28914  1.0000
  H   H1340     1.0  0.83921  0.17745  0.41542  1.0000
  H   H1341     1.0  0.75636  0.05107  0.58918  1.0000
  C   C1665     1.0  0.78878  0.13799  0.59689  1.0000
  H   H1342     1.0  0.92090  0.19104  0.46355  1.0000
  C   C1666     1.0  0.93197  0.17279  0.42580  1.0000
  Fe  Fe121     1.0  0.89445  0.22129  0.73068  1.0000
  C   C1667     1.0  0.76739  0.99612  0.58007  1.0000
  C   C1668     1.0  0.81237  0.14957  0.46640  1.0000
  C   C1669     1.0  0.76175  0.09288  0.48412  1.0000
  C   C1670     1.0  0.77155  0.12680  0.27580  1.0000
  H   H1343     1.0  0.98791  0.23398  0.41568  1.0000
  H   H1344     1.0  0.80587  0.11948  0.17006  1.0000
  C   C1671     1.0  0.75507  0.05088  0.24957  1.0000
  C   C1672     1.0  0.79361  0.02516  0.57382  1.0000
  H   H1345     1.0  0.78700  0.02076  0.41347  1.0000
  C   C1673     1.0  0.79385  0.99720  0.67642  1.0000
  C   C1674     1.0  0.75035  0.01962  0.22732  1.0000
  C   C1675     1.0  0.80666  0.04953  0.57571  1.0000
  H   H1346     1.0  0.81516  0.02656  0.60470  1.0000
  H   H1347     1.0  0.98168  0.22100  0.15983  1.0000
  H   H1348     1.0  0.78843  0.01551  0.47831  1.0000
  H   H1349     1.0  0.76683  0.00461  0.60198  1.0000
  C   C1676     1.0  0.75459  0.03335  0.79154  1.0000
  C   C1677     1.0  0.75941  0.09446  0.54847  1.0000
  C   C1678     1.0  0.79474  0.05809  0.55260  1.0000
  H   H1350     1.0  0.94441  0.21611  0.61537  1.0000
  H   H1351     1.0  0.76429  0.14043  0.38551  1.0000
  C   C1679     1.0  0.92660  0.22724  0.43517  1.0000
  H   H1352     1.0  0.98123  0.21855  0.27477  1.0000
  C   C1680     1.0  0.98507  0.22876  0.44125  1.0000
  C   C1681     1.0  0.95984  0.23666  0.18208  1.0000
  H   H1353     1.0  0.96090  0.22539  0.42591  1.0000
  C   C1682     1.0  0.96812  0.24281  0.29057  1.0000
  H   H1354     1.0  0.93414  0.21965  0.41552  1.0000
  H   H1355     1.0  0.91056  0.24109  0.39574  1.0000
  C   C1683     1.0  0.91324  0.23941  0.42376  1.0000
  H   H1356     1.0  0.92065  0.23200  0.52429  1.0000
  H   H1357     1.0  0.95389  0.23845  0.66473  1.0000
  H   H1358     1.0  0.79051  0.99902  0.75743  1.0000
  S   S238      1.0  0.99308  0.20610  0.35035  1.0000
  H   H1359     1.0  0.82396  0.22312  0.86227  1.0000
  C   C1684     1.0  0.74541  0.03383  0.55830  1.0000
  C   C1685     1.0  0.98735  0.24384  0.17960  1.0000
  H   H1360     1.0  0.74573  0.00659  0.68480  1.0000
  C   C1686     1.0  0.74829  0.04115  0.43724  1.0000
  H   H1361     1.0  0.95662  0.23846  0.29685  1.0000
  C   C1687     1.0  0.74523  0.08717  0.54782  1.0000
  H   H1362     1.0  0.80731  0.99455  0.67399  1.0000
  C   C1688     1.0  0.97869  0.24404  0.66316  1.0000
  S   S239      1.0  0.86547  0.46212  0.32863  1.0000
  S   S240      1.0  0.88074  0.46643  0.78953  1.0000
  Fe  Fe122     1.0  0.87729  0.36736  0.25062  1.0000
  S   S241      1.0  0.89914  0.37145  0.21731  1.0000
  S   S242      1.0  0.86072  0.38832  0.28081  1.0000
  Fe  Fe123     1.0  0.88250  0.32987  0.23262  1.0000
  S   S243      1.0  0.90490  0.33164  0.19750  1.0000
  S   S244      1.0  0.87440  0.30432  0.23532  1.0000
  Fe  Fe124     1.0  0.91184  0.34716  0.24104  1.0000
  S   S245      1.0  0.93780  0.34472  0.26131  1.0000
  Fe  Fe125     1.0  0.89006  0.35580  0.17600  1.0000
  S   S246      1.0  0.89227  0.36673  0.11988  1.0000
  S   S247      1.0  0.89070  0.34383  0.27769  1.0000
  S   S248      1.0  0.86700  0.35323  0.20794  1.0000
  Fe  Fe126     1.0  0.88191  0.36886  0.84350  1.0000
  S   S249      1.0  0.89625  0.36604  0.89459  1.0000
  S   S250      1.0  0.87674  0.38900  0.79986  1.0000
  Fe  Fe127     1.0  0.87928  0.33136  0.84255  1.0000
  S   S251      1.0  0.89356  0.32549  0.89282  1.0000
  S   S252      1.0  0.86821  0.31475  0.80524  1.0000
  Fe  Fe128     1.0  0.87863  0.34935  0.91401  1.0000
  S   S253      1.0  0.86874  0.34540  0.97004  1.0000
  Fe  Fe129     1.0  0.91017  0.34239  0.87097  1.0000
  S   S254      1.0  0.93778  0.33614  0.87767  1.0000
  S   S255      1.0  0.86285  0.35420  0.86483  1.0000
  S   S256      1.0  0.89745  0.34616  0.81910  1.0000
  C   C1689     1.0  0.95606  0.40465  0.63196  1.0000
  H   H1363     1.0  0.75790  0.36009  0.90547  1.0000
  C   C1690     1.0  0.97695  0.42842  0.21102  1.0000
  C   C1691     1.0  0.94872  0.34524  0.84455  1.0000
  C   C1692     1.0  0.94289  0.34759  0.80989  1.0000
  C   C1693     1.0  0.95286  0.35312  0.78311  1.0000
  C   C1694     1.0  0.96866  0.35619  0.79105  1.0000
  C   C1695     1.0  0.97402  0.35474  0.82606  1.0000
  C   C1696     1.0  0.96400  0.34937  0.85273  1.0000
  H   H1364     1.0  0.93107  0.34456  0.80327  1.0000
  H   H1365     1.0  0.94853  0.35449  0.75618  1.0000
  H   H1366     1.0  0.92770  0.35161  0.60538  1.0000
  H   H1367     1.0  0.96805  0.34847  0.87983  1.0000
  C   C1697     1.0  0.87576  0.29320  0.79825  1.0000
  C   C1698     1.0  0.87197  0.28600  0.76661  1.0000
  C   C1699     1.0  0.87761  0.26885  0.76034  1.0000
  C   C1700     1.0  0.88688  0.25870  0.78599  1.0000
  C   C1701     1.0  0.89019  0.26581  0.81801  1.0000
  C   C1702     1.0  0.88491  0.28301  0.82392  1.0000
  H   H1368     1.0  0.86477  0.29378  0.74672  1.0000
  H   H1369     1.0  0.87486  0.26350  0.73573  1.0000
  H   H1370     1.0  0.89698  0.25798  0.83834  1.0000
  H   H1371     1.0  0.88766  0.28833  0.84858  1.0000
  C   C1703     1.0  0.95113  0.34804  0.22612  1.0000
  C   C1704     1.0  0.96811  0.34724  0.23207  1.0000
  C   C1705     1.0  0.97899  0.34895  0.20358  1.0000
  C   C1706     1.0  0.97288  0.35149  0.16917  1.0000
  C   C1707     1.0  0.95585  0.35260  0.16337  1.0000
  C   C1708     1.0  0.94497  0.35093  0.19182  1.0000
  H   H1372     1.0  0.97289  0.34488  0.25854  1.0000
  C   C1709     1.0  0.95828  0.43917  0.83373  1.0000
  H   H1373     1.0  0.95105  0.35461  0.13682  1.0000
  H   H1374     1.0  0.93186  0.35162  0.18701  1.0000
  C   C1710     1.0  0.88580  0.36025  0.07858  1.0000
  C   C1711     1.0  0.87745  0.34684  0.07580  1.0000
  C   C1712     1.0  0.87254  0.34231  0.04231  1.0000
  C   C1713     1.0  0.87627  0.35082  0.01117  1.0000
  C   C1714     1.0  0.88470  0.36416  0.01395  1.0000
  C   C1715     1.0  0.88912  0.36902  0.04752  1.0000
  H   H1375     1.0  0.87461  0.34009  0.09945  1.0000
  H   H1376     1.0  0.86576  0.33215  0.04053  1.0000
  H   H1377     1.0  0.88734  0.37106  0.99037  1.0000
  H   H1378     1.0  0.89494  0.37981  0.04949  1.0000
  C   C1716     1.0  0.87632  0.28839  0.26921  1.0000
  C   C1717     1.0  0.87934  0.29150  0.30455  1.0000
  C   C1718     1.0  0.87969  0.27876  0.33074  1.0000
  C   C1719     1.0  0.87736  0.26263  0.32202  1.0000
  C   C1720     1.0  0.87479  0.25939  0.28652  1.0000
  C   C1721     1.0  0.87410  0.27223  0.26044  1.0000
  H   H1379     1.0  0.88094  0.30385  0.31185  1.0000
  H   H1380     1.0  0.88159  0.28148  0.35807  1.0000
  H   H1381     1.0  0.82386  0.37390  0.06803  1.0000
  H   H1382     1.0  0.87155  0.26968  0.23332  1.0000
  C   C1722     1.0  0.98374  0.28908  0.70903  1.0000
  C   C1723     1.0  0.97374  0.48305  0.67973  1.0000
  H   H1383     1.0  0.89763  0.25354  0.50381  1.0000
  C   C1724     1.0  0.83003  0.38843  0.86326  1.0000
  C   C1725     1.0  0.88069  0.44466  0.79189  1.0000
  C   C1726     1.0  0.87945  0.43548  0.76155  1.0000
  C   C1727     1.0  0.87824  0.41849  0.76467  1.0000
  C   C1728     1.0  0.87876  0.41032  0.79794  1.0000
  C   C1729     1.0  0.88053  0.41934  0.82826  1.0000
  C   C1730     1.0  0.88124  0.43649  0.82524  1.0000
  H   H1384     1.0  0.87891  0.44160  0.73576  1.0000
  H   H1385     1.0  0.87676  0.41165  0.74114  1.0000
  H   H1386     1.0  0.88088  0.41323  0.85402  1.0000
  H   H1387     1.0  0.88213  0.44351  0.84886  1.0000
  H   H1388     1.0  0.96083  0.39816  0.73086  1.0000
  C   C1731     1.0  0.98187  0.46963  0.77724  1.0000
  H   H1389     1.0  0.96354  0.27608  0.70212  1.0000
  H   H1390     1.0  0.79080  0.40554  0.89817  1.0000
  C   C1732     1.0  0.86569  0.44140  0.31406  1.0000
  C   C1733     1.0  0.85033  0.43620  0.31316  1.0000
  C   C1734     1.0  0.84924  0.42009  0.30246  1.0000
  C   C1735     1.0  0.86349  0.40873  0.29208  1.0000
  C   C1736     1.0  0.87902  0.41383  0.29238  1.0000
  C   C1737     1.0  0.88013  0.43016  0.30334  1.0000
  H   H1391     1.0  0.83909  0.44466  0.32122  1.0000
  H   H1392     1.0  0.83720  0.41636  0.30244  1.0000
  H   H1393     1.0  0.89010  0.40510  0.28473  1.0000
  H   H1394     1.0  0.89204  0.43403  0.30345  1.0000
  H   H1395     1.0  0.93910  0.43278  0.86882  1.0000
  C   C1738     1.0  0.90285  0.24894  0.44844  1.0000
  C   C1739     1.0  0.94783  0.34492  0.64201  1.0000
  C   C1740     1.0  0.93482  0.48402  0.24038  1.0000
  C   C1741     1.0  0.94990  0.47311  0.24672  1.0000
  C   C1742     1.0  0.95745  0.46238  0.22013  1.0000
  C   C1743     1.0  0.82482  0.40486  0.91632  1.0000
  P   P55       1.0  0.97754  0.44914  0.22663  1.0000
  C   C1744     1.0  0.83267  0.26554  0.67199  1.0000
  H   H1396     1.0  0.98157  0.43321  0.62412  1.0000
  C   C1745     1.0  0.95282  0.29591  0.37937  1.0000
  C   C1746     1.0  0.88819  0.40178  0.55937  1.0000
  C   C1747     1.0  0.92954  0.37203  0.63954  1.0000
  H   H1397     1.0  0.87419  0.39584  0.47744  1.0000
  H   H1398     1.0  0.84268  0.31080  0.86419  1.0000
  H   H1399     1.0  0.96350  0.39535  0.79554  1.0000
  H   H1400     1.0  0.87985  0.45907  0.25582  1.0000
  C   C1748     1.0  0.88634  0.46223  0.20050  1.0000
  H   H1401     1.0  0.78793  0.35379  0.91880  1.0000
  H   H1402     1.0  0.99121  0.46633  0.84761  1.0000
  C   C1749     1.0  0.96996  0.29663  0.32608  1.0000
  H   H1403     1.0  0.87980  0.38126  0.53489  1.0000
  C   C1750     1.0  0.96553  0.28816  0.35658  1.0000
  C   C1751     1.0  0.94982  0.39759  0.74695  1.0000
  H   H1404     1.0  0.92211  0.27207  0.08560  1.0000
  C   C1752     1.0  0.75746  0.38622  0.89437  1.0000
  C   C1753     1.0  0.78217  0.36644  0.91129  1.0000
  C   C1754     1.0  0.83261  0.34209  0.92352  1.0000
  C   C1755     1.0  0.97452  0.24866  0.80738  1.0000
  H   H1405     1.0  0.95579  0.47331  0.27208  1.0000
  C   C1756     1.0  0.93470  0.47377  0.18086  1.0000
  H   H1406     1.0  0.91594  0.39011  0.09035  1.0000
  H   H1407     1.0  0.95877  0.37055  0.70313  1.0000
  H   H1408     1.0  0.95335  0.39400  0.61818  1.0000
  C   C1757     1.0  0.90590  0.24639  0.48459  1.0000
  H   H1409     1.0  0.95020  0.43087  0.21758  1.0000
  P   P56       1.0  0.98623  0.28633  0.29666  1.0000
  C   C1758     1.0  0.93800  0.37743  0.66780  1.0000
  C   C1759     1.0  0.95588  0.36677  0.96973  1.0000
  H   H1410     1.0  0.83207  0.27719  0.65719  1.0000
  H   H1411     1.0  0.95978  0.26174  0.88923  1.0000
  C   C1760     1.0  0.81654  0.37466  0.96641  1.0000
  C   C1761     1.0  0.99026  0.43501  0.74927  1.0000
  H   H1412     1.0  0.96530  0.47850  0.87701  1.0000
  C   C1762     1.0  0.95167  0.36652  0.68226  1.0000
  C   C1763     1.0  0.92897  0.26809  0.82520  1.0000
  C   C1764     1.0  0.82577  0.33406  0.85451  1.0000
  H   H1413     1.0  0.84260  0.39388  0.36058  1.0000
  C   C1765     1.0  0.83989  0.32658  0.90981  1.0000
  H   H1414     1.0  0.90883  0.40642  0.21994  1.0000
  H   H1415     1.0  0.76084  0.41157  0.88502  1.0000
  C   C1766     1.0  0.89753  0.34737  0.72594  1.0000
  C   C1767     1.0  0.87807  0.42810  0.19458  1.0000
  H   H1416     1.0  0.88508  0.46697  0.53533  1.0000
  C   C1768     1.0  0.91375  0.41530  0.23550  1.0000
  C   C1769     1.0  0.89590  0.28656  0.15375  1.0000
  C   C1770     1.0  0.90218  0.28453  0.11912  1.0000
  C   C1771     1.0  0.91729  0.27368  0.11249  1.0000
  H   H1417     1.0  0.99400  0.39483  0.72164  1.0000
  C   C1772     1.0  0.92010  0.26721  0.17551  1.0000
  C   C1773     1.0  0.90477  0.27785  0.18173  1.0000
  S   S257      1.0  0.87744  0.47924  0.60551  1.0000
  H   H1418     1.0  0.98343  0.38563  0.92219  1.0000
  H   H1419     1.0  0.85317  0.48743  0.41432  1.0000
  H   H1420     1.0  0.92323  0.37247  0.03791  1.0000
  C   C1774     1.0  0.94779  0.40986  0.66395  1.0000
  P   P57       1.0  0.93387  0.29684  0.73642  1.0000
  H   H1421     1.0  0.81019  0.35835  0.85164  1.0000
  C   C1775     1.0  0.97581  0.39617  0.18767  1.0000
  Fe  Fe130     1.0  0.91683  0.48594  0.36106  1.0000
  C   C1776     1.0  0.89219  0.43234  0.64811  1.0000
  H   H1422     1.0  0.89050  0.39539  0.58475  1.0000
  C   C1777     1.0  0.82174  0.37427  0.03975  1.0000
  H   H1423     1.0  0.96714  0.34209  0.68111  1.0000
  C   C1778     1.0  0.92844  0.27060  0.24950  1.0000
  C   C1779     1.0  0.92465  0.26480  0.28349  1.0000
  C   C1780     1.0  0.92142  0.27586  0.31165  1.0000
  C   C1781     1.0  0.92181  0.29279  0.30611  1.0000
  C   C1782     1.0  0.92549  0.29869  0.27243  1.0000
  C   C1783     1.0  0.92873  0.28768  0.24419  1.0000
  H   H1424     1.0  0.88418  0.29495  0.15916  1.0000
  H   H1425     1.0  0.89530  0.29138  0.09750  1.0000
  C   C1784     1.0  0.92621  0.26499  0.14055  1.0000
  C   C1785     1.0  0.92578  0.27996  0.85179  1.0000
  H   H1426     1.0  0.89972  0.27956  0.20838  1.0000
  H   H1427     1.0  0.96806  0.38817  0.10900  1.0000
  C   C1786     1.0  0.95555  0.29881  0.73166  1.0000
  C   C1787     1.0  0.95142  0.39599  0.78372  1.0000
  H   H1428     1.0  0.94927  0.40273  0.19583  1.0000
  H   H1429     1.0  0.95955  0.27441  0.21895  1.0000
  H   H1430     1.0  0.81977  0.40678  0.94296  1.0000
  H   H1431     1.0  0.90853  0.39576  0.74216  1.0000
  H   H1432     1.0  0.98205  0.41298  0.77064  1.0000
  C   C1788     1.0  0.82216  0.35392  0.90252  1.0000
  H   H1433     1.0  0.93833  0.39775  0.12646  1.0000
  H   H1434     1.0  0.86655  0.42956  0.64573  1.0000
  H   H1435     1.0  0.91800  0.27137  0.33750  1.0000
  H   H1436     1.0  0.91878  0.30144  0.32766  1.0000
  H   H1437     1.0  0.92540  0.31191  0.26803  1.0000
  H   H1438     1.0  0.93106  0.29260  0.21806  1.0000
  C   C1789     1.0  0.92459  0.40931  0.26303  1.0000
  C   C1790     1.0  0.93078  0.42050  0.28428  1.0000
  H   H1439     1.0  0.87027  0.39077  0.16657  1.0000
  H   H1440     1.0  0.92785  0.39595  0.26832  1.0000
  H   H1441     1.0  0.93882  0.41583  0.30617  1.0000
  H   H1442     1.0  0.92983  0.43770  0.17405  1.0000
  C   C1791     1.0  0.84882  0.42264  0.42060  1.0000
  H   H1443     1.0  0.99265  0.28013  0.69424  1.0000
  H   H1444     1.0  0.87211  0.40039  0.66936  1.0000
  C   C1792     1.0  0.95652  0.48776  0.68506  1.0000
  H   H1445     1.0  0.93247  0.34257  0.06311  1.0000
  C   C1793     1.0  0.79164  0.37917  0.90922  1.0000
  C   C1794     1.0  0.98593  0.29622  0.25331  1.0000
  H   H1446     1.0  0.95857  0.31374  0.18989  1.0000
  H   H1447     1.0  0.97958  0.38042  0.26206  1.0000
  C   C1795     1.0  0.86501  0.45033  0.45877  1.0000
  H   H1448     1.0  0.96666  0.44285  0.67967  1.0000
  C   C1796     1.0  0.87449  0.48484  0.23974  1.0000
  H   H1449     1.0  0.83551  0.34481  0.95028  1.0000
  C   C1797     1.0  0.83660  0.32261  0.87521  1.0000
  C   C1798     1.0  0.96240  0.44349  0.79887  1.0000
  H   H1450     1.0  0.90067  0.38687  0.68536  1.0000
  P   P58       1.0  0.95497  0.35440  0.00986  1.0000
  C   C1799     1.0  0.93370  0.28298  0.66927  1.0000
  C   C1800     1.0  0.96715  0.28698  0.71316  1.0000
  H   H1451     1.0  0.91821  0.43209  0.65454  1.0000
  C   C1801     1.0  0.92231  0.39421  0.78976  1.0000
  C   C1802     1.0  0.95041  0.44443  0.77248  1.0000
  C   C1803     1.0  0.93439  0.44160  0.78083  1.0000
  C   C1804     1.0  0.93032  0.43744  0.81556  1.0000
  C   C1805     1.0  0.88231  0.40710  0.66547  1.0000
  H   H1452     1.0  0.92321  0.27620  0.87871  1.0000
  C   C1806     1.0  0.94994  0.46306  0.18687  1.0000
  H   H1453     1.0  0.95481  0.47637  0.77661  1.0000
  C   C1807     1.0  0.98577  0.33545  0.98935  1.0000
  C   C1808     1.0  0.89686  0.43428  0.39222  1.0000
  C   C1809     1.0  0.94152  0.39038  0.10297  1.0000
  H   H1454     1.0  0.84846  0.31783  0.92581  1.0000
  H   H1455     1.0  0.82344  0.33100  0.82752  1.0000
  S   S258      1.0  0.87708  0.24738  0.35676  1.0000
  H   H1456     1.0  0.84462  0.42476  0.85288  1.0000
  H   H1457     1.0  0.93633  0.48010  0.89945  1.0000
  C   C1810     1.0  0.92059  0.39599  0.75304  1.0000
  P   P59       1.0  0.93261  0.39861  0.68335  1.0000
  C   C1811     1.0  0.84910  0.40048  0.37873  1.0000
  C   C1812     1.0  0.82654  0.25234  0.65739  1.0000
  H   H1458     1.0  0.94252  0.29080  0.66116  1.0000
  S   S259      1.0  0.98203  0.36108  0.75722  1.0000
  H   H1459     1.0  0.95341  0.44771  0.74553  1.0000
  H   H1460     1.0  0.92504  0.44278  0.76045  1.0000
  H   H1461     1.0  0.91786  0.43527  0.82186  1.0000
  C   C1813     1.0  0.85707  0.45478  0.49150  1.0000
  C   C1814     1.0  0.97032  0.37319  0.96144  1.0000
  C   C1815     1.0  0.88092  0.49102  0.17864  1.0000
  C   C1816     1.0  0.84032  0.41378  0.39821  1.0000
  H   H1462     1.0  0.96499  0.46324  0.61645  1.0000
  H   H1463     1.0  0.91884  0.35759  0.70860  1.0000
  Fe  Fe131     1.0  0.88664  0.48041  0.73910  1.0000
  H   H1464     1.0  0.92376  0.25185  0.28838  1.0000
  C   C1817     1.0  0.95868  0.38408  0.90540  1.0000
  C   C1818     1.0  0.94388  0.37854  0.91428  1.0000
  C   C1819     1.0  0.94240  0.37006  0.94648  1.0000
  H   H1465     1.0  0.87313  0.38591  0.36575  1.0000
  H   H1466     1.0  0.94925  0.28918  0.40248  1.0000
  C   C1820     1.0  0.93984  0.49069  0.88537  1.0000
  H   H1467     1.0  0.97065  0.33863  0.07428  1.0000
  C   C1821     1.0  0.87492  0.40473  0.40416  1.0000
  H   H1468     1.0  0.90024  0.25655  0.69513  1.0000
  H   H1469     1.0  0.93368  0.38033  0.89583  1.0000
  H   H1470     1.0  0.93083  0.36584  0.95269  1.0000
  H   H1471     1.0  0.91544  0.49275  0.20316  1.0000
  C   C1822     1.0  0.90905  0.43255  0.22895  1.0000
  C   C1823     1.0  0.93307  0.37580  0.05336  1.0000
  H   H1472     1.0  0.96734  0.43813  0.85453  1.0000
  C   C1824     1.0  0.97833  0.26380  0.79422  1.0000
  C   C1825     1.0  0.92534  0.33103  0.71815  1.0000
  C   C1826     1.0  0.97914  0.33508  0.05212  1.0000
  C   C1827     1.0  0.93769  0.39422  0.80507  1.0000
  C   C1828     1.0  0.80601  0.37332  0.02693  1.0000
  C   C1829     1.0  0.96920  0.25952  0.29559  1.0000
  C   C1830     1.0  0.99288  0.24475  0.68265  1.0000
  C   C1831     1.0  0.91172  0.40833  0.67074  1.0000
  H   H1473     1.0  0.93621  0.43791  0.44489  1.0000
  C   C1832     1.0  0.93964  0.34108  0.00736  1.0000
  C   C1833     1.0  0.95617  0.48979  0.87270  1.0000
  C   C1834     1.0  0.93436  0.39767  0.73119  1.0000
  C   C1835     1.0  0.83963  0.26371  0.70564  1.0000
  C   C1836     1.0  0.86811  0.40290  0.17885  1.0000
  H   H1474     1.0  0.97464  0.40893  0.59314  1.0000
  C   C1837     1.0  0.88653  0.47397  0.17271  1.0000
  C   C1838     1.0  0.90841  0.42484  0.65740  1.0000
  H   H1475     1.0  0.79589  0.37229  0.04538  1.0000
  H   H1476     1.0  0.95823  0.26809  0.30451  1.0000
  C   C1839     1.0  0.96360  0.43224  0.66627  1.0000
  C   C1840     1.0  0.95655  0.35035  0.66952  1.0000
  H   H1477     1.0  0.97112  0.32182  0.91092  1.0000
  H   H1478     1.0  0.90908  0.27481  0.73897  1.0000
  C   C1841     1.0  0.92713  0.48425  0.20768  1.0000
  H   H1479     1.0  0.90468  0.31487  0.99966  1.0000
  H   H1480     1.0  0.95282  0.32028  0.76536  1.0000
  C   C1842     1.0  0.90973  0.26379  0.68798  1.0000
  H   H1481     1.0  0.97545  0.38380  0.17833  1.0000
  C   C1843     1.0  0.86308  0.46210  0.43076  1.0000
  C   C1844     1.0  0.96216  0.31328  0.31987  1.0000
  H   H1482     1.0  0.97637  0.29183  0.92819  1.0000
  C   C1845     1.0  0.92846  0.27270  0.64428  1.0000
  C   C1846     1.0  0.89649  0.43258  0.42932  1.0000
  S   S260      1.0  0.94455  0.47240  0.69315  1.0000
  C   C1847     1.0  0.97776  0.31384  0.74464  1.0000
  H   H1483     1.0  0.88964  0.44513  0.63800  1.0000
  C   C1848     1.0  0.88215  0.39385  0.53131  1.0000
  C   C1849     1.0  0.87898  0.40220  0.49865  1.0000
  C   C1850     1.0  0.76514  0.36997  0.90386  1.0000
  H   H1484     1.0  0.88833  0.40110  0.40600  1.0000
  C   C1851     1.0  0.94944  0.32098  0.34264  1.0000
  H   H1485     1.0  0.92917  0.49256  0.26062  1.0000
  C   C1852     1.0  0.92302  0.43645  0.15042  1.0000
  H   H1486     1.0  0.93474  0.31825  0.38969  1.0000
  C   C1853     1.0  0.95131  0.42403  0.68043  1.0000
  C   C1854     1.0  0.92643  0.43768  0.27748  1.0000
  C   C1855     1.0  0.92486  0.47438  0.59010  1.0000
  H   H1487     1.0  0.91942  0.38038  0.62679  1.0000
  C   C1856     1.0  0.83233  0.41726  0.90009  1.0000
  H   H1488     1.0  0.84236  0.39935  0.82023  1.0000
  H   H1489     1.0  0.89239  0.40749  0.16503  1.0000
  C   C1857     1.0  0.96238  0.37446  0.06429  1.0000
  C   C1858     1.0  0.99224  0.46018  0.20463  1.0000
  C   C1859     1.0  0.91657  0.26300  0.65372  1.0000
  C   C1860     1.0  0.86622  0.41830  0.42340  1.0000
  H   H1490     1.0  0.89221  0.25798  0.43944  1.0000
  H   H1491     1.0  0.91124  0.43885  0.34598  1.0000
  H   H1492     1.0  0.98919  0.26761  0.20123  1.0000
  H   H1493     1.0  0.93099  0.44648  0.29415  1.0000
  C   C1861     1.0  0.94980  0.36930  0.04497  1.0000
  C   C1862     1.0  0.90570  0.43732  0.15216  1.0000
  C   C1863     1.0  0.95534  0.48535  0.58588  1.0000
  H   H1494     1.0  0.88369  0.43663  0.12156  1.0000
  H   H1495     1.0  0.97543  0.36997  0.05791  1.0000
  C   C1864     1.0  0.84065  0.24862  0.72459  1.0000
  C   C1865     1.0  0.92893  0.38602  0.08270  1.0000
  S   S261      1.0  0.90312  0.48637  0.31037  1.0000
  C   C1866     1.0  0.86638  0.39597  0.38167  1.0000
  C   C1867     1.0  0.90579  0.43309  0.08863  1.0000
  P   P60       1.0  0.89456  0.44024  0.19411  1.0000
  C   C1868     1.0  0.91588  0.44367  0.24956  1.0000
  C   C1869     1.0  0.96801  0.24796  0.84201  1.0000
  C   C1870     1.0  0.88064  0.41249  0.17810  1.0000
  H   H1496     1.0  0.93901  0.39244  0.83338  1.0000
  H   H1497     1.0  0.98514  0.48200  0.23739  1.0000
  C   C1871     1.0  0.93038  0.33764  0.03754  1.0000
  H   H1498     1.0  0.96007  0.39015  0.88001  1.0000
  C   C1872     1.0  0.92478  0.32404  0.97257  1.0000
  C   C1873     1.0  0.89709  0.43586  0.12091  1.0000
  C   C1874     1.0  0.98833  0.41824  0.74888  1.0000
  C   C1875     1.0  0.97132  0.43987  0.29628  1.0000
  H   H1499     1.0  0.89912  0.43159  0.06474  1.0000
  C   C1876     1.0  0.93168  0.43382  0.11808  1.0000
  C   C1877     1.0  0.94229  0.43611  0.84196  1.0000
  C   C1878     1.0  0.93434  0.35577  0.62700  1.0000
  C   C1879     1.0  0.99172  0.41714  0.20331  1.0000
  H   H1500     1.0  0.91296  0.47037  0.59253  1.0000
  H   H1501     1.0  0.91293  0.45701  0.24470  1.0000
  C   C1880     1.0  0.97492  0.43735  0.33225  1.0000
  P   P61       1.0  0.98287  0.44761  0.78731  1.0000
  H   H1502     1.0  0.84352  0.40095  0.19805  1.0000
  C   C1881     1.0  0.89108  0.41806  0.55475  1.0000
  C   C1882     1.0  0.85296  0.40870  0.19628  1.0000
  S   S262      1.0  0.98617  0.35342  0.13291  1.0000
  C   C1883     1.0  0.92308  0.43203  0.08721  1.0000
  C   C1884     1.0  0.88012  0.46783  0.23394  1.0000
  H   H1503     1.0  0.92983  0.42965  0.06225  1.0000
  C   C1885     1.0  0.87914  0.42353  0.65230  1.0000
  C   C1886     1.0  0.93735  0.33345  0.97536  1.0000
  C   C1887     1.0  0.96166  0.42293  0.20919  1.0000
  Fe  Fe132     1.0  0.91767  0.48407  0.69706  1.0000
  C   C1888     1.0  0.91788  0.32814  0.03475  1.0000
  H   H1504     1.0  0.94494  0.33518  0.95223  1.0000
  C   C1889     1.0  0.97185  0.38152  0.92912  1.0000
  H   H1505     1.0  0.82695  0.41740  0.39542  1.0000
  H   H1506     1.0  0.87877  0.33371  0.74467  1.0000
  H   H1507     1.0  0.94510  0.43289  0.11702  1.0000
  C   C1890     1.0  0.97471  0.34068  0.01761  1.0000
  H   H1508     1.0  0.97894  0.47479  0.36508  1.0000
  C   C1891     1.0  0.96123  0.31173  0.74887  1.0000
  S   S263      1.0  0.89713  0.47734  0.39496  1.0000
  H   H1509     1.0  0.93817  0.33059  0.71027  1.0000
  H   H1510     1.0  0.91025  0.32621  0.05776  1.0000
  H   H1511     1.0  0.98057  0.37140  0.97964  1.0000
  P   P62       1.0  0.93161  0.25660  0.21238  1.0000
  C   C1892     1.0  0.91431  0.34639  0.71651  1.0000
  C   C1893     1.0  0.92741  0.28328  0.70424  1.0000
  H   H1512     1.0  0.92384  0.30590  0.86427  1.0000
  C   C1894     1.0  0.92590  0.29672  0.84361  1.0000
  C   C1895     1.0  0.89174  0.33295  0.73683  1.0000
  H   H1513     1.0  0.86030  0.44563  0.22535  1.0000
  C   C1896     1.0  0.91484  0.32163  0.00211  1.0000
  C   C1897     1.0  0.86270  0.43390  0.21175  1.0000
  H   H1514     1.0  0.92254  0.31893  0.94726  1.0000
  C   C1898     1.0  0.85022  0.42423  0.21248  1.0000
  H   H1515     1.0  0.93344  0.27238  0.61743  1.0000
  H   H1516     1.0  0.89818  0.30678  0.74927  1.0000
  C   C1899     1.0  0.97511  0.27813  0.81481  1.0000
  H   H1517     1.0  0.84437  0.27395  0.71700  1.0000
  C   C1900     1.0  0.76680  0.39897  0.89237  1.0000
  C   C1901     1.0  0.88786  0.42644  0.52225  1.0000
  C   C1902     1.0  0.95823  0.38493  0.09325  1.0000
  H   H1518     1.0  0.95161  0.33236  0.63219  1.0000
  H   H1519     1.0  0.83862  0.42851  0.22675  1.0000
  Fe  Fe133     1.0  0.88245  0.47993  0.34463  1.0000
  C   C1903     1.0  0.91976  0.31661  0.73057  1.0000
  H   H1520     1.0  0.88904  0.35932  0.72562  1.0000
  H   H1521     1.0  0.89109  0.47007  0.14657  1.0000
  C   C1904     1.0  0.90282  0.31768  0.73946  1.0000
  H   H1522     1.0  0.91110  0.43276  0.47663  1.0000
  C   C1905     1.0  0.91131  0.43700  0.37438  1.0000
  C   C1906     1.0  0.96108  0.40692  0.19726  1.0000
  C   C1907     1.0  0.91089  0.43374  0.44816  1.0000
  C   C1908     1.0  0.92530  0.43658  0.43019  1.0000
  C   C1909     1.0  0.92844  0.30174  0.80866  1.0000
  S   S264      1.0  0.89937  0.46724  0.69204  1.0000
  H   H1523     1.0  0.88669  0.48094  0.47647  1.0000
  C   C1910     1.0  0.89851  0.39952  0.67464  1.0000
  C   C1911     1.0  0.93210  0.27298  0.79033  1.0000
  C   C1912     1.0  0.91496  0.27402  0.71298  1.0000
  C   C1913     1.0  0.93123  0.28995  0.78160  1.0000
  H   H1524     1.0  0.93800  0.45346  0.62020  1.0000
  C   C1914     1.0  0.96500  0.26229  0.86271  1.0000
  C   C1915     1.0  0.88180  0.41861  0.49385  1.0000
  H   H1525     1.0  0.96544  0.28868  0.86436  1.0000
  C   C1916     1.0  0.96831  0.27742  0.84889  1.0000
  H   H1526     1.0  0.88583  0.43395  0.37703  1.0000
  C   C1917     1.0  0.92551  0.43820  0.39332  1.0000
  H   H1527     1.0  0.93651  0.44089  0.37954  1.0000
  C   C1918     1.0  0.93898  0.46480  0.60547  1.0000
  H   H1528     1.0  0.91240  0.25508  0.63437  1.0000
  H   H1529     1.0  0.92806  0.31487  0.80287  1.0000
  C   C1919     1.0  0.84829  0.47104  0.49664  1.0000
  H   H1530     1.0  0.93479  0.26356  0.77022  1.0000
  P   P63       1.0  0.87739  0.42972  0.45203  1.0000
  H   H1531     1.0  0.97181  0.27551  0.36261  1.0000
  H   H1532     1.0  0.84180  0.43300  0.43522  1.0000
  H   H1533     1.0  0.98193  0.32413  0.75727  1.0000
  C   C1920     1.0  0.95421  0.47028  0.60327  1.0000
  H   H1534     1.0  0.89569  0.42431  0.57640  1.0000
  C   C1921     1.0  0.96414  0.26281  0.20593  1.0000
  H   H1535     1.0  0.86847  0.45884  0.40491  1.0000
  H   H1536     1.0  0.88991  0.43915  0.51937  1.0000
  C   C1922     1.0  0.97069  0.30230  0.23682  1.0000
  H   H1537     1.0  0.94466  0.42863  0.70437  1.0000
  H   H1538     1.0  0.83323  0.42845  0.91429  1.0000
  C   C1923     1.0  0.83870  0.41524  0.86552  1.0000
  C   C1924     1.0  0.92593  0.48947  0.57267  1.0000
  H   H1539     1.0  0.85766  0.44588  0.51329  1.0000
  H   H1540     1.0  0.94317  0.33370  0.33703  1.0000
  C   C1925     1.0  0.94470  0.31228  0.37226  1.0000
  H   H1541     1.0  0.96716  0.48952  0.58580  1.0000
  H   H1542     1.0  0.96007  0.43669  0.28633  1.0000
  H   H1543     1.0  0.91174  0.39250  0.80635  1.0000
  H   H1544     1.0  0.98595  0.35761  0.83270  1.0000
  C   C1926     1.0  0.81844  0.34958  0.86818  1.0000
  H   H1545     1.0  0.82117  0.25376  0.63125  1.0000
  H   H1546     1.0  0.79116  0.37262  0.98113  1.0000
  C   C1927     1.0  0.98436  0.26496  0.28926  1.0000
  P   P64       1.0  0.81357  0.37449  0.91908  1.0000
  H   H1547     1.0  0.95595  0.45535  0.16556  1.0000
  C   C1928     1.0  0.83228  0.37567  0.97956  1.0000
  H   H1548     1.0  0.93789  0.25670  0.13485  1.0000
  C   C1929     1.0  0.88014  0.48973  0.56458  1.0000
  C   C1930     1.0  0.98224  0.44643  0.27321  1.0000
  C   C1931     1.0  0.82388  0.39016  0.89827  1.0000
  C   C1932     1.0  0.97305  0.48415  0.34632  1.0000
  C   C1933     1.0  0.96816  0.41308  0.61759  1.0000
  C   C1934     1.0  0.97039  0.30872  0.20215  1.0000
  S   S265      1.0  0.94381  0.47433  0.36553  1.0000
  H   H1549     1.0  0.97793  0.28980  0.80440  1.0000
  H   H1550     1.0  0.96576  0.32041  0.29745  1.0000
  C   C1935     1.0  0.83744  0.40089  0.84709  1.0000
  H   H1551     1.0  0.99479  0.33521  0.89027  1.0000
  C   C1936     1.0  0.83484  0.37549  0.01606  1.0000
  H   H1552     1.0  0.84711  0.37596  0.02596  1.0000
  C   C1937     1.0  0.78382  0.39548  0.89982  1.0000
  C   C1938     1.0  0.97204  0.42679  0.63492  1.0000
  H   H1553     1.0  0.84271  0.37621  0.96158  1.0000
  H   H1554     1.0  0.95900  0.30209  0.25066  1.0000
  H   H1555     1.0  0.96621  0.43271  0.35010  1.0000
  C   C1939     1.0  0.98959  0.44120  0.34538  1.0000
  C   C1940     1.0  0.98894  0.30269  0.72419  1.0000
  C   C1941     1.0  0.96652  0.48071  0.77430  1.0000
  H   H1556     1.0  0.98254  0.33932  0.96241  1.0000
  C   C1942     1.0  0.80339  0.37351  0.99040  1.0000
  H   H1557     1.0  0.97945  0.46999  0.67938  1.0000
  C   C1943     1.0  0.85423  0.47831  0.43590  1.0000
  H   H1558     1.0  0.82936  0.37747  0.84827  1.0000
  C   C1944     1.0  0.88346  0.48039  0.53353  1.0000
  H   H1559     1.0  0.98397  0.26458  0.76825  1.0000
  H   H1560     1.0  0.84277  0.47463  0.52234  1.0000
  H   H1561     1.0  0.98506  0.31474  0.15727  1.0000
  C   C1945     1.0  0.98530  0.30924  0.18372  1.0000
  C   C1946     1.0  0.95346  0.25160  0.19961  1.0000
  C   C1947     1.0  0.84703  0.48286  0.46896  1.0000
  C   C1948     1.0  0.95576  0.48699  0.34250  1.0000
  H   H1562     1.0  0.92888  0.47415  0.15528  1.0000
  C   C1949     1.0  0.98098  0.25898  0.19584  1.0000
  H   H1563     1.0  0.92775  0.49303  0.50116  1.0000
  H   H1564     1.0  0.87283  0.24714  0.27935  1.0000
  H   H1565     1.0  0.92872  0.25514  0.83164  1.0000
  C   C1950     1.0  0.88436  0.48831  0.50011  1.0000
  Fe  Fe134     1.0  0.88504  0.48814  0.65866  1.0000
  H   H1566     1.0  0.86979  0.48898  0.26578  1.0000
  H   H1567     1.0  0.84632  0.24752  0.75037  1.0000
  C   C1951     1.0  0.99322  0.47624  0.21617  1.0000
  H   H1568     1.0  0.98638  0.40779  0.27719  1.0000
  H   H1569     1.0  0.89813  0.24807  0.21162  1.0000
  H   H1570     1.0  0.97849  0.24712  0.63508  1.0000
  H   H1571     1.0  0.99222  0.43961  0.37338  1.0000
  H   H1572     1.0  0.99211  0.34780  0.20818  1.0000
  C   C1952     1.0  0.98363  0.31449  0.90883  1.0000
  H   H1573     1.0  0.92855  0.49055  0.43634  1.0000
  C   C1953     1.0  0.99112  0.40120  0.19106  1.0000
  C   C1954     1.0  0.99143  0.38104  0.27392  1.0000
  C   C1955     1.0  0.98276  0.49344  0.32594  1.0000
  C   C1956     1.0  0.98659  0.29756  0.91842  1.0000
  Fe  Fe135     1.0  0.89298  0.51341  0.32269  1.0000
  S   S266      1.0  0.90829  0.51313  0.37136  1.0000
  S   S267      1.0  0.89592  0.53108  0.27583  1.0000
  H   H1574     1.0  0.88618  0.57281  0.16630  1.0000
  C   C1957     1.0  0.96609  0.49771  0.76728  1.0000
  H   H1575     1.0  0.94004  0.65976  0.12731  1.0000
  C   C1958     1.0  0.86264  0.61532  0.12961  1.0000
  H   H1576     1.0  0.98190  0.67141  0.06918  1.0000
  C   C1959     1.0  0.97162  0.65091  0.04839  1.0000
  S   S268      1.0  0.87094  0.50710  0.35373  1.0000
  C   C1960     1.0  0.99385  0.60309  0.27326  1.0000
  C   C1961     1.0  0.94810  0.49969  0.31951  1.0000
  C   C1962     1.0  0.93382  0.50145  0.48536  1.0000
  C   C1963     1.0  0.98482  0.64294  0.16509  1.0000
  H   H1577     1.0  0.93054  0.53747  0.72447  1.0000
  C   C1964     1.0  0.87973  0.58466  0.15563  1.0000
  C   C1965     1.0  0.89112  0.72753  0.90820  1.0000
  H   H1578     1.0  0.88043  0.61257  0.08702  1.0000
  Fe  Fe136     1.0  0.89114  0.51510  0.71053  1.0000
  S   S269      1.0  0.89114  0.54316  0.71520  1.0000
  H   H1579     1.0  0.90314  0.55499  0.34783  1.0000
  S   S270      1.0  0.90449  0.50404  0.66095  1.0000
  Fe  Fe137     1.0  0.88770  0.62847  0.22505  1.0000
  S   S271      1.0  0.89864  0.62235  0.17107  1.0000
  S   S272      1.0  0.87551  0.61065  0.26020  1.0000
  Fe  Fe138     1.0  0.89817  0.66342  0.22393  1.0000
  S   S273      1.0  0.91017  0.65936  0.16962  1.0000
  S   S274      1.0  0.90216  0.68406  0.26186  1.0000
  Fe  Fe139     1.0  0.88779  0.64876  0.15496  1.0000
  S   S275      1.0  0.87481  0.65352  0.10160  1.0000
  Fe  Fe140     1.0  0.92002  0.63322  0.18934  1.0000
  S   S276      1.0  0.94583  0.61925  0.17758  1.0000
  S   S277      1.0  0.87476  0.65446  0.20825  1.0000
  S   S278      1.0  0.91003  0.63774  0.24444  1.0000
  Fe  Fe141     1.0  0.88475  0.62120  0.83981  1.0000
  S   S279      1.0  0.90935  0.61650  0.86738  1.0000
  S   S280      1.0  0.87259  0.59819  0.83586  1.0000
  Fe  Fe142     1.0  0.88667  0.65847  0.82370  1.0000
  S   S281      1.0  0.91157  0.65539  0.84901  1.0000
  S   S282      1.0  0.87506  0.68331  0.79604  1.0000
  Fe  Fe143     1.0  0.91729  0.63096  0.82146  1.0000
  S   S283      1.0  0.94105  0.62274  0.79138  1.0000
  Fe  Fe144     1.0  0.90085  0.64138  0.89322  1.0000
  S   S284      1.0  0.91003  0.64627  0.94838  1.0000
  S   S285      1.0  0.89332  0.63471  0.79256  1.0000
  S   S286      1.0  0.87531  0.64532  0.86918  1.0000
  C   C1966     1.0  0.95431  0.63536  0.80643  1.0000
  C   C1967     1.0  0.96260  0.64427  0.78226  1.0000
  C   C1968     1.0  0.95569  0.63744  0.84283  1.0000
  H   H1580     1.0  0.96099  0.64312  0.75412  1.0000
  H   H1581     1.0  0.94894  0.63080  0.86144  1.0000
  C   C1969     1.0  0.95903  0.63369  0.18084  1.0000
  C   C1970     1.0  0.97510  0.63043  0.16592  1.0000
  C   C1971     1.0  0.95305  0.64903  0.19666  1.0000
  H   H1582     1.0  0.97984  0.61848  0.15409  1.0000
  H   H1583     1.0  0.94087  0.65142  0.20936  1.0000
  C   C1972     1.0  0.88493  0.65116  0.05934  1.0000
  C   C1973     1.0  0.87564  0.64877  0.02953  1.0000
  C   C1974     1.0  0.88308  0.64726  0.99539  1.0000
  C   C1975     1.0  0.89982  0.64855  0.99054  1.0000
  C   C1976     1.0  0.90908  0.65113  0.02030  1.0000
  C   C1977     1.0  0.90174  0.65224  0.05454  1.0000
  H   H1584     1.0  0.86262  0.64797  0.03292  1.0000
  H   H1585     1.0  0.87588  0.64508  0.97284  1.0000
  H   H1586     1.0  0.92206  0.65206  0.01691  1.0000
  H   H1587     1.0  0.90899  0.65421  0.07717  1.0000
  C   C1978     1.0  0.89584  0.70625  0.26382  1.0000
  C   C1979     1.0  0.88575  0.71561  0.23826  1.0000
  H   H1588     1.0  0.88145  0.70933  0.21633  1.0000
  C   C1980     1.0  0.88382  0.70148  0.78598  1.0000
  C   C1981     1.0  0.89839  0.70432  0.80176  1.0000
  H   H1589     1.0  0.90479  0.69520  0.82034  1.0000
  H   H1590     1.0  0.88461  0.59936  0.46051  1.0000
  C   C1982     1.0  0.94911  0.50467  0.68547  1.0000
  C   C1983     1.0  0.95902  0.51691  0.68145  1.0000
  C   C1984     1.0  0.97629  0.51219  0.67722  1.0000
  H   H1591     1.0  0.93584  0.50835  0.68994  1.0000
  H   H1592     1.0  0.95339  0.53000  0.68229  1.0000
  C   C1985     1.0  0.88608  0.55798  0.74975  1.0000
  C   C1986     1.0  0.89241  0.57291  0.74746  1.0000
  C   C1987     1.0  0.88867  0.58516  0.77379  1.0000
  C   C1988     1.0  0.87800  0.58293  0.80224  1.0000
  C   C1989     1.0  0.87135  0.56819  0.80414  1.0000
  C   C1990     1.0  0.87556  0.55566  0.77843  1.0000
  H   H1593     1.0  0.90038  0.57500  0.72522  1.0000
  H   H1594     1.0  0.89384  0.59644  0.77167  1.0000
  H   H1595     1.0  0.86277  0.56652  0.82551  1.0000
  H   H1596     1.0  0.87030  0.54444  0.78026  1.0000
  H   H1597     1.0  0.95647  0.65311  0.97347  1.0000
  H   H1598     1.0  0.98891  0.67668  0.27189  1.0000
  C   C1991     1.0  0.90946  0.60803  0.01199  1.0000
  C   C1992     1.0  0.97521  0.50542  0.30136  1.0000
  C   C1993     1.0  0.96159  0.72530  0.88391  1.0000
  C   C1994     1.0  0.87298  0.68823  0.95645  1.0000
  S   S287      1.0  0.87031  0.50038  0.70591  1.0000
  H   H1599     1.0  0.97565  0.71256  0.31416  1.0000
  C   C1995     1.0  0.99209  0.68430  0.94489  1.0000
  H   H1600     1.0  0.95423  0.50607  0.76378  1.0000
  H   H1601     1.0  0.98611  0.64404  0.24661  1.0000
  C   C1996     1.0  0.85754  0.60874  0.16156  1.0000
  H   H1602     1.0  0.93472  0.50222  0.31705  1.0000
  S   S288      1.0  0.98722  0.51621  0.27358  1.0000
  C   C1997     1.0  0.92680  0.59703  0.28864  1.0000
  C   C1998     1.0  0.92879  0.54783  0.33279  1.0000
  C   C1999     1.0  0.89054  0.55328  0.27299  1.0000
  C   C2000     1.0  0.89807  0.56186  0.24633  1.0000
  C   C2001     1.0  0.89392  0.57942  0.24252  1.0000
  C   C2002     1.0  0.88179  0.58858  0.26473  1.0000
  C   C2003     1.0  0.87412  0.57997  0.29109  1.0000
  C   C2004     1.0  0.87859  0.56247  0.29552  1.0000
  H   H1603     1.0  0.90726  0.55490  0.22861  1.0000
  H   H1604     1.0  0.89993  0.58585  0.22211  1.0000
  H   H1605     1.0  0.86459  0.58690  0.30812  1.0000
  H   H1606     1.0  0.87252  0.55607  0.31587  1.0000
  C   C2005     1.0  0.86134  0.68737  0.88764  1.0000
  H   H1607     1.0  0.91331  0.59998  0.29002  1.0000
  C   C2006     1.0  0.87994  0.56023  0.07855  1.0000
  C   C2007     1.0  0.89678  0.73093  0.76873  1.0000
  H   H1608     1.0  0.94815  0.60533  0.04566  1.0000
  C   C2008     1.0  0.94668  0.68671  0.27939  1.0000
  C   C2009     1.0  0.96289  0.67804  0.28497  1.0000
  C   C2010     1.0  0.97640  0.68375  0.26885  1.0000
  C   C2011     1.0  0.97374  0.69818  0.24735  1.0000
  C   C2012     1.0  0.95747  0.70690  0.24145  1.0000
  C   C2013     1.0  0.94397  0.70102  0.25763  1.0000
  C   C2014     1.0  0.87458  0.73574  0.90326  1.0000
  C   C2015     1.0  0.94875  0.51789  0.84823  1.0000
  C   C2016     1.0  0.93686  0.72060  0.18334  1.0000
  H   H1609     1.0  0.98526  0.59621  0.94055  1.0000
  H   H1610     1.0  0.98879  0.68805  0.91782  1.0000
  C   C2017     1.0  0.90929  0.71208  0.14969  1.0000
  C   C2018     1.0  0.92442  0.70080  0.15056  1.0000
  C   C2019     1.0  0.93810  0.70498  0.16750  1.0000
  C   C2020     1.0  0.88229  0.53917  0.86512  1.0000
  C   C2021     1.0  0.94957  0.74060  0.77225  1.0000
  C   C2022     1.0  0.92163  0.55316  0.13909  1.0000
  H   H1611     1.0  0.86219  0.58843  0.19955  1.0000
  H   H1612     1.0  0.95801  0.56718  0.25724  1.0000
  C   C2023     1.0  0.94194  0.51067  0.42722  1.0000
  H   H1613     1.0  0.97926  0.70131  0.81583  1.0000
  H   H1614     1.0  0.86543  0.54008  0.40358  1.0000
  C   C2024     1.0  0.95208  0.57871  0.26949  1.0000
  C   C2025     1.0  0.89419  0.60881  0.35141  1.0000
  H   H1615     1.0  0.96909  0.54774  0.88094  1.0000
  P   P65       1.0  0.95353  0.72454  0.21088  1.0000
  H   H1616     1.0  0.96494  0.66666  0.30093  1.0000
  H   H1617     1.0  0.84063  0.49558  0.47321  1.0000
  C   C2026     1.0  0.90253  0.59886  0.03811  1.0000
  C   C2027     1.0  0.98154  0.66419  0.66914  1.0000
  H   H1618     1.0  0.94250  0.50932  0.39873  1.0000
  H   H1619     1.0  0.89608  0.73630  0.16538  1.0000
  H   H1620     1.0  0.89849  0.70848  0.13813  1.0000
  C   C2028     1.0  0.87645  0.60673  0.11081  1.0000
  H   H1621     1.0  0.96845  0.70987  0.14346  1.0000
  H   H1622     1.0  0.97765  0.66310  0.77570  1.0000
  H   H1623     1.0  0.88186  0.53014  0.01666  1.0000
  C   C2029     1.0  0.97837  0.65868  0.17891  1.0000
  C   C2030     1.0  0.97850  0.70909  0.83894  1.0000
  C   C2031     1.0  0.97896  0.60904  0.73011  1.0000
  C   C2032     1.0  0.89100  0.72337  0.05577  1.0000
  H   H1624     1.0  0.97840  0.54801  0.60907  1.0000
  C   C2033     1.0  0.90610  0.58062  0.44659  1.0000
  H   H1625     1.0  0.99215  0.62292  0.07615  1.0000
  C   C2034     1.0  0.89381  0.71511  0.98383  1.0000
  H   H1626     1.0  0.90000  0.64911  0.34953  1.0000
  H   H1627     1.0  0.98439  0.70198  0.23429  1.0000
  C   C2035     1.0  0.89681  0.53090  0.84772  1.0000
  H   H1628     1.0  0.87531  0.51454  0.58553  1.0000
  H   H1629     1.0  0.88015  0.50047  0.80879  1.0000
  P   P66       1.0  0.94213  0.51491  0.54887  1.0000
  C   C2036     1.0  0.92427  0.52925  0.56583  1.0000
  C   C2037     1.0  0.96166  0.52120  0.55885  1.0000
  C   C2038     1.0  0.96247  0.53387  0.58303  1.0000
  H   H1630     1.0  0.96718  0.60984  0.71686  1.0000
  C   C2039     1.0  0.90037  0.63642  0.35931  1.0000
  C   C2040     1.0  0.92533  0.58097  0.15391  1.0000
  C   C2041     1.0  0.88227  0.72808  0.75279  1.0000
  C   C2042     1.0  0.91186  0.53745  0.54302  1.0000
  C   C2043     1.0  0.89769  0.54788  0.55678  1.0000
  C   C2044     1.0  0.89570  0.55003  0.59333  1.0000
  C   C2045     1.0  0.90785  0.54169  0.61618  1.0000
  C   C2046     1.0  0.92197  0.53117  0.60256  1.0000
  C   C2047     1.0  0.94135  0.51353  0.50119  1.0000
  S   S289      1.0  0.98935  0.67514  0.17447  1.0000
  H   H1631     1.0  0.94446  0.57070  0.88602  1.0000
  C   C2048     1.0  0.93221  0.51874  0.86023  1.0000
  C   C2049     1.0  0.94900  0.52305  0.44264  1.0000
  C   C2050     1.0  0.94866  0.52454  0.47946  1.0000
  C   C2051     1.0  0.89837  0.70721  0.04588  1.0000
  H   H1632     1.0  0.90208  0.61333  0.98953  1.0000
  C   C2052     1.0  0.90760  0.63121  0.39186  1.0000
  H   H1633     1.0  0.91978  0.55700  0.04663  1.0000
  C   C2053     1.0  0.97791  0.73508  0.34174  1.0000
  H   H1634     1.0  0.95151  0.54015  0.59704  1.0000
  H   H1635     1.0  0.91289  0.63989  0.40738  1.0000
  C   C2054     1.0  0.88213  0.57539  0.39502  1.0000
  C   C2055     1.0  0.92414  0.72716  0.65692  1.0000
  H   H1636     1.0  0.94531  0.59843  0.85833  1.0000
  H   H1637     1.0  0.91284  0.53557  0.51470  1.0000
  H   H1638     1.0  0.88808  0.55404  0.53908  1.0000
  H   H1639     1.0  0.88459  0.55786  0.60413  1.0000
  H   H1640     1.0  0.90612  0.54306  0.64460  1.0000
  H   H1641     1.0  0.93097  0.52431  0.62078  1.0000
  C   C2056     1.0  0.92411  0.53782  0.77998  1.0000
  C   C2057     1.0  0.88649  0.73134  0.99399  1.0000
  H   H1642     1.0  0.95999  0.73561  0.67203  1.0000
  H   H1643     1.0  0.95494  0.53132  0.42598  1.0000
  H   H1644     1.0  0.95441  0.53406  0.49096  1.0000
  H   H1645     1.0  0.84429  0.67258  0.90997  1.0000
  P   P67       1.0  0.91673  0.53739  0.85248  1.0000
  C   C2058     1.0  0.94613  0.69405  0.93849  1.0000
  C   C2059     1.0  0.94916  0.68448  0.90801  1.0000
  C   C2060     1.0  0.93586  0.68196  0.88751  1.0000
  C   C2061     1.0  0.91949  0.68886  0.89762  1.0000
  C   C2062     1.0  0.91630  0.69841  0.92820  1.0000
  C   C2063     1.0  0.92979  0.70120  0.94830  1.0000
  H   H1646     1.0  0.92778  0.70906  0.97128  1.0000
  H   H1647     1.0  0.96180  0.67917  0.89991  1.0000
  H   H1648     1.0  0.93825  0.67470  0.86364  1.0000
  H   H1649     1.0  0.84001  0.56006  0.38645  1.0000
  H   H1650     1.0  0.85685  0.68693  0.86093  1.0000
  H   H1651     1.0  0.87961  0.70196  0.87218  1.0000
  C   C2064     1.0  0.97638  0.51338  0.54147  1.0000
  H   H1652     1.0  0.93577  0.53305  0.17024  1.0000
  H   H1653     1.0  0.86453  0.71153  0.74916  1.0000
  H   H1654     1.0  0.84721  0.61570  0.17671  1.0000
  C   C2065     1.0  0.87580  0.71352  0.76156  1.0000
  H   H1655     1.0  0.93010  0.61932  0.31490  1.0000
  H   H1656     1.0  0.88234  0.55003  0.88085  1.0000
  C   C2066     1.0  0.89370  0.62521  0.33912  1.0000
  C   C2067     1.0  0.93680  0.57422  0.17970  1.0000
  H   H1657     1.0  0.95890  0.63047  0.03788  1.0000
  H   H1658     1.0  0.92778  0.56072  0.44264  1.0000
  H   H1659     1.0  0.90272  0.69775  0.06594  1.0000
  C   C2068     1.0  0.96265  0.66154  0.19544  1.0000
  P   P68       1.0  0.89541  0.70945  0.93768  1.0000
  C   C2069     1.0  0.98893  0.57475  0.23503  1.0000
  H   H1660     1.0  0.94601  0.74236  0.79983  1.0000
  H   H1661     1.0  0.98255  0.66171  0.94199  1.0000
  C   C2070     1.0  0.97434  0.65685  0.83098  1.0000
  C   C2071     1.0  0.87797  0.50715  0.56193  1.0000
  C   C2072     1.0  0.91789  0.57051  0.13288  1.0000
  H   H1662     1.0  0.95781  0.67344  0.20719  1.0000
  H   H1663     1.0  0.91542  0.57877  0.54740  1.0000
  H   H1664     1.0  0.85621  0.62739  0.11994  1.0000
  H   H1665     1.0  0.96088  0.61280  0.31052  1.0000
  H   H1666     1.0  0.95191  0.51806  0.27973  1.0000
  C   C2073     1.0  0.97211  0.65549  0.79454  1.0000
  C   C2074     1.0  0.90477  0.71891  0.79323  1.0000
  C   C2075     1.0  0.90944  0.68172  0.72322  1.0000
  C   C2076     1.0  0.91525  0.67290  0.75393  1.0000
  C   C2077     1.0  0.93034  0.67493  0.76824  1.0000
  C   C2078     1.0  0.93997  0.68530  0.75114  1.0000
  C   C2079     1.0  0.93431  0.69412  0.72002  1.0000
  C   C2080     1.0  0.91889  0.69232  0.70628  1.0000
  P   P69       1.0  0.94781  0.70589  0.69610  1.0000
  C   C2081     1.0  0.93824  0.71431  0.65528  1.0000
  C   C2082     1.0  0.95138  0.72396  0.71935  1.0000
  H   H1667     1.0  0.97403  0.59004  0.76667  1.0000
  C   C2083     1.0  0.96067  0.50344  0.85442  1.0000
  H   H1668     1.0  0.86448  0.73189  0.91844  1.0000
  H   H1669     1.0  0.93214  0.55348  0.97139  1.0000
  C   C2084     1.0  0.94760  0.72596  0.75557  1.0000
  C   C2085     1.0  0.94527  0.70926  0.62211  1.0000
  H   H1670     1.0  0.93628  0.58926  0.09157  1.0000
  C   C2086     1.0  0.96712  0.69138  0.68886  1.0000
  C   C2087     1.0  0.96682  0.67596  0.67329  1.0000
  C   C2088     1.0  0.88643  0.74160  0.26971  1.0000
  H   H1671     1.0  0.93876  0.63645  0.08750  1.0000
  C   C2089     1.0  0.90392  0.73253  0.88752  1.0000
  C   C2090     1.0  0.99183  0.54521  0.34598  1.0000
  H   H1672     1.0  0.89745  0.68047  0.71291  1.0000
  H   H1673     1.0  0.90783  0.66479  0.76707  1.0000
  H   H1674     1.0  0.93456  0.66833  0.79251  1.0000
  H   H1675     1.0  0.95193  0.68624  0.76194  1.0000
  H   H1676     1.0  0.91412  0.69883  0.68234  1.0000
  C   C2091     1.0  0.97070  0.59145  0.83990  1.0000
  H   H1677     1.0  0.88118  0.50007  0.15728  1.0000
  C   C2092     1.0  0.87503  0.49646  0.21222  1.0000
  C   C2093     1.0  0.98508  0.61842  0.26003  1.0000
  H   H1678     1.0  0.94254  0.71661  0.77069  1.0000
  C   C2094     1.0  0.97672  0.71716  0.15465  1.0000
  H   H1679     1.0  0.90693  0.50969  0.81536  1.0000
  H   H1680     1.0  0.95516  0.67300  0.66458  1.0000
  C   C2095     1.0  0.97772  0.53856  0.58968  1.0000
  C   C2096     1.0  0.88521  0.59134  0.12384  1.0000
  C   C2097     1.0  0.90210  0.54253  0.02917  1.0000
  C   C2098     1.0  0.90724  0.55456  0.04999  1.0000
  H   H1681     1.0  0.95634  0.69968  0.62004  1.0000
  C   C2099     1.0  0.96605  0.64787  0.85510  1.0000
  H   H1682     1.0  0.96768  0.64898  0.88320  1.0000
  P   P70       1.0  0.90179  0.58223  0.39981  1.0000
  H   H1683     1.0  0.87590  0.73715  0.73399  1.0000
  C   C2100     1.0  0.87432  0.69583  0.89422  1.0000
  C   C2101     1.0  0.88116  0.55859  0.40206  1.0000
  C   C2102     1.0  0.93819  0.71693  0.59105  1.0000
  C   C2103     1.0  0.92586  0.61045  0.01472  1.0000
  H   H1684     1.0  0.90932  0.68700  0.88128  1.0000
  C   C2104     1.0  0.92325  0.56882  0.49610  1.0000
  C   C2105     1.0  0.85420  0.67932  0.91531  1.0000
  H   H1685     1.0  0.89208  0.54965  0.41006  1.0000
  C   C2106     1.0  0.91846  0.56994  0.37423  1.0000
  C   C2107     1.0  0.89547  0.59084  0.47020  1.0000
  C   C2108     1.0  0.90100  0.60357  0.38447  1.0000
  C   C2109     1.0  0.88014  0.69657  0.92884  1.0000
  H   H1686     1.0  0.91387  0.61103  0.42940  1.0000
  H   H1687     1.0  0.87715  0.68822  0.98335  1.0000
  S   S290      1.0  0.98778  0.66938  0.84694  1.0000
  H   H1688     1.0  0.85462  0.67334  0.97110  1.0000
  H   H1689     1.0  0.93920  0.56506  0.72424  1.0000
  C   C2110     1.0  0.89886  0.59020  0.50641  1.0000
  H   H1690     1.0  0.89062  0.59813  0.52451  1.0000
  H   H1691     1.0  0.96035  0.56608  0.36043  1.0000
  H   H1692     1.0  0.93108  0.61776  0.99454  1.0000
  C   C2111     1.0  0.94066  0.55694  0.18539  1.0000
  H   H1693     1.0  0.98732  0.62751  0.69624  1.0000
  C   C2112     1.0  0.86005  0.67972  0.94965  1.0000
  C   C2113     1.0  0.87835  0.51509  0.52842  1.0000
  H   H1694     1.0  0.93341  0.53422  0.92161  1.0000
  C   C2114     1.0  0.95941  0.64099  0.05440  1.0000
  H   H1695     1.0  0.91568  0.54480  0.12419  1.0000
  H   H1696     1.0  0.88985  0.59695  0.03518  1.0000
  C   C2115     1.0  0.91980  0.56928  0.45991  1.0000
  C   C2116     1.0  0.93473  0.58227  0.27285  1.0000
  C   C2117     1.0  0.91283  0.57931  0.51930  1.0000
  C   C2118     1.0  0.94790  0.56354  0.35809  1.0000
  H   H1697     1.0  0.86226  0.54579  0.06054  1.0000
  H   H1698     1.0  0.93714  0.58307  0.39332  1.0000
  C   C2119     1.0  0.85169  0.56439  0.38912  1.0000
  H   H1699     1.0  0.95523  0.54324  0.32192  1.0000
  H   H1700     1.0  0.92742  0.57360  0.26311  1.0000
  C   C2120     1.0  0.93538  0.60362  0.04358  1.0000
  C   C2121     1.0  0.86602  0.59338  0.17445  1.0000
  C   C2122     1.0  0.96287  0.71520  0.85423  1.0000
  H   H1701     1.0  0.94950  0.55169  0.20554  1.0000
  H   H1702     1.0  0.90545  0.69044  0.00282  1.0000
  C   C2123     1.0  0.94499  0.55075  0.33636  1.0000
  C   C2124     1.0  0.90800  0.61483  0.40437  1.0000
  H   H1703     1.0  0.88971  0.72654  0.08353  1.0000
  C   C2125     1.0  0.93339  0.56915  0.77964  1.0000
  C   C2126     1.0  0.94120  0.49505  0.57028  1.0000
  H   H1704     1.0  0.95180  0.71183  0.84329  1.0000
  C   C2127     1.0  0.93468  0.57317  0.37671  1.0000
  C   C2128     1.0  0.86604  0.55311  0.39863  1.0000
  H   H1705     1.0  0.91598  0.72089  0.80579  1.0000
  H   H1706     1.0  0.92642  0.53813  0.31543  1.0000
  H   H1707     1.0  0.98055  0.51687  0.75612  1.0000
  H   H1708     1.0  0.93388  0.56017  0.50634  1.0000
  H   H1709     1.0  0.92251  0.59439  0.15003  1.0000
  C   C2129     1.0  0.86748  0.58679  0.38688  1.0000
  C   C2130     1.0  0.91555  0.55743  0.35148  1.0000
  C   C2131     1.0  0.85238  0.58125  0.38352  1.0000
  H   H1710     1.0  0.94261  0.58251  0.19524  1.0000
  C   C2132     1.0  0.89987  0.70311  0.01006  1.0000
  H   H1711     1.0  0.90907  0.70768  0.31216  1.0000
  H   H1712     1.0  0.88819  0.62923  0.31374  1.0000
  C   C2133     1.0  0.90129  0.71474  0.29216  1.0000
  H   H1713     1.0  0.84119  0.59004  0.37654  1.0000
  H   H1714     1.0  0.88923  0.60023  0.33506  1.0000
  C   C2134     1.0  0.93629  0.60794  0.30239  1.0000
  H   H1715     1.0  0.86754  0.59997  0.38313  1.0000
  C   C2135     1.0  0.92846  0.59455  0.06995  1.0000
  C   C2136     1.0  0.91184  0.59230  0.06775  1.0000
  C   C2137     1.0  0.99292  0.63226  0.25682  1.0000
  C   C2138     1.0  0.95371  0.60431  0.29944  1.0000
  H   H1716     1.0  0.98287  0.70631  0.71375  1.0000
  H   H1717     1.0  0.97097  0.60374  0.82874  1.0000
  P   P71       1.0  0.90286  0.57957  0.10001  1.0000
  C   C2139     1.0  0.88106  0.73314  0.24127  1.0000
  C   C2140     1.0  0.87486  0.54817  0.05772  1.0000
  H   H1718     1.0  0.87108  0.56703  0.09717  1.0000
  C   C2141     1.0  0.93299  0.54642  0.16526  1.0000
  C   C2142     1.0  0.97851  0.63396  0.98102  1.0000
  C   C2143     1.0  0.88591  0.53936  0.03299  1.0000
  H   H1719     1.0  0.97233  0.61966  0.25141  1.0000
  C   C2144     1.0  0.97593  0.72956  0.89786  1.0000
  C   C2145     1.0  0.96167  0.58994  0.28181  1.0000
  C   C2146     1.0  0.89589  0.51674  0.82787  1.0000
  C   C2147     1.0  0.89619  0.56352  0.07478  1.0000
  H   H1720     1.0  0.91061  0.53575  0.00986  1.0000
  C   C2148     1.0  0.94794  0.64433  0.08250  1.0000
  C   C2149     1.0  0.91712  0.73476  0.62587  1.0000
  C   C2150     1.0  0.92162  0.73198  0.18191  1.0000
  C   C2151     1.0  0.93484  0.55994  0.74863  1.0000
  C   C2152     1.0  0.88142  0.50577  0.49730  1.0000
  H   H1721     1.0  0.92051  0.52576  0.77914  1.0000
  C   C2153     1.0  0.89670  0.73227  0.29504  1.0000
  H   H1722     1.0  0.90094  0.73853  0.31706  1.0000
  C   C2154     1.0  0.96070  0.66738  0.09946  1.0000
  H   H1723     1.0  0.95645  0.69609  0.95429  1.0000
  H   H1724     1.0  0.92536  0.68856  0.13934  1.0000
  C   C2155     1.0  0.91603  0.55136  0.88928  1.0000
  C   C2156     1.0  0.86637  0.51981  0.84125  1.0000
  H   H1725     1.0  0.96157  0.67723  0.11773  1.0000
  C   C2157     1.0  0.96956  0.55996  0.86952  1.0000
  C   C2158     1.0  0.90591  0.56730  0.88784  1.0000
  C   C2159     1.0  0.92548  0.54641  0.91968  1.0000
  H   H1726     1.0  0.94949  0.72981  0.89604  1.0000
  Fe  Fe145     1.0  0.88735  0.50462  0.40195  1.0000
  H   H1727     1.0  0.98123  0.65240  0.65674  1.0000
  C   C2160     1.0  0.99161  0.72338  0.88268  1.0000
  C   C2161     1.0  0.94857  0.65754  0.10492  1.0000
  C   C2162     1.0  0.99097  0.57168  0.31439  1.0000
  H   H1728     1.0  0.94943  0.69575  0.16954  1.0000
  H   H1729     1.0  0.89854  0.57142  0.86461  1.0000
  H   H1730     1.0  0.87089  0.50968  0.21707  1.0000
  H   H1731     1.0  0.93667  0.58147  0.77934  1.0000
  C   C2163     1.0  0.95725  0.73675  0.70016  1.0000
  H   H1732     1.0  0.94395  0.63712  0.93029  1.0000
  C   C2164     1.0  0.97910  0.60868  0.94767  1.0000
  C   C2165     1.0  0.95577  0.63168  0.94206  1.0000
  C   C2166     1.0  0.92478  0.55728  0.94807  1.0000
  H   H1733     1.0  0.95241  0.52828  0.83365  1.0000
  H   H1734     1.0  0.87583  0.52856  0.52650  1.0000
  C   C2167     1.0  0.86715  0.53369  0.86170  1.0000
  H   H1735     1.0  0.93611  0.68207  0.29094  1.0000
  C   C2168     1.0  0.95619  0.58851  0.85712  1.0000
  H   H1736     1.0  0.91392  0.58140  0.96846  1.0000
  C   C2169     1.0  0.90509  0.57804  0.91638  1.0000
  S   S291      1.0  0.88069  0.51654  0.45569  1.0000
  C   C2170     1.0  0.97230  0.66399  0.07162  1.0000
  C   C2171     1.0  0.99287  0.66421  0.99382  1.0000
  H   H1737     1.0  0.92636  0.57018  0.83419  1.0000
  C   C2172     1.0  0.96301  0.64077  0.96624  1.0000
  C   C2173     1.0  0.96976  0.72215  0.33196  1.0000
  H   H1738     1.0  0.95802  0.60866  0.91427  1.0000
  H   H1739     1.0  0.89703  0.59025  0.91503  1.0000
  C   C2174     1.0  0.96377  0.61564  0.93286  1.0000
  C   C2175     1.0  0.95784  0.50869  0.29850  1.0000
  H   H1740     1.0  0.93129  0.70721  0.25253  1.0000
  C   C2176     1.0  0.98399  0.56278  0.85156  1.0000
  H   H1741     1.0  0.97492  0.73758  0.92062  1.0000
  C   C2177     1.0  0.98232  0.69471  0.70092  1.0000
  C   C2178     1.0  0.93011  0.54434  0.74881  1.0000
  H   H1742     1.0  0.97737  0.57963  0.14867  1.0000
  C   C2179     1.0  0.92735  0.56268  0.81088  1.0000
  C   C2180     1.0  0.88076  0.51129  0.82453  1.0000
  C   C2181     1.0  0.92266  0.54690  0.81142  1.0000
  H   H1743     1.0  0.91674  0.72628  0.89013  1.0000
  C   C2182     1.0  0.91455  0.57305  0.94644  1.0000
  H   H1744     1.0  0.94370  0.71317  0.56547  1.0000
  P   P72       1.0  0.98727  0.64553  0.01370  1.0000
  H   H1745     1.0  0.85594  0.54043  0.87436  1.0000
  P   P73       1.0  0.98405  0.58501  0.27674  1.0000
  H   H1746     1.0  0.97333  0.50272  0.84443  1.0000
  H   H1747     1.0  0.88175  0.74083  0.97442  1.0000
  H   H1748     1.0  0.97614  0.50351  0.52285  1.0000
  C   C2183     1.0  0.98650  0.61781  0.97164  1.0000
  H   H1749     1.0  0.98284  0.55018  0.29317  1.0000
  C   C2184     1.0  0.98465  0.57859  0.83653  1.0000
  C   C2185     1.0  0.98812  0.55523  0.31561  1.0000
  C   C2186     1.0  0.98056  0.58176  0.20462  1.0000
  H   H1750     1.0  0.87310  0.74019  0.22156  1.0000
  C   C2187     1.0  0.98852  0.66928  0.95885  1.0000
  C   C2188     1.0  0.90794  0.72772  0.16505  1.0000
  H   H1751     1.0  0.91870  0.73150  0.68231  1.0000
  C   C2189     1.0  0.95568  0.57284  0.87236  1.0000
  C   C2190     1.0  0.88511  0.73543  0.02986  1.0000
  C   C2191     1.0  0.97260  0.72580  0.18632  1.0000
  C   C2192     1.0  0.93419  0.50001  0.44850  1.0000
  C   C2193     1.0  0.98280  0.59796  0.75882  1.0000
  C   C2194     1.0  0.92794  0.50517  0.87957  1.0000
  C   C2195     1.0  0.99307  0.71265  0.85369  1.0000
  C   C2196     1.0  0.92417  0.72972  0.59296  1.0000
  C   C2197     1.0  0.99213  0.71721  0.13772  1.0000
  C   C2198     1.0  0.98392  0.57406  0.17192  1.0000
  H   H1752     1.0  0.98979  0.53242  0.34639  1.0000
  H   H1753     1.0  0.91886  0.73597  0.56902  1.0000
  H   H1754     1.0  0.99454  0.55262  0.84937  1.0000
  H   H1755     1.0  0.97146  0.59325  0.20621  1.0000
  H   H1756     1.0  0.94749  0.71154  0.33714  1.0000
  C   C2199     1.0  0.95366  0.72157  0.34477  1.0000
  H   H1757     1.0  0.91535  0.50566  0.88970  1.0000
  C   C2200     1.0  0.99224  0.53077  0.57217  1.0000
  S   S292      1.0  0.98871  0.52744  0.67633  1.0000
  C   C2201     1.0  0.98092  0.50382  0.76310  1.0000
  C   C2202     1.0  0.98413  0.73463  0.20047  1.0000
  H   H1758     1.0  0.99146  0.73106  0.79375  1.0000
  H   H1759     1.0  0.99176  0.73994  0.73146  1.0000
  C   C2203     1.0  0.99023  0.61909  0.71868  1.0000
  H   H1760     1.0  0.85462  0.51568  0.83812  1.0000
  S   S293      1.0  0.90633  0.49601  0.74639  1.0000
  H   H1761     1.0  0.91474  0.49693  0.56164  1.0000
  H   H1762     1.0  0.93840  0.73300  0.28165  1.0000
  H   H1763     1.0  0.93262  0.73404  0.37558  1.0000
  C   C2204     1.0  0.94527  0.73421  0.36643  1.0000
  H   H1764     1.0  0.98150  0.74103  0.22533  1.0000
  C   C2205     1.0  0.99158  0.51819  0.54807  1.0000
  C   C2206     1.0  0.98364  0.49528  0.67587  1.0000
  H   H1765     1.0  0.91990  0.74384  0.19511  1.0000
  C   C2207     1.0  0.94680  0.74402  0.23347  1.0000
  Fe  Fe146     1.0  0.90333  0.78325  0.64144  1.0000
  S   S294      1.0  0.89899  0.81036  0.65539  1.0000
  S   S295      1.0  0.91269  0.77519  0.58655  1.0000
  Fe  Fe147     1.0  0.89982  0.77105  0.71895  1.0000
  S   S296      1.0  0.89513  0.79769  0.73783  1.0000
  C   C2208     1.0  0.76871  0.96790  0.55969  1.0000
  Fe  Fe148     1.0  0.87828  0.80417  0.69070  1.0000
  S   S297      1.0  0.85088  0.81795  0.69155  1.0000
  Fe  Fe149     1.0  0.91624  0.80161  0.70060  1.0000
  S   S298      1.0  0.93749  0.81441  0.71736  1.0000
  S   S299      1.0  0.88177  0.77710  0.67393  1.0000
  S   S300      1.0  0.92174  0.77492  0.68460  1.0000
  H   H1766     1.0  0.93275  0.80137  0.78856  1.0000
  S   S301      1.0  0.77098  0.92525  0.73179  1.0000
  C   C2209     1.0  0.96863  0.77245  0.83792  1.0000
  H   H1767     1.0  0.96265  0.76160  0.70145  1.0000
  S   S302      1.0  0.77736  0.92546  0.64591  1.0000
  H   H1768     1.0  0.76076  0.81393  0.34759  1.0000
  Fe  Fe150     1.0  0.78389  0.90687  0.69124  1.0000
  S   S303      1.0  0.81134  0.89379  0.69615  1.0000
  Fe  Fe151     1.0  0.76272  0.94266  0.68575  1.0000
  H   H1769     1.0  0.83110  0.78919  0.31841  1.0000
  S   S304      1.0  0.76155  0.89468  0.68496  1.0000
  H   H1770     1.0  0.80356  0.94980  0.44574  1.0000
  Fe  Fe152     1.0  0.88292  0.79297  0.39181  1.0000
  S   S305      1.0  0.89516  0.81485  0.37946  1.0000
  S   S306      1.0  0.87087  0.79085  0.44613  1.0000
  Fe  Fe153     1.0  0.88567  0.78174  0.31429  1.0000
  S   S307      1.0  0.89755  0.80367  0.29681  1.0000
  S   S308      1.0  0.87983  0.76374  0.27238  1.0000
  Fe  Fe154     1.0  0.91316  0.79740  0.34557  1.0000
  S   S309      1.0  0.94136  0.79280  0.35338  1.0000
  Fe  Fe155     1.0  0.87823  0.81937  0.33233  1.0000
  S   S310      1.0  0.86490  0.84682  0.32644  1.0000
  S   S311      1.0  0.90200  0.77485  0.36148  1.0000
  S   S312      1.0  0.86533  0.79803  0.34604  1.0000
  Fe  Fe156     1.0  0.77399  0.90871  0.32392  1.0000
  S   S313      1.0  0.75797  0.90327  0.37039  1.0000
  S   S314      1.0  0.79074  0.88636  0.29723  1.0000
  Fe  Fe157     1.0  0.75971  0.94666  0.32636  1.0000
  C   C2210     1.0  0.93916  0.78096  0.82605  1.0000
  H   H1771     1.0  0.87933  0.74793  0.03763  1.0000
  Fe  Fe158     1.0  0.76570  0.92557  0.39416  1.0000
  S   S315      1.0  0.77741  0.92639  0.44754  1.0000
  H   H1772     1.0  0.97841  0.76408  0.85159  1.0000
  C   C2211     1.0  0.82260  0.83010  0.81272  1.0000
  S   S316      1.0  0.78260  0.93035  0.34886  1.0000
  S   S317      1.0  0.75236  0.92548  0.29649  1.0000
  S   S318      1.0  0.90514  0.74946  0.76031  1.0000
  H   H1773     1.0  0.76087  0.79040  0.46635  1.0000
  C   C2212     1.0  0.82693  0.79838  0.29776  1.0000
  H   H1774     1.0  0.79582  0.74647  0.33632  1.0000
  H   H1775     1.0  0.77096  0.84933  0.73542  1.0000
  C   C2213     1.0  0.78248  0.82576  0.34442  1.0000
  C   C2214     1.0  0.93620  0.77456  0.26734  1.0000
  C   C2215     1.0  0.95810  0.80175  0.33573  1.0000
  C   C2216     1.0  0.83731  0.79942  0.26821  1.0000
  H   H1776     1.0  0.97984  0.79028  0.62830  1.0000
  H   H1777     1.0  0.94401  0.81859  0.29799  1.0000
  P   P74       1.0  0.79763  0.80684  0.33758  1.0000
  C   C2217     1.0  0.84350  0.85655  0.32194  1.0000
  C   C2218     1.0  0.83774  0.87222  0.33736  1.0000
  C   C2219     1.0  0.82145  0.88124  0.33126  1.0000
  C   C2220     1.0  0.81085  0.87494  0.30869  1.0000
  C   C2221     1.0  0.81660  0.85931  0.29331  1.0000
  C   C2222     1.0  0.83267  0.85002  0.30037  1.0000
  H   H1778     1.0  0.84601  0.87752  0.35381  1.0000
  H   H1779     1.0  0.81726  0.89327  0.34311  1.0000
  H   H1780     1.0  0.80861  0.85451  0.27534  1.0000
  H   H1781     1.0  0.83699  0.83819  0.28774  1.0000
  H   H1782     1.0  0.76381  0.88257  0.54265  1.0000
  C   C2223     1.0  0.77289  0.87268  0.55424  1.0000
  C   C2224     1.0  0.76763  0.98721  0.68228  1.0000
  C   C2225     1.0  0.76667  0.92263  0.48678  1.0000
  C   C2226     1.0  0.77434  0.92402  0.51908  1.0000
  C   C2227     1.0  0.76664  0.92040  0.55105  1.0000
  H   H1783     1.0  0.93065  0.80271  0.59879  1.0000
  H   H1784     1.0  0.81968  0.79397  0.85794  1.0000
  H   H1785     1.0  0.78638  0.92774  0.51938  1.0000
  H   H1786     1.0  0.77277  0.92125  0.57559  1.0000
  C   C2228     1.0  0.95307  0.74733  0.37560  1.0000
  C   C2229     1.0  0.98667  0.81500  0.69551  1.0000
  C   C2230     1.0  0.95175  0.78962  0.56942  1.0000
  H   H1787     1.0  0.85301  0.95729  0.34703  1.0000
  C   C2231     1.0  0.77568  0.85665  0.75508  1.0000
  C   C2232     1.0  0.79855  0.86159  0.91715  1.0000
  C   C2233     1.0  0.76539  0.82549  0.34860  1.0000
  C   C2234     1.0  0.95766  0.81071  0.69686  1.0000
  H   H1788     1.0  0.81035  0.96633  0.27802  1.0000
  C   C2235     1.0  0.96123  0.80063  0.66718  1.0000
  H   H1789     1.0  0.79693  0.83495  0.53582  1.0000
  H   H1790     1.0  0.95157  0.79492  0.65621  1.0000
  C   C2236     1.0  0.90096  0.78099  0.54804  1.0000
  C   C2237     1.0  0.88367  0.78639  0.54966  1.0000
  C   C2238     1.0  0.87461  0.78958  0.51817  1.0000
  C   C2239     1.0  0.88280  0.78770  0.48497  1.0000
  C   C2240     1.0  0.90014  0.78286  0.48343  1.0000
  C   C2241     1.0  0.90916  0.77935  0.51488  1.0000
  H   H1791     1.0  0.87725  0.78762  0.57509  1.0000
  H   H1792     1.0  0.86120  0.79327  0.51954  1.0000
  H   H1793     1.0  0.90655  0.78139  0.45799  1.0000
  H   H1794     1.0  0.92254  0.77519  0.51347  1.0000
  C   C2242     1.0  0.84019  0.83920  0.68997  1.0000
  C   C2243     1.0  0.84857  0.85269  0.68802  1.0000
  C   C2244     1.0  0.83949  0.86925  0.68886  1.0000
  C   C2245     1.0  0.82195  0.87262  0.69202  1.0000
  C   C2246     1.0  0.81356  0.85913  0.69314  1.0000
  C   C2247     1.0  0.82262  0.84257  0.69195  1.0000
  H   H1795     1.0  0.86205  0.85038  0.68644  1.0000
  H   H1796     1.0  0.84615  0.87956  0.68775  1.0000
  H   H1797     1.0  0.80012  0.86147  0.69568  1.0000
  H   H1798     1.0  0.81597  0.83227  0.69345  1.0000
  H   H1799     1.0  0.84943  0.79124  0.26649  1.0000
  H   H1800     1.0  0.93238  0.78632  0.28069  1.0000
  C   C2248     1.0  0.83231  0.80903  0.41286  1.0000
  C   C2249     1.0  0.82734  0.79952  0.44090  1.0000
  C   C2250     1.0  0.81310  0.79249  0.43795  1.0000
  C   C2251     1.0  0.80408  0.79462  0.40655  1.0000
  C   C2252     1.0  0.80944  0.80358  0.37774  1.0000
  C   C2253     1.0  0.82333  0.81123  0.38153  1.0000
  H   H1801     1.0  0.84023  0.81177  0.21814  1.0000
  C   C2254     1.0  0.83209  0.81093  0.24088  1.0000
  C   C2255     1.0  0.81642  0.82133  0.24300  1.0000
  C   C2256     1.0  0.80602  0.82036  0.27262  1.0000
  H   H1802     1.0  0.84345  0.81431  0.41500  1.0000
  H   H1803     1.0  0.83482  0.79734  0.46453  1.0000
  H   H1804     1.0  0.80926  0.78509  0.45971  1.0000
  H   H1805     1.0  0.79313  0.78902  0.40459  1.0000
  H   H1806     1.0  0.79389  0.82847  0.27372  1.0000
  H   H1807     1.0  0.80496  0.97345  0.40385  1.0000
  C   C2257     1.0  0.77844  0.87459  0.58840  1.0000
  H   H1808     1.0  0.87113  0.98608  0.26348  1.0000
  H   H1809     1.0  0.77243  0.94402  0.23235  1.0000
  H   H1810     1.0  0.81226  0.82450  0.86399  1.0000
  Fe  Fe159     1.0  0.75432  0.91429  0.64209  1.0000
  H   H1811     1.0  0.92636  0.77929  0.82988  1.0000
  C   C2258     1.0  0.97139  0.80644  0.54642  1.0000
  P   P75       1.0  0.83279  0.93755  0.30850  1.0000
  C   C2259     1.0  0.96930  0.74772  0.36354  1.0000
  H   H1812     1.0  0.99190  0.76873  0.68427  1.0000
  C   C2260     1.0  0.76677  0.81295  0.44265  1.0000
  H   H1813     1.0  0.77078  0.80286  0.29017  1.0000
  C   C2261     1.0  0.84609  0.95719  0.25828  1.0000
  C   C2262     1.0  0.75109  0.91785  0.48657  1.0000
  C   C2263     1.0  0.93487  0.75959  0.28488  1.0000
  C   C2264     1.0  0.96701  0.82845  0.43295  1.0000
  H   H1814     1.0  0.76795  0.96509  0.50327  1.0000
  C   C2265     1.0  0.85005  0.85412  0.79661  1.0000
  C   C2266     1.0  0.86258  0.86174  0.78142  1.0000
  H   H1815     1.0  0.96456  0.83290  0.55673  1.0000
  C   C2267     1.0  0.85346  0.96062  0.31915  1.0000
  H   H1816     1.0  0.95606  0.76491  0.76517  1.0000
  C   C2268     1.0  0.76965  0.77677  0.29110  1.0000
  H   H1817     1.0  0.87542  0.85518  0.78118  1.0000
  C   C2269     1.0  0.90015  0.74525  0.86184  1.0000
  H   H1818     1.0  0.75957  0.77825  0.27237  1.0000
  H   H1819     1.0  0.75074  0.86694  0.36125  1.0000
  C   C2270     1.0  0.75119  0.91541  0.55111  1.0000
  H   H1820     1.0  0.76257  0.99255  0.76700  1.0000
  C   C2271     1.0  0.98233  0.76369  0.28425  1.0000
  C   C2272     1.0  0.76399  0.98975  0.31725  1.0000
  H   H1821     1.0  0.81239  0.83028  0.22183  1.0000
  C   C2273     1.0  0.77589  0.79072  0.30163  1.0000
  H   H1822     1.0  0.83421  0.78179  0.80346  1.0000
  C   C2274     1.0  0.97012  0.82292  0.46794  1.0000
  C   C2275     1.0  0.99240  0.77595  0.73879  1.0000
  C   C2276     1.0  0.87086  0.74843  0.87751  1.0000
  C   C2277     1.0  0.85853  0.87771  0.76607  1.0000
  H   H1823     1.0  0.96000  0.82514  0.48717  1.0000
  H   H1824     1.0  0.94797  0.77761  0.57286  1.0000
  C   C2278     1.0  0.82095  0.88746  0.59846  1.0000
  C   C2279     1.0  0.80947  0.89531  0.57369  1.0000
  C   C2280     1.0  0.80918  0.88861  0.54003  1.0000
  C   C2281     1.0  0.82075  0.87438  0.53079  1.0000
  C   C2282     1.0  0.83298  0.86703  0.55491  1.0000
  C   C2283     1.0  0.83243  0.87314  0.58944  1.0000
  P   P76       1.0  0.84872  0.84948  0.54197  1.0000
  C   C2284     1.0  0.84109  0.83076  0.55458  1.0000
  C   C2285     1.0  0.85353  0.85092  0.49535  1.0000
  C   C2286     1.0  0.85901  0.83642  0.47582  1.0000
  C   C2287     1.0  0.86365  0.83768  0.44022  1.0000
  C   C2288     1.0  0.86325  0.85332  0.42406  1.0000
  C   C2289     1.0  0.85817  0.86780  0.44348  1.0000
  C   C2290     1.0  0.85347  0.86663  0.47912  1.0000
  C   C2291     1.0  0.83177  0.82327  0.53102  1.0000
  C   C2292     1.0  0.82600  0.80869  0.54116  1.0000
  C   C2293     1.0  0.82939  0.80162  0.57490  1.0000
  C   C2294     1.0  0.83834  0.80923  0.59871  1.0000
  C   C2295     1.0  0.84408  0.82381  0.58874  1.0000
  C   C2296     1.0  0.86857  0.84910  0.56232  1.0000
  C   C2297     1.0  0.88031  0.83413  0.56315  1.0000
  C   C2298     1.0  0.89591  0.83359  0.57804  1.0000
  C   C2299     1.0  0.89989  0.84798  0.59240  1.0000
  C   C2300     1.0  0.88848  0.86306  0.59070  1.0000
  C   C2301     1.0  0.87295  0.86370  0.57519  1.0000
  H   H1825     1.0  0.82093  0.89252  0.62471  1.0000
  H   H1826     1.0  0.80060  0.90638  0.58093  1.0000
  H   H1827     1.0  0.79992  0.89441  0.52119  1.0000
  H   H1828     1.0  0.82025  0.86929  0.50471  1.0000
  H   H1829     1.0  0.84102  0.86704  0.60927  1.0000
  H   H1830     1.0  0.86015  0.82413  0.48809  1.0000
  H   H1831     1.0  0.86792  0.82645  0.42539  1.0000
  H   H1832     1.0  0.86727  0.85418  0.39672  1.0000
  H   H1833     1.0  0.85815  0.87991  0.43102  1.0000
  H   H1834     1.0  0.85012  0.87797  0.49412  1.0000
  H   H1835     1.0  0.82899  0.82866  0.50488  1.0000
  H   H1836     1.0  0.81898  0.80280  0.52285  1.0000
  H   H1837     1.0  0.82512  0.79022  0.58267  1.0000
  H   H1838     1.0  0.84095  0.80382  0.62499  1.0000
  H   H1839     1.0  0.85090  0.82956  0.60779  1.0000
  H   H1840     1.0  0.87746  0.82283  0.55217  1.0000
  H   H1841     1.0  0.90481  0.82191  0.57866  1.0000
  H   H1842     1.0  0.91182  0.84746  0.60478  1.0000
  H   H1843     1.0  0.89168  0.87426  0.60136  1.0000
  H   H1844     1.0  0.86450  0.87559  0.57322  1.0000
  H   H1845     1.0  0.81661  0.88496  0.77894  1.0000
  C   C2302     1.0  0.77007  0.82887  0.44871  1.0000
  C   C2303     1.0  0.82280  0.80211  0.83678  1.0000
  P   P77       1.0  0.77253  0.85587  0.49066  1.0000
  C   C2304     1.0  0.79003  0.75888  0.32719  1.0000
  C   C2305     1.0  0.78882  0.86155  0.46264  1.0000
  C   C2306     1.0  0.80231  0.84938  0.45112  1.0000
  C   C2307     1.0  0.81523  0.85407  0.43068  1.0000
  C   C2308     1.0  0.81481  0.87087  0.42181  1.0000
  C   C2309     1.0  0.80151  0.88303  0.43339  1.0000
  C   C2310     1.0  0.78868  0.87844  0.45414  1.0000
  C   C2311     1.0  0.83488  0.80571  0.77875  1.0000
  H   H1846     1.0  0.94930  0.76076  0.86146  1.0000
  P   P78       1.0  0.99367  0.78780  0.80727  1.0000
  H   H1847     1.0  0.97339  0.81857  0.83566  1.0000
  C   C2312     1.0  0.82936  0.87836  0.78051  1.0000
  H   H1848     1.0  0.78387  0.96912  0.24645  1.0000
  C   C2313     1.0  0.76350  0.80272  0.47111  1.0000
  H   H1849     1.0  0.77231  0.83678  0.42634  1.0000
  H   H1850     1.0  0.80295  0.83632  0.45805  1.0000
  H   H1851     1.0  0.82564  0.84475  0.42168  1.0000
  H   H1852     1.0  0.82483  0.87448  0.40611  1.0000
  H   H1853     1.0  0.80110  0.89607  0.42634  1.0000
  H   H1854     1.0  0.77866  0.88811  0.46354  1.0000
  C   C2314     1.0  0.81132  0.80904  0.30044  1.0000
  H   H1855     1.0  0.87880  0.89333  0.34968  1.0000
  C   C2315     1.0  0.85869  0.91260  0.33160  1.0000
  H   H1856     1.0  0.75843  0.87395  0.42661  1.0000
  C   C2316     1.0  0.96116  0.82073  0.56026  1.0000
  C   C2317     1.0  0.97023  0.82036  0.29579  1.0000
  H   H1857     1.0  0.97547  0.78709  0.37121  1.0000
  H   H1858     1.0  0.92981  0.75984  0.31164  1.0000
  H   H1859     1.0  0.82746  0.81867  0.36014  1.0000
  C   C2318     1.0  0.82486  0.94139  0.35310  1.0000
  H   H1860     1.0  0.77349  0.88581  0.60291  1.0000
  C   C2319     1.0  0.95622  0.81399  0.30873  1.0000
  H   H1861     1.0  0.80692  0.83858  0.59613  1.0000
  H   H1862     1.0  0.95461  0.83464  0.42546  1.0000
  C   C2320     1.0  0.76623  0.82456  0.51180  1.0000
  H   H1863     1.0  0.83740  0.86952  0.93029  1.0000
  H   H1864     1.0  0.80712  0.77089  0.35449  1.0000
  C   C2321     1.0  0.79163  0.84600  0.55039  1.0000
  H   H1865     1.0  0.83984  0.95118  0.23867  1.0000
  C   C2322     1.0  0.78888  0.78893  0.32605  1.0000
  C   C2323     1.0  0.83330  0.86232  0.79600  1.0000
  C   C2324     1.0  0.79626  0.77282  0.33785  1.0000
  H   H1866     1.0  0.96783  0.82602  0.73339  1.0000
  H   H1867     1.0  0.83868  0.89823  0.75301  1.0000
  C   C2325     1.0  0.77922  0.85823  0.53523  1.0000
  C   C2326     1.0  0.81061  0.96083  0.39662  1.0000
  H   H1868     1.0  0.96172  0.80496  0.77829  1.0000
  H   H1869     1.0  0.76522  0.89373  0.79701  1.0000
  C   C2327     1.0  0.77011  0.83468  0.48340  1.0000
  C   C2328     1.0  0.78803  0.84093  0.34800  1.0000
  C   C2329     1.0  0.76320  0.80854  0.50567  1.0000
  H   H1870     1.0  0.86943  0.97844  0.32725  1.0000
  H   H1871     1.0  0.87869  0.87588  0.29690  1.0000
  C   C2330     1.0  0.79749  0.86034  0.79536  1.0000
  C   C2331     1.0  0.81861  0.81947  0.84010  1.0000
  H   H1872     1.0  0.78689  0.86135  0.93128  1.0000
  C   C2332     1.0  0.97402  0.79605  0.34948  1.0000
  P   P79       1.0  0.99060  0.80805  0.52301  1.0000
  H   H1873     1.0  0.97479  0.75820  0.37057  1.0000
  C   C2333     1.0  0.85551  0.96911  0.24721  1.0000
  H   H1874     1.0  0.85348  0.84181  0.80863  1.0000
  C   C2334     1.0  0.95210  0.77049  0.84363  1.0000
  H   H1875     1.0  0.85891  0.92011  0.35481  1.0000
  C   C2335     1.0  0.77663  0.85567  0.35447  1.0000
  H   H1876     1.0  0.80118  0.84143  0.34567  1.0000
  C   C2336     1.0  0.94187  0.80383  0.58383  1.0000
  H   H1877     1.0  0.98975  0.82113  0.59533  1.0000
  H   H1878     1.0  0.81546  0.92093  0.42850  1.0000
  C   C2337     1.0  0.97045  0.81801  0.71072  1.0000
  C   C2338     1.0  0.81809  0.95777  0.36319  1.0000
  C   C2339     1.0  0.83067  0.82305  0.78196  1.0000
  P   P80       1.0  0.81719  0.85256  0.81643  1.0000
  C   C2340     1.0  0.75399  0.84031  0.35461  1.0000
  C   C2341     1.0  0.94275  0.79342  0.80277  1.0000
  S   S319      1.0  0.75573  0.97111  0.68482  1.0000
  C   C2342     1.0  0.80014  0.85760  0.88127  1.0000
  C   C2343     1.0  0.83096  0.79523  0.80613  1.0000
  C   C2344     1.0  0.84195  0.88603  0.76581  1.0000
  H   H1879     1.0  0.88073  0.76243  0.83560  1.0000
  C   C2345     1.0  0.94775  0.75916  0.21573  1.0000
  C   C2346     1.0  0.81514  0.85806  0.86263  1.0000
  H   H1880     1.0  0.86818  0.88352  0.75380  1.0000
  S   S320      1.0  0.75481  0.97308  0.30267  1.0000
  H   H1881     1.0  0.90991  0.74860  0.84477  1.0000
  C   C2347     1.0  0.76842  0.97905  0.58730  1.0000
  H   H1882     1.0  0.81329  0.91287  0.28446  1.0000
  H   H1883     1.0  0.76885  0.97441  0.61438  1.0000
  C   C2348     1.0  0.84478  0.95308  0.29439  1.0000
  C   C2349     1.0  0.98289  0.82202  0.81809  1.0000
  C   C2350     1.0  0.95512  0.75335  0.75277  1.0000
  C   C2351     1.0  0.81195  0.86592  0.93479  1.0000
  C   C2352     1.0  0.79065  0.86229  0.60350  1.0000
  C   C2353     1.0  0.81659  0.93120  0.41045  1.0000
  C   C2354     1.0  0.82394  0.92808  0.37688  1.0000
  C   C2355     1.0  0.76623  0.87200  0.76517  1.0000
  H   H1884     1.0  0.83376  0.83096  0.76040  1.0000
  C   C2356     1.0  0.80985  0.94754  0.42024  1.0000
  H   H1885     1.0  0.97394  0.77967  0.54012  1.0000
  C   C2357     1.0  0.74893  0.87551  0.44730  1.0000
  H   H1886     1.0  0.79842  0.83897  0.76166  1.0000
  C   C2358     1.0  0.78802  0.87590  0.80484  1.0000
  H   H1887     1.0  0.94323  0.78603  0.21895  1.0000
  H   H1888     1.0  0.85803  0.75432  0.87300  1.0000
  C   C2359     1.0  0.82863  0.86220  0.88068  1.0000
  H   H1889     1.0  0.79266  0.88362  0.82381  1.0000
  H   H1890     1.0  0.97437  0.84839  0.82581  1.0000
  H   H1891     1.0  0.97740  0.83023  0.38039  1.0000
  H   H1892     1.0  0.97034  0.78635  0.25795  1.0000
  H   H1893     1.0  0.84039  0.86246  0.86715  1.0000
  C   C2360     1.0  0.79127  0.85082  0.77007  1.0000
  H   H1894     1.0  0.78965  0.85416  0.86805  1.0000
  H   H1895     1.0  0.84118  0.80043  0.75487  1.0000
  C   C2361     1.0  0.77247  0.88168  0.78978  1.0000
  C   C2362     1.0  0.82699  0.86619  0.91659  1.0000
  C   C2363     1.0  0.80585  0.95514  0.27118  1.0000
  C   C2364     1.0  0.76797  0.97377  0.52465  1.0000
  H   H1896     1.0  0.81069  0.86907  0.96258  1.0000
  C   C2365     1.0  0.94244  0.77437  0.23262  1.0000
  H   H1897     1.0  0.81817  0.96817  0.34487  1.0000
  H   H1898     1.0  0.78742  0.91590  0.25083  1.0000
  Fe  Fe160     1.0  0.74809  0.91428  0.72228  1.0000
  H   H1899     1.0  0.82837  0.91529  0.36923  1.0000
  C   C2366     1.0  0.78044  0.98710  0.32883  1.0000
  C   C2367     1.0  0.79729  0.84800  0.58448  1.0000
  C   C2368     1.0  0.98624  0.81440  0.30933  1.0000
  C   C2369     1.0  0.97234  0.78510  0.81485  1.0000
  C   C2370     1.0  0.96647  0.79088  0.55083  1.0000
  C   C2371     1.0  0.79084  0.95680  0.25315  1.0000
  H   H1900     1.0  0.93901  0.83034  0.59081  1.0000
  C   C2372     1.0  0.79274  0.92684  0.25592  1.0000
  C   C2373     1.0  0.85898  0.89312  0.27153  1.0000
  H   H1901     1.0  0.96867  0.82994  0.27519  1.0000
  H   H1902     1.0  0.79167  0.97110  0.67859  1.0000
  H   H1903     1.0  0.97066  0.76108  0.29484  1.0000
  H   H1904     1.0  0.83947  0.91233  0.25234  1.0000
  C   C2374     1.0  0.95925  0.79541  0.79697  1.0000
  H   H1905     1.0  0.85899  0.88541  0.24851  1.0000
  C   C2375     1.0  0.76700  0.99083  0.51722  1.0000
  C   C2376     1.0  0.99021  0.80488  0.66586  1.0000
  C   C2377     1.0  0.97984  0.82590  0.40748  1.0000
  C   C2378     1.0  0.77664  0.76086  0.30406  1.0000
  H   H1906     1.0  0.76652  0.80861  0.41584  1.0000
  H   H1907     1.0  0.78735  0.97448  0.33136  1.0000
  C   C2379     1.0  0.86286  0.97255  0.30801  1.0000
  C   C2380     1.0  0.78432  0.94266  0.24539  1.0000
  C   C2381     1.0  0.87009  0.89756  0.32866  1.0000
  C   C2382     1.0  0.75238  0.86848  0.48127  1.0000
  C   C2383     1.0  0.81453  0.93926  0.28152  1.0000
  C   C2384     1.0  0.80760  0.92515  0.27460  1.0000
  C   C2385     1.0  0.98347  0.83895  0.81278  1.0000
  C   C2386     1.0  0.84712  0.91786  0.30475  1.0000
  C   C2387     1.0  0.98611  0.81458  0.47758  1.0000
  C   C2388     1.0  0.87014  0.88776  0.29877  1.0000
  C   C2389     1.0  0.97730  0.79800  0.65144  1.0000
  C   C2390     1.0  0.84770  0.90825  0.27418  1.0000
  H   H1908     1.0  0.85638  0.97232  0.21932  1.0000
  C   C2391     1.0  0.94657  0.81938  0.57927  1.0000
  H   H1909     1.0  0.79515  0.86402  0.62966  1.0000
  C   C2392     1.0  0.98204  0.77801  0.26296  1.0000
  H   H1910     1.0  0.97917  0.78098  0.73973  1.0000
  C   C2393     1.0  0.98801  0.80210  0.33607  1.0000
  H   H1911     1.0  0.90639  0.74485  0.62730  1.0000
  H   H1912     1.0  0.76026  0.80077  0.52771  1.0000
  C   C2394     1.0  0.78503  0.98389  0.67911  1.0000
  C   C2395     1.0  0.86384  0.97683  0.27208  1.0000
  C   C2396     1.0  0.88363  0.75307  0.85657  1.0000
  H   H1913     1.0  0.78101  0.86737  0.35674  1.0000
  H   H1914     1.0  0.94640  0.75746  0.39153  1.0000
  H   H1915     1.0  0.74507  0.91680  0.46168  1.0000
  H   H1916     1.0  0.76930  0.95472  0.56555  1.0000
  H   H1917     1.0  0.75413  0.87656  0.75366  1.0000
  C   C2397     1.0  0.95891  0.75146  0.71676  1.0000
  C   C2398     1.0  0.75960  0.85541  0.35723  1.0000
  H   H1918     1.0  0.77194  0.75002  0.29555  1.0000
  H   H1919     1.0  0.76525  0.82911  0.53864  1.0000
  H   H1920     1.0  0.95254  0.75922  0.18877  1.0000
  C   C2399     1.0  0.93998  0.74436  0.26792  1.0000
  C   C2400     1.0  0.99444  0.80972  0.80071  1.0000
