data_image0
_chemical_formula_structural       FeC3HCH2SC2FeSFeSFeSFeS2HPC6H4C2H3C2H4SH3CHCHCHC2HCH2CHCSH2CHC4PC2H2C3FeHC2HC6HCHCHC2H4CSCH2CH2C9HCHCH4C2SC2HC3HC3PC2HC2H3C2HC4HCHPC2HCHC2HCHCSCH2CH2C2HCFeSHFeS2FeSFeCSHC2HCSH2CH2CHSC3H2C6H3C2FeSH4CSC2H3C2H5CH2C3PC13SH9C6PC9FeC6H6CHCH3CH3CHCH3CHC2SC2H4C6H2C2H4CFeHCHFeSHFeS2FeHSC2SFeCSHCH2CH2FeS2H2C2HSC3H3SHPHC7H4SC2HSC3HSHFeSC2HC3H3FeCFeCFeCH2CH2C2HC4HC6HC5PC8H3C7H12CSH6CH5CHCH4PC5HCHSHCHC3SH2CHC2H2C4HC5H2C3SFeS2C2S2CH2CH3CHPH2C3HFeHCHC2H3C2HC3H2SC5HFeH2CH3C3H2C2PC3FeCHC5HCSHCHCH3C2H4C2H2C2HCFeHSHCSC2HC2H2CH2CHCH2CH2C2SCSCSH4C3HC3H8FeSC2HC2PC4H2SCSHC4HC2H6CH2C2HFeCPCH2CHC2SFeC4HC4H2CHC3HC4H2C3H4CHC5H2C6H4CH3CHCHCHSHCHC3H2CH2SC7H2CHCHSPC2HCHCHC2HC5H5C2FeH5CHC3H2C2H2SCHC3H4SHCPH3CHC6H2CFeSC4H3CSHC3HCH2CHFeC2HC2HCH2CH2C5HCHCHC2HCSHCSH5PCH2CFeHCHC2HCHC3HC2SCH4C3H2CH2CHCHC2HC2H2C2PH2C4H2C2HCHC2H2C5H2C4H3CH2C3FeH3C4HCH2CH4C5HC2S2HCHCHCHCHC2HSC5HC2S2HCSC2HC4HC2HC3HCPCHC3HC2HCH4C4HC4H2C3H2C2H2CH2FeCH2C4H2CHPH2C2HFeH2C4HSCH2C3HCHCSHCH3PH4CHC3HPC3SHCSHCHS3FeC4Fe2S2FeHFeS4HC6H4C2SCHCHFeH3CHSHC4HCH2CHCFeH2CHC2H2C4SH2CHFeC2HC7PC11HCHC2H2CH5CH4CH2CPC2HCH2C2SC2FeSCHCH3C2HC2H2C5H6CHSC2HCHC6H9C2HCHC5H3CHFeS2HFe2S2CSHC6H3C2HCHC2SHC2FeHCHSC4H3CHSHC7HC2H2CH3C3H6C4H2PH3C3SC2HPC4FeC4H2C7H2FeC2HPC2H2C2H6C3SC2H3C3S2H2C3HC2H3C2HCFeSFeSFe2S2HCSCH2C3H3C8H7CSHC6PC6H2C8H8CSH6C2H3CH3C3HC3HSC2H2CH3CPCH2CHC2H3CHC4H2C3SHC2H2SCH2CFeHC2HCSHC7HSC2HC3HCH4CPFeH2C3H4C7H3C2HC3HC2HC2SCHCFeS2FeS2FeHFeS4C6HS2HC6H4C3H2CH2C2H2C2H2C2PC14H2C2H8C2H2CHCH2C3HPHCHCHC2H2C7H3CH2CH3C2H10C6SC4HC2SH4C4HFeHC2HC2HSCH3C3HPC2HC2H3CH2FeH3C
_chemical_formula_sum              "Fe64 C960 H768 S128 P32"
_cell_length_a       31.6767
_cell_length_b       44.6593
_cell_length_c       34.4859
_cell_angle_alpha    90.0025
_cell_angle_beta     116.533
_cell_angle_gamma    89.9618

_space_group_name_H-M_alt    "P 1"
_space_group_IT_number       1

loop_
  _space_group_symop_operation_xyz
  'x, y, z'

loop_
  _atom_site_type_symbol
  _atom_site_label
  _atom_site_symmetry_multiplicity
  _atom_site_fract_x
  _atom_site_fract_y
  _atom_site_fract_z
  _atom_site_occupancy
  Fe  Fe1       1.0  0.00948  0.12088  0.03786  1.0000
  C   C1        1.0  0.26871  0.16553  0.12347  1.0000
  C   C2        1.0  0.01904  0.26490  0.05274  1.0000
  C   C3        1.0  0.04547  0.29063  0.05467  1.0000
  H   H1        1.0  0.42226  0.24600  0.29176  1.0000
  C   C4        1.0  0.00147  0.31979  0.08387  1.0000
  H   H2        1.0  0.37473  0.00949  0.15016  1.0000
  H   H3        1.0  0.34297  0.21140  0.20327  1.0000
  S   S1        1.0  0.02537  0.15142  0.99455  1.0000
  C   C5        1.0  0.27845  0.17460  0.30184  1.0000
  C   C6        1.0  0.42760  0.26752  0.43181  1.0000
  Fe  Fe2       1.0  0.42771  0.07597  0.25082  1.0000
  S   S2        1.0  0.40045  0.12201  0.25241  1.0000
  Fe  Fe3       1.0  0.41334  0.05448  0.33017  1.0000
  S   S3        1.0  0.38229  0.09918  0.33416  1.0000
  Fe  Fe4       1.0  0.34223  0.09853  0.26104  1.0000
  S   S4        1.0  0.27122  0.12222  0.22236  1.0000
  Fe  Fe5       1.0  0.44223  0.11885  0.32469  1.0000
  S   S5        1.0  0.36793  0.05219  0.25689  1.0000
  S   S6        1.0  0.06415  0.08643  0.08016  1.0000
  H   H4        1.0  0.38170  0.28531  0.02870  1.0000
  P   P1        1.0  0.38799  0.18221  0.44526  1.0000
  C   C7        1.0  0.21488  0.11107  0.18161  1.0000
  C   C8        1.0  0.18250  0.13348  0.15760  1.0000
  C   C9        1.0  0.13698  0.12614  0.12553  1.0000
  C   C10       1.0  0.12255  0.09628  0.11802  1.0000
  C   C11       1.0  0.15503  0.07374  0.14160  1.0000
  C   C12       1.0  0.20113  0.08106  0.17302  1.0000
  H   H5        1.0  0.19250  0.15678  0.16393  1.0000
  H   H6        1.0  0.11264  0.14364  0.10716  1.0000
  H   H7        1.0  0.14440  0.05050  0.13587  1.0000
  H   H8        1.0  0.22558  0.06354  0.19122  1.0000
  C   C13       1.0  0.47454  0.09766  0.10131  1.0000
  C   C14       1.0  0.26339  0.18083  0.33339  1.0000
  H   H9        1.0  0.23921  0.32068  0.25618  1.0000
  H   H10       1.0  0.22612  0.02405  0.05597  1.0000
  H   H11       1.0  0.32362  0.32196  0.30894  1.0000
  C   C15       1.0  0.30018  0.03486  0.07748  1.0000
  C   C16       1.0  0.47590  0.11662  0.17950  1.0000
  H   H12       1.0  0.37875  0.13163  0.01941  1.0000
  H   H13       1.0  0.33385  0.22296  0.47201  1.0000
  H   H14       1.0  0.35164  0.05571  0.03145  1.0000
  H   H15       1.0  0.34427  0.18592  0.08287  1.0000
  S   S7        1.0  0.02994  0.23160  0.03078  1.0000
  H   H16       1.0  0.41898  0.18125  0.22539  1.0000
  H   H17       1.0  0.23762  0.15187  0.11536  1.0000
  H   H18       1.0  0.39654  0.17036  0.36600  1.0000
  C   C17       1.0  0.13620  0.09028  0.01050  1.0000
  H   H19       1.0  0.45336  0.26729  0.22993  1.0000
  C   C18       1.0  0.28922  0.16715  0.09512  1.0000
  H   H20       1.0  0.10424  0.05448  0.02989  1.0000
  C   C19       1.0  0.33568  0.05557  0.10132  1.0000
  H   H21       1.0  0.44143  0.19148  0.11268  1.0000
  C   C20       1.0  0.45181  0.18963  0.22737  1.0000
  C   C21       1.0  0.25456  0.03943  0.07384  1.0000
  H   H22       1.0  0.27284  0.17979  0.18468  1.0000
  C   C22       1.0  0.38340  0.26056  0.17696  1.0000
  H   H23       1.0  0.07232  0.28953  0.04344  1.0000
  H   H24       1.0  0.19043  0.29035  0.28901  1.0000
  C   C23       1.0  0.40837  0.23871  0.42245  1.0000
  H   H25       1.0  0.08344  0.29648  0.15649  1.0000
  C   C24       1.0  0.30805  0.30138  0.29188  1.0000
  S   S8        1.0  0.41848  0.01615  0.37781  1.0000
  H   H26       1.0  0.33813  0.16576  0.28938  1.0000
  H   H27       1.0  0.06573  0.03594  0.14119  1.0000
  C   C25       1.0  0.31662  0.24951  0.27630  1.0000
  H   H28       1.0  0.43857  0.07874  0.43592  1.0000
  C   C26       1.0  0.40572  0.23366  0.10885  1.0000
  C   C27       1.0  0.45223  0.21125  0.19804  1.0000
  C   C28       1.0  0.23987  0.27363  0.24079  1.0000
  C   C29       1.0  0.26879  0.24846  0.24677  1.0000
  P   P2        1.0  0.17849  0.27295  0.20185  1.0000
  C   C30       1.0  0.14154  0.29272  0.22067  1.0000
  C   C31       1.0  0.17583  0.29033  0.15367  1.0000
  H   H29       1.0  0.27499  0.10111  0.13772  1.0000
  H   H30       1.0  0.25136  0.09716  0.01677  1.0000
  C   C32       1.0  0.32835  0.19912  0.17298  1.0000
  C   C33       1.0  0.18206  0.28709  0.08609  1.0000
  C   C34       1.0  0.18294  0.27330  0.12287  1.0000
  Fe  Fe6       1.0  0.98988  0.18727  0.01563  1.0000
  H   H31       1.0  0.38898  0.23206  0.38889  1.0000
  C   C35       1.0  0.09573  0.30089  0.19069  1.0000
  C   C36       1.0  0.34466  0.17939  0.38923  1.0000
  H   H32       1.0  0.27373  0.15488  0.06487  1.0000
  C   C37       1.0  0.15367  0.23577  0.19170  1.0000
  C   C38       1.0  0.16666  0.21511  0.22583  1.0000
  C   C39       1.0  0.14472  0.18708  0.21872  1.0000
  C   C40       1.0  0.10879  0.17986  0.17787  1.0000
  C   C41       1.0  0.09507  0.20054  0.14402  1.0000
  C   C42       1.0  0.11713  0.22844  0.15093  1.0000
  H   H33       1.0  0.33881  0.22999  0.28139  1.0000
  C   C43       1.0  0.41686  0.12388  0.44064  1.0000
  H   H34       1.0  0.42289  0.28270  0.40570  1.0000
  C   C44       1.0  0.27035  0.10422  0.99902  1.0000
  H   H35       1.0  0.25463  0.22807  0.22861  1.0000
  C   C45       1.0  0.12119  0.06080  0.00984  1.0000
  C   C46       1.0  0.39457  0.26486  0.04719  1.0000
  H   H36       1.0  0.25294  0.17180  0.26823  1.0000
  H   H37       1.0  0.18635  0.27374  0.06185  1.0000
  H   H38       1.0  0.18878  0.24936  0.12705  1.0000
  H   H39       1.0  0.30995  0.26048  0.12921  1.0000
  C   C47       1.0  0.33031  0.00979  0.01215  1.0000
  S   S9        1.0  0.46809  0.29439  0.34942  1.0000
  C   C48       1.0  0.41722  0.24337  0.03358  1.0000
  H   H40       1.0  0.19316  0.22084  0.25803  1.0000
  H   H41       1.0  0.15519  0.17093  0.24484  1.0000
  C   C49       1.0  0.33684  0.27153  0.15737  1.0000
  H   H42       1.0  0.06708  0.19507  0.11232  1.0000
  H   H43       1.0  0.10486  0.24441  0.12452  1.0000
  C   C50       1.0  0.31644  0.11498  0.02258  1.0000
  C   C51       1.0  0.32931  0.18483  0.10554  1.0000
  C   C52       1.0  0.07990  0.31953  0.24874  1.0000
  C   C53       1.0  0.34291  0.12350  0.00114  1.0000
  C   C54       1.0  0.32650  0.17116  0.31374  1.0000
  C   C55       1.0  0.44934  0.20508  0.32736  1.0000
  C   C56       1.0  0.32650  0.07951  0.12258  1.0000
  C   C57       1.0  0.15598  0.29753  0.26507  1.0000
  C   C58       1.0  0.41470  0.21892  0.45628  1.0000
  H   H44       1.0  0.09166  0.15817  0.17232  1.0000
  C   C59       1.0  0.03695  0.31793  0.07037  1.0000
  H   H45       1.0  0.21062  0.06638  0.09312  1.0000
  C   C60       1.0  0.28842  0.18138  0.16246  1.0000
  H   H46       1.0  0.35481  0.09452  0.14258  1.0000
  H   H47       1.0  0.37967  0.11848  0.42345  1.0000
  H   H48       1.0  0.37122  0.27702  0.09461  1.0000
  H   H49       1.0  0.37122  0.05235  0.10539  1.0000
  C   C61       1.0  0.28151  0.08331  0.11973  1.0000
  C   C62       1.0  0.44605  0.23637  0.32261  1.0000
  S   S10       1.0  0.44571  0.06187  0.19602  1.0000
  C   C63       1.0  0.33606  0.27586  0.29912  1.0000
  C   C64       1.0  0.24540  0.06354  0.09489  1.0000
  H   H50       1.0  0.42782  0.19074  0.30056  1.0000
  C   C65       1.0  0.45381  0.27660  0.47477  1.0000
  C   C66       1.0  0.03810  0.01914  0.12971  1.0000
  C   C67       1.0  0.99106  0.02784  0.11520  1.0000
  H   H51       1.0  0.33205  0.11644  0.05759  1.0000
  C   C68       1.0  0.29634  0.18336  0.37694  1.0000
  C   C69       1.0  0.38872  0.26005  0.08465  1.0000
  C   C70       1.0  0.12532  0.31121  0.27897  1.0000
  P   P3        1.0  0.39777  0.22653  0.15682  1.0000
  C   C71       1.0  0.32441  0.29655  0.17449  1.0000
  C   C72       1.0  0.26023  0.30044  0.26233  1.0000
  H   H52       1.0  0.22610  0.18311  0.32423  1.0000
  C   C73       1.0  0.34837  0.03794  0.00915  1.0000
  C   C74       1.0  0.45761  0.00522  0.43267  1.0000
  H   H53       1.0  0.28377  0.18786  0.40078  1.0000
  H   H54       1.0  0.13645  0.31503  0.31317  1.0000
  H   H55       1.0  0.13051  0.10668  0.03093  1.0000
  C   C75       1.0  0.45010  0.10129  0.44765  1.0000
  C   C76       1.0  0.40484  0.30042  0.23042  1.0000
  H   H56       1.0  0.37304  0.27671  0.32196  1.0000
  C   C77       1.0  0.34897  0.20116  0.14447  1.0000
  C   C78       1.0  0.35948  0.17360  0.35722  1.0000
  C   C79       1.0  0.43154  0.15321  0.45519  1.0000
  C   C80       1.0  0.41737  0.27531  0.21359  1.0000
  H   H57       1.0  0.42191  0.24704  0.00460  1.0000
  C   C81       1.0  0.42822  0.21212  0.09479  1.0000
  H   H58       1.0  0.98333  0.05142  0.11539  1.0000
  P   P4        1.0  0.31385  0.00150  0.05502  1.0000
  C   C82       1.0  0.47343  0.25523  0.35745  1.0000
  C   C83       1.0  0.46073  0.08759  0.16473  1.0000
  H   H59       1.0  0.43110  0.31142  0.25909  1.0000
  C   C84       1.0  0.43403  0.21704  0.05742  1.0000
  H   H60       1.0  0.44969  0.05555  0.11415  1.0000
  C   C85       1.0  0.06510  0.31427  0.20469  1.0000
  C   C86       1.0  0.46011  0.07822  0.12544  1.0000
  H   H61       1.0  0.47708  0.12401  0.20982  1.0000
  C   C87       1.0  0.35842  0.31095  0.21106  1.0000
  H   H62       1.0  0.28834  0.30469  0.15966  1.0000
  C   C88       1.0  0.98502  0.26645  0.06805  1.0000
  S   S11       1.0  0.47487  0.07427  0.32302  1.0000
  C   C89       1.0  0.35974  0.17733  0.48032  1.0000
  H   H63       1.0  0.46928  0.29876  0.48196  1.0000
  H   H64       1.0  0.45187  0.20045  0.04706  1.0000
  C   C90       1.0  0.47170  0.00031  0.04680  1.0000
  H   H65       1.0  0.46204  0.04106  0.01015  1.0000
  H   H66       1.0  0.02975  0.32051  0.18132  1.0000
  C   C91       1.0  0.16966  0.32142  0.14806  1.0000
  C   C92       1.0  0.17518  0.31802  0.08039  1.0000
  H   H67       1.0  0.47429  0.09012  0.07142  1.0000
  C   C93       1.0  0.33563  0.20153  0.48741  1.0000
  Fe  Fe7       1.0  0.03935  0.07274  0.71672  1.0000
  S   S12       1.0  0.07077  0.11757  0.71705  1.0000
  H   H68       1.0  0.15248  0.03129  0.93573  1.0000
  Fe  Fe8       1.0  0.04137  0.05327  0.63074  1.0000
  S   S13       1.0  0.07425  0.09746  0.62633  1.0000
  S   S14       1.0  0.02679  0.01032  0.58835  1.0000
  Fe  Fe9       1.0  0.12108  0.09308  0.69870  1.0000
  S   S15       1.0  0.19773  0.10961  0.72906  1.0000
  Fe  Fe10      1.0  0.02184  0.11877  0.64569  1.0000
  C   C94       1.0  0.32347  0.12096  0.95614  1.0000
  S   S16       1.0  0.09241  0.04768  0.70206  1.0000
  H   H69       1.0  0.37990  0.13079  0.49635  1.0000
  C   C95       1.0  0.18998  0.14045  0.63111  1.0000
  C   C96       1.0  0.33908  0.14659  0.52752  1.0000
  H   H70       1.0  0.37662  0.06530  0.97479  1.0000
  C   C97       1.0  0.16861  0.14248  0.58598  1.0000
  S   S17       1.0  0.98631  0.07502  0.64648  1.0000
  H   H71       1.0  0.01426  0.99964  0.81331  1.0000
  H   H72       1.0  0.28466  0.14200  0.76837  1.0000
  C   C98       1.0  0.31501  0.17073  0.53421  1.0000
  H   H73       1.0  0.35104  0.04710  0.73347  1.0000
  H   H74       1.0  0.20023  0.11878  0.64671  1.0000
  C   C99       1.0  0.34303  0.99267  0.95113  1.0000
  H   H75       1.0  0.16227  0.12238  0.56656  1.0000
  S   S18       1.0  0.38987  0.08726  0.90124  1.0000
  C   C100      1.0  0.01026  0.23807  0.55055  1.0000
  C   C101      1.0  0.45945  0.30656  0.85900  1.0000
  C   C102      1.0  0.07378  0.25702  0.68610  1.0000
  H   H76       1.0  0.03863  0.05496  0.86185  1.0000
  H   H77       1.0  0.29468  0.21693  0.51938  1.0000
  C   C103      1.0  0.24926  0.10390  0.77892  1.0000
  C   C104      1.0  0.25388  0.08003  0.80691  1.0000
  C   C105      1.0  0.29712  0.07521  0.84412  1.0000
  C   C106      1.0  0.33565  0.09469  0.85464  1.0000
  C   C107      1.0  0.33047  0.11907  0.82743  1.0000
  C   C108      1.0  0.28779  0.12339  0.78960  1.0000
  H   H78       1.0  0.22458  0.06492  0.79940  1.0000
  H   H79       1.0  0.30070  0.05632  0.86491  1.0000
  H   H80       1.0  0.35967  0.13430  0.83503  1.0000
  C   C109      1.0  0.36142  0.14982  0.50075  1.0000
  C   C110      1.0  0.41835  0.01773  0.83378  1.0000
  Fe  Fe11      1.0  0.45007  0.12109  0.93192  1.0000
  S   S19       1.0  0.43746  0.15849  0.96849  1.0000
  H   H81       1.0  0.00462  0.08560  0.90139  1.0000
  H   H82       1.0  0.46789  0.04310  0.88837  1.0000
  H   H83       1.0  0.26392  0.31994  0.65442  1.0000
  H   H84       1.0  0.39733  0.31191  0.92503  1.0000
  C   C111      1.0  0.43830  0.28299  0.87102  1.0000
  S   S20       1.0  0.02358  0.26675  0.52215  1.0000
  C   C112      1.0  0.99053  0.19032  0.59406  1.0000
  C   C113      1.0  0.37639  0.04593  0.76735  1.0000
  H   H85       1.0  0.04458  0.16627  0.58539  1.0000
  H   H86       1.0  0.06103  0.20784  0.54636  1.0000
  H   H87       1.0  0.14933  0.21722  0.57447  1.0000
  C   C114      1.0  0.31333  0.19820  0.51419  1.0000
  C   C115      1.0  0.01636  0.07392  0.84593  1.0000
  H   H88       1.0  0.45082  0.09107  0.84843  1.0000
  H   H89       1.0  0.21198  0.16394  0.69118  1.0000
  H   H90       1.0  0.44634  0.21335  0.52599  1.0000
  H   H91       1.0  0.27830  0.23653  0.82905  1.0000
  H   H92       1.0  0.42638  0.99703  0.85194  1.0000
  C   C116      1.0  0.19073  0.26103  0.64278  1.0000
  H   H93       1.0  0.29035  0.03621  0.76148  1.0000
  H   H94       1.0  0.39279  0.09300  0.77098  1.0000
  C   C117      1.0  0.19672  0.16620  0.65627  1.0000
  C   C118      1.0  0.18251  0.19437  0.63654  1.0000
  C   C119      1.0  0.16144  0.19618  0.59106  1.0000
  P   P5        1.0  0.18708  0.22694  0.66959  1.0000
  C   C120      1.0  0.23915  0.22333  0.72093  1.0000
  C   C121      1.0  0.46049  0.25703  0.50857  1.0000
  C   C122      1.0  0.15107  0.27112  0.60585  1.0000
  C   C123      1.0  0.28127  0.21214  0.72232  1.0000
  C   C124      1.0  0.32178  0.20959  0.76193  1.0000
  C   C125      1.0  0.32064  0.21836  0.80034  1.0000
  C   C126      1.0  0.27897  0.22970  0.79918  1.0000
  C   C127      1.0  0.23834  0.23226  0.75965  1.0000
  C   C128      1.0  0.13536  0.22842  0.67898  1.0000
  C   C129      1.0  0.11621  0.20198  0.68654  1.0000
  C   C130      1.0  0.07605  0.20314  0.69355  1.0000
  C   C131      1.0  0.05450  0.23055  0.69280  1.0000
  C   C132      1.0  0.98135  0.02259  0.49839  1.0000
  S   S21       1.0  0.02777  0.05694  0.77422  1.0000
  H   H95       1.0  0.11820  0.25874  0.59331  1.0000
  H   H96       1.0  0.13709  0.17190  0.53092  1.0000
  H   H97       1.0  0.28279  0.20540  0.69281  1.0000
  H   H98       1.0  0.35422  0.20086  0.76301  1.0000
  H   H99       1.0  0.35213  0.21643  0.83102  1.0000
  H   H100      1.0  0.34045  0.12528  0.54310  1.0000
  H   H101      1.0  0.20651  0.24126  0.75946  1.0000
  H   H102      1.0  0.13168  0.18037  0.68654  1.0000
  H   H103      1.0  0.06056  0.18264  0.69805  1.0000
  C   C133      1.0  0.13549  0.14856  0.82082  1.0000
  C   C134      1.0  0.09420  0.15855  0.82178  1.0000
  C   C135      1.0  0.08207  0.14782  0.85349  1.0000
  C   C136      1.0  0.11129  0.12725  0.88442  1.0000
  C   C137      1.0  0.15359  0.11748  0.88443  1.0000
  C   C138      1.0  0.16468  0.12789  0.85156  1.0000
  P   P6        1.0  0.18999  0.08884  0.92201  1.0000
  C   C139      1.0  0.18955  0.05763  0.88853  1.0000
  C   C140      1.0  0.24999  0.10228  0.95347  1.0000
  C   C141      1.0  0.02539  0.18713  0.57998  1.0000
  C   C142      1.0  0.19077  0.99711  0.70047  1.0000
  C   C143      1.0  0.21983  0.02086  0.72354  1.0000
  C   C144      1.0  0.00077  0.00106  0.53130  1.0000
  C   C145      1.0  0.27760  0.11012  0.93252  1.0000
  C   C146      1.0  0.22994  0.04008  0.89898  1.0000
  C   C147      1.0  0.22872  0.01626  0.87206  1.0000
  Fe  Fe12      1.0  0.99195  0.31341  0.50238  1.0000
  C   C148      1.0  0.14676  0.02679  0.82476  1.0000
  C   C149      1.0  0.14791  0.05061  0.85150  1.0000
  C   C150      1.0  0.16411  0.07753  0.95722  1.0000
  C   C151      1.0  0.14877  0.04794  0.95675  1.0000
  C   C152      1.0  0.15448  0.17035  0.56597  1.0000
  C   C153      1.0  0.23180  0.27867  0.65982  1.0000
  H   H104      1.0  0.39003  0.29408  0.62179  1.0000
  H   H105      1.0  0.14421  0.15609  0.79536  1.0000
  H   H106      1.0  0.07096  0.17397  0.79726  1.0000
  H   H107      1.0  0.04926  0.15483  0.85345  1.0000
  H   H108      1.0  0.09937  0.11847  0.90699  1.0000
  H   H109      1.0  0.19463  0.11927  0.84809  1.0000
  C   C154      1.0  0.19409  0.31487  0.60207  1.0000
  H   H110      1.0  0.29766  0.16813  0.55491  1.0000
  C   C155      1.0  0.11436  0.25604  0.67973  1.0000
  H   H111      1.0  0.20427  0.04212  0.72548  1.0000
  H   H112      1.0  0.26448  0.10740  0.89799  1.0000
  H   H113      1.0  0.26236  0.04494  0.92750  1.0000
  C   C156      1.0  0.46565  0.25920  0.89656  1.0000
  H   H114      1.0  0.26001  0.00307  0.87954  1.0000
  H   H115      1.0  0.11446  0.02187  0.79593  1.0000
  H   H116      1.0  0.11636  0.06379  0.84313  1.0000
  C   C157      1.0  0.18723  0.00970  0.83489  1.0000
  H   H117      1.0  0.12886  0.27689  0.67501  1.0000
  C   C158      1.0  0.23324  0.30559  0.63967  1.0000
  H   H118      1.0  0.26229  0.27234  0.68932  1.0000
  H   H119      1.0  0.12185  0.30521  0.55705  1.0000
  H   H120      1.0  0.05692  0.27828  0.68524  1.0000
  C   C159      1.0  0.43319  0.07080  0.83187  1.0000
  H   H121      1.0  0.34417  0.12701  0.93939  1.0000
  C   C160      1.0  0.00649  0.08079  0.80285  1.0000
  C   C161      1.0  0.38432  0.01883  0.79023  1.0000
  S   S22       1.0  0.43792  0.23073  0.91237  1.0000
  C   C162      1.0  0.40031  0.07190  0.78829  1.0000
  C   C163      1.0  0.37453  0.31434  0.60370  1.0000
  H   H122      1.0  0.40061  0.28317  0.86044  1.0000
  H   H123      1.0  0.99415  0.00634  0.69376  1.0000
  H   H124      1.0  0.02240  0.23114  0.69667  1.0000
  H   H125      1.0  0.37230  0.02523  0.92362  1.0000
  C   C164      1.0  0.03487  0.21081  0.55808  1.0000
  C   C165      1.0  0.15295  0.29768  0.58530  1.0000
  C   C166      1.0  0.99719  0.09129  0.86847  1.0000
  C   C167      1.0  0.44257  0.04370  0.85447  1.0000
  C   C168      1.0  0.26893  0.01748  0.74349  1.0000
  C   C169      1.0  0.36051  0.02084  0.94817  1.0000
  H   H126      1.0  0.11571  0.01683  0.98261  1.0000
  H   H127      1.0  0.32605  0.32003  0.63114  1.0000
  C   C170      1.0  0.15780  0.09861  0.98452  1.0000
  C   C171      1.0  0.44092  0.22830  0.49943  1.0000
  H   H128      1.0  0.16870  0.12166  0.98499  1.0000
  H   H129      1.0  0.15275  1.00000  0.68433  1.0000
  H   H130      1.0  0.23031  0.99983  0.97089  1.0000
  H   H131      1.0  0.41986  0.31509  0.57210  1.0000
  C   C172      1.0  0.36290  0.04347  0.97704  1.0000
  Fe  Fe13      1.0  0.47616  0.18740  0.94175  1.0000
  H   H132      1.0  0.98181  0.04591  0.50699  1.0000
  C   C173      1.0  0.12762  0.03963  0.98313  1.0000
  H   H133      1.0  0.43816  0.32476  0.83932  1.0000
  Fe  Fe14      1.0  0.06708  0.43730  0.20152  1.0000
  S   S23       1.0  0.09308  0.39120  0.19851  1.0000
  H   H134      1.0  0.02455  0.53821  0.22284  1.0000
  Fe  Fe15      1.0  0.06554  0.45611  0.11318  1.0000
  S   S24       1.0  0.09220  0.41050  0.10557  1.0000
  S   S25       1.0  0.04808  0.49762  0.06763  1.0000
  Fe  Fe16      1.0  0.04087  0.39189  0.12816  1.0000
  H   H135      1.0  0.34881  0.33017  0.22459  1.0000
  S   S26       1.0  0.11986  0.46026  0.18394  1.0000
  C   C174      1.0  0.08346  0.43451  0.46066  1.0000
  C   C175      1.0  0.01114  0.41699  0.34548  1.0000
  S   S27       1.0  0.46575  0.63004  0.34070  1.0000
  Fe  Fe17      1.0  0.11852  0.62066  0.45487  1.0000
  C   C176      1.0  0.04093  0.42645  0.29190  1.0000
  S   S28       1.0  0.01126  0.43706  0.13208  1.0000
  H   H136      1.0  0.17436  0.32873  0.05187  1.0000
  C   C177      1.0  0.35017  0.40197  0.47169  1.0000
  H   H137      1.0  0.24890  0.43865  0.45654  1.0000
  H   H138      1.0  0.01387  0.54497  0.46727  1.0000
  C   C178      1.0  0.04813  0.39566  0.29040  1.0000
  H   H139      1.0  0.30055  0.51378  0.28547  1.0000
  H   H140      1.0  0.06194  0.38711  0.26905  1.0000
  Fe  Fe18      1.0  0.14291  0.41359  0.17731  1.0000
  S   S29       1.0  0.21718  0.39315  0.20537  1.0000
  S   S30       1.0  0.41202  0.43031  0.36650  1.0000
  H   H141      1.0  0.44985  0.61968  0.25283  1.0000
  H   H142      1.0  0.13201  0.47411  0.43039  1.0000
  C   C179      1.0  0.07404  0.50326  0.42277  1.0000
  C   C180      1.0  0.01890  0.38625  0.34431  1.0000
  H   H143      1.0  0.05507  0.43900  0.42904  1.0000
  S   S31       1.0  0.18400  0.60002  0.45198  1.0000
  C   C181      1.0  0.23992  0.61679  0.46390  1.0000
  C   C182      1.0  0.26997  0.60281  0.44912  1.0000
  C   C183      1.0  0.31466  0.61491  0.45809  1.0000
  H   H144      1.0  0.25859  0.58251  0.43049  1.0000
  H   H145      1.0  0.33727  0.60380  0.44665  1.0000
  H   H146      1.0  0.04749  0.64895  0.21248  1.0000
  S   S32       1.0  0.05837  0.63361  0.39086  1.0000
  H   H147      1.0  0.35813  0.59575  0.26372  1.0000
  P   P7        1.0  0.46061  0.50684  0.29448  1.0000
  H   H148      1.0  0.12457  0.48370  0.35706  1.0000
  C   C184      1.0  0.16935  0.33518  0.11154  1.0000
  C   C185      1.0  0.27008  0.40380  0.25137  1.0000
  C   C186      1.0  0.27551  0.43167  0.27157  1.0000
  C   C187      1.0  0.31882  0.43935  0.30700  1.0000
  C   C188      1.0  0.35719  0.41929  0.32292  1.0000
  C   C189      1.0  0.35149  0.39126  0.30305  1.0000
  C   C190      1.0  0.30840  0.38375  0.26729  1.0000
  H   H149      1.0  0.24655  0.44746  0.25950  1.0000
  H   H150      1.0  0.32243  0.46098  0.32195  1.0000
  H   H151      1.0  0.38067  0.37561  0.31455  1.0000
  H   H152      1.0  0.30471  0.36232  0.25157  1.0000
  S   S33       1.0  0.00604  0.35969  0.37613  1.0000
  C   C191      1.0  0.39528  0.51430  0.39277  1.0000
  C   C192      1.0  0.10531  0.48955  0.40932  1.0000
  H   H153      1.0  0.29207  0.56813  0.26771  1.0000
  S   S34       1.0  0.05289  0.45224  0.25844  1.0000
  C   C193      1.0  0.25555  0.64315  0.48815  1.0000
  C   C194      1.0  0.03676  0.52905  0.35333  1.0000
  C   C195      1.0  0.02268  0.43698  0.31992  1.0000
  H   H154      1.0  0.38124  0.40125  0.42737  1.0000
  S   S35       1.0  0.98746  0.35412  0.10104  1.0000
  H   H155      1.0  0.04314  0.35204  0.31527  1.0000
  Fe  Fe19      1.0  0.44963  0.65121  0.47936  1.0000
  S   S36       1.0  0.06930  0.59619  0.47569  1.0000
  C   C196      1.0  0.40392  0.42500  0.24314  1.0000
  C   C197      1.0  0.18562  0.41340  0.42048  1.0000
  H   H156      1.0  0.06426  0.51870  0.30785  1.0000
  C   C198      1.0  0.40671  0.52590  0.28532  1.0000
  C   C199      1.0  0.36097  0.57188  0.27015  1.0000
  C   C200      1.0  0.02563  0.50702  0.01087  1.0000
  H   H157      1.0  0.05722  0.33762  0.07125  1.0000
  H   H158      1.0  0.00996  0.54431  0.33166  1.0000
  H   H159      1.0  0.05585  0.32981  0.25929  1.0000
  Fe  Fe20      1.0  0.98660  0.35975  0.43296  1.0000
  C   C201      1.0  0.10050  0.40533  0.47139  1.0000
  Fe  Fe21      1.0  0.00911  0.61333  0.41432  1.0000
  C   C202      1.0  0.23061  0.41787  0.45461  1.0000
  Fe  Fe22      1.0  0.46845  0.39507  0.40346  1.0000
  C   C203      1.0  0.03732  0.37579  0.31652  1.0000
  H   H160      1.0  0.99521  0.42525  0.36528  1.0000
  H   H161      1.0  0.37886  0.47007  0.23622  1.0000
  C   C204      1.0  0.40920  0.45566  0.25231  1.0000
  H   H162      1.0  0.43866  0.38211  0.25500  1.0000
  H   H163      1.0  0.01557  0.46059  0.32065  1.0000
  C   C205      1.0  0.44283  0.40590  0.26181  1.0000
  C   C206      1.0  0.32873  0.52581  0.28264  1.0000
  H   H164      1.0  0.01562  0.53436  0.40354  1.0000
  C   C207      1.0  0.45362  0.52939  0.21651  1.0000
  C   C208      1.0  0.18285  0.36420  0.44858  1.0000
  C   C209      1.0  0.03999  0.52324  0.39442  1.0000
  C   C210      1.0  0.39962  0.44134  0.46598  1.0000
  H   H165      1.0  0.16469  0.35925  0.10763  1.0000
  C   C211      1.0  0.37740  0.41364  0.45264  1.0000
  C   C212      1.0  0.37040  0.51080  0.28993  1.0000
  C   C213      1.0  0.10174  0.49519  0.36805  1.0000
  C   C214      1.0  0.45315  0.46729  0.28179  1.0000
  C   C215      1.0  0.16180  0.38654  0.41743  1.0000
  C   C216      1.0  0.32399  0.55636  0.27271  1.0000
  H   H166      1.0  0.16542  0.33518  0.17198  1.0000
  C   C217      1.0  0.40404  0.54467  0.38989  1.0000
  C   C218      1.0  0.36924  0.56583  0.38413  1.0000
  C   C219      1.0  0.32555  0.55664  0.38093  1.0000
  C   C220      1.0  0.31604  0.52608  0.38306  1.0000
  C   C221      1.0  0.35166  0.50505  0.38961  1.0000
  P   P8        1.0  0.26118  0.51496  0.38357  1.0000
  C   C222      1.0  0.26998  0.51467  0.43905  1.0000
  C   C223      1.0  0.21527  0.54139  0.35182  1.0000
  C   C224      1.0  0.18388  0.55267  0.36693  1.0000
  C   C225      1.0  0.14822  0.57270  0.34169  1.0000
  C   C226      1.0  0.14307  0.58132  0.30087  1.0000
  C   C227      1.0  0.17382  0.57003  0.28536  1.0000
  C   C228      1.0  0.20985  0.55019  0.31074  1.0000
  C   C229      1.0  0.23681  0.50055  0.44944  1.0000
  H   H167      1.0  0.42086  0.45014  0.45120  1.0000
  H   H168      1.0  0.12682  0.38311  0.39110  1.0000
  H   H169      1.0  0.43758  0.55184  0.39165  1.0000
  C   C230      1.0  0.30862  0.52944  0.47182  1.0000
  C   C231      1.0  0.24225  0.47782  0.36126  1.0000
  C   C232      1.0  0.26814  0.45258  0.38361  1.0000
  C   C233      1.0  0.25404  0.42382  0.36663  1.0000
  C   C234      1.0  0.21287  0.41989  0.32813  1.0000
  C   C235      1.0  0.18576  0.44470  0.30663  1.0000
  C   C236      1.0  0.20039  0.47355  0.32280  1.0000
  H   H170      1.0  0.15140  0.64700  0.38574  1.0000
  H   H171      1.0  0.37454  0.48754  0.29973  1.0000
  H   H172      1.0  0.37624  0.58943  0.38215  1.0000
  H   H173      1.0  0.29952  0.57352  0.37741  1.0000
  H   H174      1.0  0.34624  0.48146  0.39210  1.0000
  H   H175      1.0  0.18700  0.54664  0.39846  1.0000
  H   H176      1.0  0.12485  0.58164  0.35420  1.0000
  H   H177      1.0  0.11528  0.59676  0.28135  1.0000
  H   H178      1.0  0.16963  0.57650  0.25353  1.0000
  H   H179      1.0  0.23309  0.54137  0.29810  1.0000
  H   H180      1.0  0.20669  0.48928  0.42454  1.0000
  H   H181      1.0  0.33312  0.38046  0.46087  1.0000
  C   C237      1.0  0.02121  0.53743  0.99840  1.0000
  S   S37       1.0  0.44358  0.35231  0.42005  1.0000
  H   H182      1.0  0.33450  0.54093  0.46483  1.0000
  H   H183      1.0  0.29922  0.45510  0.41421  1.0000
  H   H184      1.0  0.27500  0.40451  0.38317  1.0000
  H   H185      1.0  0.20202  0.39766  0.31467  1.0000
  H   H186      1.0  0.15346  0.44152  0.27707  1.0000
  H   H187      1.0  0.17843  0.49215  0.30505  1.0000
  C   C238      1.0  0.06748  0.51491  0.34008  1.0000
  H   H188      1.0  0.08508  0.38744  0.44804  1.0000
  H   H189      1.0  0.16921  0.43057  0.39606  1.0000
  H   H190      1.0  0.42198  0.49777  0.39661  1.0000
  H   H191      1.0  0.16398  0.34349  0.44625  1.0000
  H   H192      1.0  0.36951  0.41603  0.22168  1.0000
  C   C239      1.0  0.40211  0.55670  0.27631  1.0000
  H   H193      1.0  0.03178  0.55454  0.02315  1.0000
  C   C240      1.0  0.99293  0.54281  0.22655  1.0000
  H   H194      1.0  0.00810  0.58978  0.23991  1.0000
  H   H195      1.0  0.15386  0.53503  0.47830  1.0000
  H   H196      1.0  0.45411  0.64000  0.12777  1.0000
  H   H197      1.0  0.43054  0.56912  0.27458  1.0000
  P   P9        1.0  0.07835  0.49514  0.47602  1.0000
  C   C241      1.0  0.22790  0.36861  0.48275  1.0000
  C   C242      1.0  0.33040  0.64112  0.48258  1.0000
  C   C243      1.0  0.25224  0.39551  0.48590  1.0000
  C   C244      1.0  0.02166  0.49701  0.47707  1.0000
  C   C245      1.0  0.99860  0.52465  0.47234  1.0000
  H   H198      1.0  0.41578  0.52724  0.20435  1.0000
  C   C246      1.0  0.98368  0.57177  0.23613  1.0000
  H   H199      1.0  0.20549  0.63528  0.35355  1.0000
  S   S38       1.0  0.99954  0.65592  0.44418  1.0000
  H   H200      1.0  0.44825  0.54576  0.15560  1.0000
  C   C247      1.0  0.47186  0.53970  0.18873  1.0000
  H   H201      1.0  0.97957  0.39014  0.02858  1.0000
  C   C248      1.0  0.00190  0.47141  0.48612  1.0000
  C   C249      1.0  0.20658  0.65715  0.36753  1.0000
  C   C250      1.0  0.36231  0.35089  0.88736  1.0000
  S   S39       1.0  0.05991  0.41271  0.57581  1.0000
  H   H202      1.0  0.46904  0.44331  0.60174  1.0000
  H   H203      1.0  0.26330  0.44082  0.86220  1.0000
  C   C251      1.0  0.36338  0.38219  0.88343  1.0000
  H   H204      1.0  0.41085  0.47929  0.50801  1.0000
  C   C252      1.0  0.32185  0.44099  0.84560  1.0000
  C   C253      1.0  0.25108  0.37235  0.85273  1.0000
  H   H205      1.0  0.30593  0.43741  0.75615  1.0000
  H   H206      1.0  0.24345  0.35088  0.50622  1.0000
  C   C254      1.0  0.00896  0.59842  0.58313  1.0000
  C   C255      1.0  0.39124  0.32611  0.57567  1.0000
  C   C256      1.0  0.03187  0.62596  0.59769  1.0000
  C   C257      1.0  0.03207  0.63880  0.63510  1.0000
  H   H207      1.0  0.40224  0.42255  0.91431  1.0000
  C   C258      1.0  0.11692  0.52160  0.51547  1.0000
  C   C259      1.0  0.26699  0.44285  0.56206  1.0000
  C   C260      1.0  0.15218  0.42205  0.63667  1.0000
  C   C261      1.0  0.11614  0.40087  0.61589  1.0000
  C   C262      1.0  0.12541  0.37076  0.62775  1.0000
  H   H208      1.0  0.14507  0.44548  0.62835  1.0000
  H   H209      1.0  0.09785  0.35425  0.61274  1.0000
  C   C263      1.0  0.24157  0.50172  0.49170  1.0000
  C   C264      1.0  0.37244  0.35273  0.55327  1.0000
  C   C265      1.0  0.39406  0.45764  0.49797  1.0000
  S   S40       1.0  0.06134  0.64518  0.57113  1.0000
  Fe  Fe23      1.0  0.38043  0.39368  0.76545  1.0000
  S   S41       1.0  0.41075  0.44046  0.75994  1.0000
  S   S42       1.0  0.26264  0.36972  0.71895  1.0000
  C   C266      1.0  0.35631  0.45903  0.84220  1.0000
  C   C267      1.0  0.28973  0.45417  0.85843  1.0000
  S   S43       1.0  0.43970  0.37174  0.75058  1.0000
  S   S44       1.0  0.43558  0.39453  0.83905  1.0000
  C   C268      1.0  0.43430  0.35247  0.95467  1.0000
  H   H210      1.0  0.38770  0.36169  0.53332  1.0000
  H   H211      1.0  0.01093  0.63462  0.68663  1.0000
  C   C269      1.0  0.29168  0.48489  0.86699  1.0000
  H   H212      1.0  0.46389  0.39632  0.97610  1.0000
  H   H213      1.0  0.13199  0.36497  0.79417  1.0000
  H   H214      1.0  0.20572  0.57100  0.53286  1.0000
  C   C270      1.0  0.32592  0.50266  0.86322  1.0000
  H   H215      1.0  0.38530  0.50343  0.84867  1.0000
  P   P10       1.0  0.31057  0.40204  0.52942  1.0000
  H   H216      1.0  0.38232  0.44943  0.83362  1.0000
  H   H217      1.0  0.23505  0.47526  0.58736  1.0000
  C   C271      1.0  0.20695  0.38281  0.67908  1.0000
  C   C272      1.0  0.19775  0.41301  0.66721  1.0000
  C   C273      1.0  0.17002  0.36203  0.66012  1.0000
  H   H218      1.0  0.22517  0.42952  0.68232  1.0000
  Fe  Fe24      1.0  0.06142  0.63955  0.50486  1.0000
  H   H219      1.0  0.23462  0.43888  0.53308  1.0000
  C   C274      1.0  0.32222  0.40750  0.71201  1.0000
  H   H220      1.0  0.22956  0.41200  0.76149  1.0000
  C   C275      1.0  0.33585  0.36755  0.55799  1.0000
  C   C276      1.0  0.01161  0.48539  0.97802  1.0000
  H   H221      1.0  0.29153  0.36678  0.59100  1.0000
  H   H222      1.0  0.27880  0.36654  0.88426  1.0000
  H   H223      1.0  0.34245  0.54270  0.53893  1.0000
  C   C277      1.0  0.34576  0.41765  0.50499  1.0000
  C   C278      1.0  0.33120  0.39271  0.78925  1.0000
  H   H224      1.0  0.23321  0.65426  0.49998  1.0000
  C   C279      1.0  0.16781  0.37182  0.80241  1.0000
  C   C280      1.0  0.43520  0.38363  0.95160  1.0000
  C   C281      1.0  0.31331  0.53054  0.51407  1.0000
  H   H225      1.0  0.46232  0.34093  0.98150  1.0000
  H   H226      1.0  0.35914  0.33074  0.73756  1.0000
  S   S45       1.0  0.00204  0.59740  0.79935  1.0000
  C   C282      1.0  0.34689  0.36152  0.78331  1.0000
  C   C283      1.0  0.30862  0.42774  0.56900  1.0000
  C   C284      1.0  0.34994  0.43322  0.60714  1.0000
  C   C285      1.0  0.35017  0.45433  0.63713  1.0000
  C   C286      1.0  0.30876  0.46950  0.62994  1.0000
  H   H227      1.0  0.31144  0.42349  0.68591  1.0000
  Fe  Fe25      1.0  0.01140  0.37922  0.52598  1.0000
  H   H228      1.0  0.38262  0.45880  0.66609  1.0000
  H   H229      1.0  0.30898  0.48563  0.65353  1.0000
  C   C287      1.0  0.01003  0.62444  0.65779  1.0000
  H   H230      1.0  0.36378  0.45899  0.54222  1.0000
  H   H231      1.0  0.26684  0.49489  0.87689  1.0000
  H   H232      1.0  0.32785  0.52640  0.87032  1.0000
  C   C288      1.0  0.00365  0.54608  0.95427  1.0000
  C   C289      1.0  0.22318  0.39799  0.78391  1.0000
  C   C290      1.0  0.17701  0.38914  0.77334  1.0000
  H   H233      1.0  0.35415  0.34436  0.80735  1.0000
  H   H234      1.0  0.14851  0.39570  0.74244  1.0000
  C   C291      1.0  0.13662  0.39908  0.51249  1.0000
  C   C292      1.0  0.31925  0.41561  0.75347  1.0000
  P   P11       1.0  0.32002  0.40109  0.83559  1.0000
  C   C293      1.0  0.13791  0.45125  0.53243  1.0000
  C   C294      1.0  0.15552  0.42204  0.54285  1.0000
  C   C295      1.0  0.39986  0.39848  0.91630  1.0000
  Fe  Fe26      1.0  0.46520  0.41721  0.74538  1.0000
  C   C296      1.0  0.35819  0.48973  0.85086  1.0000
  H   H235      1.0  0.28286  0.51842  0.55651  1.0000
  C   C297      1.0  0.18020  0.55823  0.53896  1.0000
  C   C298      1.0  0.17545  0.56331  0.57680  1.0000
  C   C299      1.0  0.14188  0.54739  0.58433  1.0000
  C   C300      1.0  0.11295  0.52644  0.55398  1.0000
  C   C301      1.0  0.27967  0.51686  0.52396  1.0000
  H   H236      1.0  0.19750  0.35079  0.86522  1.0000
  C   C302      1.0  0.34961  0.35332  0.74197  1.0000
  S   S46       1.0  0.38721  0.65705  0.49635  1.0000
  H   H237      1.0  0.38230  0.42153  0.61327  1.0000
  C   C303      1.0  0.26087  0.38867  0.82282  1.0000
  H   H238      1.0  0.21518  0.49144  0.49925  1.0000
  C   C304      1.0  0.33738  0.37646  0.70615  1.0000
  H   H239      1.0  0.15143  0.46837  0.55709  1.0000
  H   H240      1.0  0.18294  0.41694  0.57494  1.0000
  H   H241      1.0  0.17603  0.33887  0.67028  1.0000
  C   C305      1.0  0.98971  0.52443  0.92140  1.0000
  C   C306      1.0  0.31924  0.35555  0.58630  1.0000
  H   H242      1.0  0.33851  0.37057  0.67628  1.0000
  H   H243      1.0  0.19719  0.57999  0.59994  1.0000
  H   H244      1.0  0.13770  0.55166  0.61339  1.0000
  H   H245      1.0  0.08714  0.51428  0.56044  1.0000
  C   C307      1.0  0.26708  0.46353  0.59264  1.0000
  C   C308      1.0  0.15079  0.53765  0.50815  1.0000
  H   H246      1.0  0.01473  0.46195  0.98666  1.0000
  H   H247      1.0  0.19480  0.33611  0.58723  1.0000
  C   C309      1.0  0.36728  0.44589  0.51745  1.0000
  C   C310      1.0  0.20477  0.36370  0.84230  1.0000
  H   H248      1.0  0.00859  0.58809  0.55462  1.0000
  C   C311      1.0  0.98782  0.59672  0.64373  1.0000
  Fe  Fe27      1.0  0.46446  0.43869  0.83052  1.0000
  H   H249      1.0  0.14907  0.37631  0.52112  1.0000
  S   S47       1.0  0.04345  0.34628  0.49816  1.0000
  H   H250      1.0  0.01956  0.44996  0.49208  1.0000
  C   C312      1.0  0.30057  0.65499  0.49772  1.0000
  S   S48       1.0  0.47403  0.43221  0.68587  1.0000
  C   C313      1.0  0.33853  0.32905  0.60900  1.0000
  C   C314      1.0  0.98731  0.58391  0.60612  1.0000
  H   H251      1.0  0.42879  0.61720  0.57130  1.0000
  C   C315      1.0  0.10208  0.45774  0.49093  1.0000
  C   C316      1.0  0.99383  0.49403  0.93388  1.0000
  H   H252      1.0  0.33443  0.33777  0.86280  1.0000
  H   H253      1.0  0.00092  0.56954  0.94572  1.0000
  C   C317      1.0  0.39767  0.33613  0.92277  1.0000
  H   H254      1.0  0.98344  0.47697  0.90910  1.0000
  H   H255      1.0  0.99894  0.38357  0.96710  1.0000
  C   C318      1.0  0.46617  0.61513  0.59283  1.0000
  H   H256      1.0  0.47688  0.41023  0.54694  1.0000
  C   C319      1.0  0.47640  0.41973  0.60848  1.0000
  H   H257      1.0  0.46620  0.56726  0.58816  1.0000
  H   H258      1.0  0.47369  0.53209  0.72706  1.0000
  C   C320      1.0  0.25572  0.95630  0.05986  1.0000
  H   H259      1.0  0.03500  0.77357  0.34524  1.0000
  H   H260      1.0  0.36475  0.76660  0.03395  1.0000
  C   C321      1.0  0.01468  0.74775  0.38699  1.0000
  C   C322      1.0  0.36328  0.98074  0.09531  1.0000
  S   S49       1.0  0.45110  0.68171  0.42781  1.0000
  C   C323      1.0  0.38688  0.99046  0.13861  1.0000
  S   S50       1.0  0.05303  0.71797  0.39111  1.0000
  C   C324      1.0  0.46759  0.82753  0.38508  1.0000
  S   S51       1.0  0.15542  0.86510  0.00056  1.0000
  H   H261      1.0  0.41140  0.97009  0.43346  1.0000
  H   H262      1.0  0.25492  0.85256  0.04255  1.0000
  H   H263      1.0  0.43247  0.92013  0.10297  1.0000
  H   H264      1.0  0.20863  0.92317  0.06461  1.0000
  C   C325      1.0  0.01246  0.77263  0.36124  1.0000
  C   C326      1.0  0.29749  0.78915  0.00744  1.0000
  C   C327      1.0  0.39900  0.91428  0.31982  1.0000
  H   H265      1.0  0.40956  0.95758  0.29772  1.0000
  C   C328      1.0  0.02872  0.88481  0.18434  1.0000
  C   C329      1.0  0.01971  0.88370  0.14037  1.0000
  C   C330      1.0  0.44434  0.78564  0.43262  1.0000
  H   H266      1.0  0.01841  0.72639  0.30082  1.0000
  H   H267      1.0  0.31002  0.71885  0.47350  1.0000
  H   H268      1.0  0.06436  0.88169  0.20947  1.0000
  H   H269      1.0  0.04834  0.87995  0.13194  1.0000
  H   H270      1.0  0.32200  0.86594  0.02686  1.0000
  H   H271      1.0  0.40639  0.68513  0.12347  1.0000
  H   H272      1.0  0.31100  0.80854  0.02822  1.0000
  H   H273      1.0  0.98782  0.72796  0.42840  1.0000
  Fe  Fe28      1.0  0.05375  0.67499  0.42592  1.0000
  S   S52       1.0  0.44527  0.86696  0.05247  1.0000
  C   C331      1.0  0.42290  0.94125  0.32373  1.0000
  C   C332      1.0  0.26243  0.97772  0.03336  1.0000
  H   H274      1.0  0.06334  0.72799  0.99660  1.0000
  C   C333      1.0  0.45000  0.77644  0.39653  1.0000
  C   C334      1.0  0.28662  0.87313  0.00512  1.0000
  P   P12       1.0  0.47319  0.87556  0.43908  1.0000
  C   C335      1.0  0.17628  0.66368  0.38590  1.0000
  C   C336      1.0  0.24837  0.86558  0.01396  1.0000
  C   C337      1.0  0.46194  0.83698  0.42138  1.0000
  C   C338      1.0  0.21241  0.71268  0.40780  1.0000
  H   H275      1.0  0.36715  0.90958  0.29050  1.0000
  H   H276      1.0  0.09480  0.70056  0.32980  1.0000
  S   S53       1.0  0.00520  0.89114  0.25189  1.0000
  C   C339      1.0  0.99209  0.89006  0.19606  1.0000
  S   S54       1.0  0.04768  0.83804  0.01607  1.0000
  H   H277      1.0  0.47673  0.72847  0.10044  1.0000
  C   C340      1.0  0.12813  0.81992  0.38370  1.0000
  C   C341      1.0  0.10687  0.81405  0.33924  1.0000
  C   C342      1.0  0.11943  0.78841  0.32354  1.0000
  C   C343      1.0  0.15328  0.76863  0.35228  1.0000
  H   H278      1.0  0.44647  0.75295  0.38772  1.0000
  C   C344      1.0  0.28513  0.79352  0.45772  1.0000
  C   C345      1.0  0.07604  0.67271  0.27327  1.0000
  H   H279      1.0  0.11780  0.83961  0.39583  1.0000
  H   H280      1.0  0.08039  0.82932  0.31703  1.0000
  H   H281      1.0  0.10261  0.78380  0.28907  1.0000
  H   H282      1.0  0.16208  0.74881  0.33938  1.0000
  H   H283      1.0  0.25636  0.80935  0.44470  1.0000
  H   H284      1.0  0.47772  0.84333  0.36693  1.0000
  C   C346      1.0  0.17488  0.77436  0.39709  1.0000
  H   H285      1.0  0.46630  0.79012  0.34495  1.0000
  H   H286      1.0  0.44772  0.82204  0.47422  1.0000
  C   C347      1.0  0.02408  0.70913  0.28162  1.0000
  C   C348      1.0  0.46324  0.94774  0.36192  1.0000
  H   H287      1.0  0.26274  0.67352  0.35423  1.0000
  Fe  Fe29      1.0  0.46508  0.82763  0.02350  1.0000
  C   C349      1.0  0.16206  0.80026  0.41251  1.0000
  P   P13       1.0  0.21685  0.74806  0.43479  1.0000
  C   C350      1.0  0.23895  0.67861  0.36816  1.0000
  H   H288      1.0  0.28284  0.95218  0.09247  1.0000
  H   H289      1.0  0.97901  0.93896  0.46569  1.0000
  C   C351      1.0  0.04938  0.98903  0.12858  1.0000
  H   H290      1.0  0.15598  0.69558  0.42091  1.0000
  C   C352      1.0  0.45005  0.82339  0.17160  1.0000
  C   C353      1.0  0.45596  0.90022  0.39283  1.0000
  S   S55       1.0  0.46243  0.78440  0.05644  1.0000
  Fe  Fe30      1.0  0.99792  0.87565  0.01057  1.0000
  C   C354      1.0  0.44330  0.68428  0.14672  1.0000
  C   C355      1.0  0.41527  0.89389  0.35428  1.0000
  C   C356      1.0  0.99696  0.68001  0.21565  1.0000
  C   C357      1.0  0.47123  0.78286  0.22369  1.0000
  H   H291      1.0  0.44629  0.98415  0.20097  1.0000
  C   C358      1.0  0.01355  0.96759  0.11256  1.0000
  C   C359      1.0  0.37947  0.95474  0.08310  1.0000
  C   C360      1.0  0.21349  0.94020  0.04453  1.0000
  C   C361      1.0  0.15681  0.74628  0.47457  1.0000
  H   H292      1.0  0.36124  0.94585  0.05060  1.0000
  H   H293      1.0  0.98679  0.82693  0.23382  1.0000
  C   C362      1.0  0.17750  0.94568  0.00300  1.0000
  H   H294      1.0  0.43671  0.76919  0.45173  1.0000
  C   C363      1.0  0.44419  0.95054  0.15520  1.0000
  C   C364      1.0  0.24144  0.70645  0.38767  1.0000
  C   C365      1.0  0.47013  0.65888  0.14905  1.0000
  H   H295      1.0  0.44301  0.72841  0.17091  1.0000
  C   C366      1.0  0.06768  0.69462  0.29793  1.0000
  C   C367      1.0  0.17932  0.69123  0.40624  1.0000
  C   C368      1.0  0.45056  0.81573  0.44523  1.0000
  C   C369      1.0  0.22617  0.98301  0.99154  1.0000
  H   H296      1.0  0.26657  0.72286  0.38762  1.0000
  H   H297      1.0  0.42817  0.84257  0.15564  1.0000
  C   C370      1.0  0.44348  0.80794  0.20374  1.0000
  C   C371      1.0  0.44019  0.88573  0.46846  1.0000
  C   C372      1.0  0.44476  0.98123  0.45191  1.0000
  H   H298      1.0  0.38526  0.91010  0.41529  1.0000
  H   H299      1.0  0.39527  0.87364  0.35132  1.0000
  H   H300      1.0  0.17767  0.80498  0.44694  1.0000
  H   H301      1.0  0.41640  0.81519  0.21272  1.0000
  C   C373      1.0  0.37298  0.91019  0.47137  1.0000
  H   H302      1.0  0.12939  0.75480  0.44452  1.0000
  C   C374      1.0  0.98607  0.74692  0.40823  1.0000
  C   C375      1.0  0.39832  0.90250  0.44841  1.0000
  C   C376      1.0  0.20280  0.74146  0.47952  1.0000
  C   C377      1.0  0.33143  0.80447  0.47647  1.0000
  C   C378      1.0  0.41976  0.93981  0.11289  1.0000
  H   H303      1.0  0.34112  0.92349  0.45588  1.0000
  H   H304      1.0  0.02225  0.94429  0.11095  1.0000
  C   C379      1.0  0.42750  0.97570  0.16813  1.0000
  C   C380      1.0  0.98816  0.70157  0.24082  1.0000
  C   C381      1.0  0.04074  0.66549  0.23202  1.0000
  C   C382      1.0  0.27658  0.76255  0.45648  1.0000
  C   C383      1.0  0.46427  0.70880  0.17379  1.0000
  C   C384      1.0  0.32776  0.76546  0.01080  1.0000
  H   H305      1.0  0.46476  0.77074  0.24769  1.0000
  H   H306      1.0  0.43678  0.99171  0.02638  1.0000
  H   H307      1.0  0.08408  0.78120  0.99487  1.0000
  H   H308      1.0  0.08585  0.98235  0.13969  1.0000
  C   C385      1.0  0.46145  0.79739  0.37265  1.0000
  H   H309      1.0  0.98100  0.82898  0.15978  1.0000
  H   H310      1.0  0.33785  0.82839  0.47781  1.0000
  H   H311      1.0  0.47602  0.93934  0.17797  1.0000
  C   C386      1.0  0.97942  0.96226  0.47438  1.0000
  H   H312      1.0  0.11005  0.66167  0.28600  1.0000
  C   C387      1.0  0.31531  0.74283  0.47387  1.0000
  H   H313      1.0  0.14507  0.93285  0.99125  1.0000
  C   C388      1.0  0.98073  0.79617  0.35561  1.0000
  H   H314      1.0  0.97861  0.81502  0.33509  1.0000
  S   S56       1.0  0.11559  0.66286  0.48899  1.0000
  H   H315      1.0  0.31318  0.96539  0.98356  1.0000
  C   C389      1.0  0.04533  0.93348  0.86796  1.0000
  H   H316      1.0  0.07838  0.79005  0.86727  1.0000
  C   C390      1.0  0.35242  0.97647  0.64371  1.0000
  C   C391      1.0  0.18746  0.71907  0.81183  1.0000
  C   C392      1.0  0.26275  0.73896  0.95401  1.0000
  H   H317      1.0  0.09252  0.68921  0.96289  1.0000
  H   H318      1.0  0.27488  0.94505  0.71493  1.0000
  C   C393      1.0  0.22480  0.72185  0.55187  1.0000
  H   H319      1.0  0.15905  0.89914  0.92819  1.0000
  H   H320      1.0  0.41715  0.88439  0.81611  1.0000
  S   S57       1.0  0.32679  0.90193  0.95730  1.0000
  C   C394      1.0  0.02423  0.91375  0.83297  1.0000
  C   C395      1.0  0.36562  0.93010  0.86150  1.0000
  C   C396      1.0  0.00306  0.74003  0.85360  1.0000
  C   C397      1.0  0.99011  0.70983  0.85218  1.0000
  C   C398      1.0  0.13872  0.75115  0.93821  1.0000
  C   C399      1.0  0.00652  0.92760  0.69096  1.0000
  C   C400      1.0  0.21077  0.96975  0.69789  1.0000
  H   H321      1.0  0.01422  0.95379  0.54345  1.0000
  H   H322      1.0  0.09892  0.91416  0.66835  1.0000
  C   C401      1.0  0.39966  0.90400  0.82073  1.0000
  H   H323      1.0  0.31250  0.67498  0.51729  1.0000
  C   C402      1.0  0.35511  0.95454  0.83325  1.0000
  H   H324      1.0  0.47678  0.76986  0.58163  1.0000
  S   S58       1.0  0.02166  0.84928  0.91239  1.0000
  P   P14       1.0  0.35269  0.98570  0.76243  1.0000
  C   C403      1.0  0.19435  0.89176  0.94973  1.0000
  C   C404      1.0  0.23283  0.89999  0.94150  1.0000
  H   H325      1.0  0.22652  0.91368  0.91358  1.0000
  C   C405      1.0  0.33757  0.98028  0.67601  1.0000
  H   H326      1.0  0.44278  0.87713  0.56777  1.0000
  C   C406      1.0  0.01698  0.97563  0.81885  1.0000
  H   H327      1.0  0.04962  0.66002  0.64678  1.0000
  C   C407      1.0  0.15195  0.79868  0.88494  1.0000
  C   C408      1.0  0.14587  0.70242  0.79165  1.0000
  H   H328      1.0  0.14158  0.70355  0.92708  1.0000
  C   C409      1.0  0.18398  0.81930  0.88224  1.0000
  C   C410      1.0  0.16827  0.84736  0.86323  1.0000
  C   C411      1.0  0.12053  0.85491  0.84650  1.0000
  C   C412      1.0  0.08823  0.83404  0.84767  1.0000
  C   C413      1.0  0.10382  0.80598  0.86661  1.0000
  H   H329      1.0  0.33753  0.97392  0.83828  1.0000
  H   H330      1.0  0.39864  0.92688  0.76594  1.0000
  H   H331      1.0  0.18648  0.99151  0.81379  1.0000
  H   H332      1.0  0.47044  0.96960  0.70718  1.0000
  H   H333      1.0  0.41186  0.96950  0.63002  1.0000
  C   C414      1.0  0.37057  0.97973  0.72000  1.0000
  C   C415      1.0  0.18399  0.96685  0.97633  1.0000
  Fe  Fe31      1.0  0.99303  0.82278  0.95094  1.0000
  H   H334      1.0  0.22112  0.81392  0.89501  1.0000
  H   H335      1.0  0.19341  0.86341  0.86223  1.0000
  H   H336      1.0  0.10875  0.87694  0.83281  1.0000
  H   H337      1.0  0.27182  0.72391  0.52271  1.0000
  H   H338      1.0  0.01863  0.74773  0.83319  1.0000
  C   C416      1.0  0.20187  0.87469  0.98637  1.0000
  H   H339      1.0  0.13963  0.68849  0.76385  1.0000
  C   C417      1.0  0.04160  0.96441  0.86091  1.0000
  C   C418      1.0  0.11977  0.72192  0.84285  1.0000
  C   C419      1.0  0.08175  0.88788  0.71190  1.0000
  H   H340      1.0  0.18816  0.95137  0.67996  1.0000
  H   H341      1.0  0.16971  0.72123  0.57242  1.0000
  C   C420      1.0  0.36955  0.78468  0.49409  1.0000
  C   C421      1.0  0.05072  0.88419  0.73039  1.0000
  H   H342      1.0  0.24975  0.71907  0.93428  1.0000
  H   H343      1.0  0.05114  0.83949  0.83434  1.0000
  S   S59       1.0  0.46329  0.90910  0.98385  1.0000
  C   C422      1.0  0.47443  0.97153  0.49478  1.0000
  H   H344      1.0  0.30047  0.98397  0.66626  1.0000
  C   C423      1.0  0.43333  0.97251  0.69855  1.0000
  C   C424      1.0  0.25984  0.96630  0.71763  1.0000
  C   C425      1.0  0.16226  0.73778  0.86445  1.0000
  H   H345      1.0  0.22736  0.75021  0.86244  1.0000
  H   H346      1.0  0.44496  0.97621  0.76460  1.0000
  H   H347      1.0  0.11114  0.87261  0.72020  1.0000
  H   H348      1.0  0.05704  0.86625  0.75341  1.0000
  S   S60       1.0  0.41862  0.84165  0.95470  1.0000
  H   H349      1.0  0.25091  0.71189  0.58157  1.0000
  C   C426      1.0  0.24996  0.78796  0.97709  1.0000
  P   P15       1.0  0.17154  0.76236  0.90920  1.0000
  H   H350      1.0  0.39662  0.88604  0.87732  1.0000
  H   H351      1.0  0.13201  0.79630  0.95826  1.0000
  H   H352      1.0  0.09244  0.72321  0.85344  1.0000
  C   C427      1.0  0.43044  0.88431  0.53446  1.0000
  H   H353      1.0  0.03273  0.94974  0.65037  1.0000
  C   C428      1.0  0.41869  0.97623  0.73097  1.0000
  C   C429      1.0  0.38896  0.90101  0.51435  1.0000
  C   C430      1.0  0.07502  0.91132  0.68282  1.0000
  C   C431      1.0  0.23657  0.72883  0.51834  1.0000
  C   C432      1.0  0.23256  0.76322  0.94929  1.0000
  C   C433      1.0  0.12360  0.77282  0.95884  1.0000
  H   H354      1.0  0.05758  0.97971  0.88799  1.0000
  H   H355      1.0  0.34140  0.97490  0.92909  1.0000
  C   C434      1.0  0.17914  0.72716  0.54680  1.0000
  Fe  Fe32      1.0  0.07462  0.86692  0.97750  1.0000
  S   S61       1.0  0.02864  0.90610  0.97716  1.0000
  C   C435      1.0  0.38935  0.92837  0.79247  1.0000
  C   C436      1.0  0.38812  0.90492  0.85534  1.0000
  C   C437      1.0  0.19541  0.73696  0.84777  1.0000
  C   C438      1.0  0.27924  0.89051  0.96886  1.0000
  H   H356      1.0  0.10931  0.74272  0.50354  1.0000
  H   H357      1.0  0.07933  0.69140  0.79116  1.0000
  H   H358      1.0  0.06425  0.92472  0.90059  1.0000
  C   C439      1.0  0.40026  0.97248  0.65498  1.0000
  S   S62       1.0  0.00192  0.68480  0.81870  1.0000
  H   H359      1.0  0.35624  0.93047  0.88815  1.0000
  C   C440      1.0  0.12898  0.72081  0.94137  1.0000
  C   C441      1.0  0.36733  0.95399  0.79876  1.0000
  C   C442      1.0  0.99850  0.92484  0.79070  1.0000
  H   H360      1.0  0.22690  0.80647  0.97509  1.0000
  C   C443      1.0  0.36149  0.75385  0.49248  1.0000
  H   H361      1.0  0.39104  0.73841  0.50608  1.0000
  H   H362      1.0  0.32684  0.97679  0.60986  1.0000
  C   C444      1.0  0.32729  0.98730  0.98245  1.0000
  H   H363      1.0  0.21344  0.71819  0.79946  1.0000
  Fe  Fe33      1.0  0.40224  0.88249  0.98415  1.0000
  C   C445      1.0  0.10173  0.71250  0.96224  1.0000
  C   C446      1.0  0.01215  0.90362  0.71925  1.0000
  H   H364      1.0  0.00586  0.78355  0.88206  1.0000
  C   C447      1.0  0.14517  0.73935  0.50813  1.0000
  C   C448      1.0  0.11194  0.70401  0.80703  1.0000
  H   H365      1.0  0.40532  0.79324  0.50932  1.0000
  C   C449      1.0  0.99946  0.97082  0.51871  1.0000
  H   H366      1.0  0.15642  0.97060  0.94383  1.0000
  H   H367      1.0  0.36944  0.90700  0.53222  1.0000
  C   C450      1.0  0.08546  0.73429  0.98138  1.0000
  H   H368      1.0  0.02798  0.88999  0.83923  1.0000
  H   H369      1.0  0.46349  0.95325  0.50878  1.0000
  C   C451      1.0  0.03758  0.93130  0.67256  1.0000
  C   C452      1.0  0.99538  0.95594  0.78392  1.0000
  C   C453      1.0  0.09686  0.76436  0.98011  1.0000
  C   C454      1.0  0.99566  0.76038  0.88107  1.0000
  C   C455      1.0  0.45625  0.87693  0.51184  1.0000
  H   H370      1.0  0.98064  0.84125  0.70873  1.0000
  C   C456      1.0  0.28937  0.99036  0.73971  1.0000
  H   H371      1.0  0.33383  0.72181  0.98737  1.0000
  C   C457      1.0  0.31031  0.74026  0.98438  1.0000
  H   H372      1.0  0.47643  0.66268  0.60229  1.0000
  C   C458      1.0  0.97565  0.29393  0.08278  1.0000
  C   C459      1.0  0.86204  0.22563  0.03698  1.0000
  H   H373      1.0  0.66336  0.00966  0.29013  1.0000
  C   C460      1.0  0.63143  0.12709  0.11651  1.0000
  S   S63       1.0  0.84350  0.14529  0.02143  1.0000
  H   H374      1.0  0.77579  0.07444  0.08091  1.0000
  C   C461      1.0  0.73446  0.06861  0.01221  1.0000
  S   S64       1.0  0.93698  0.32444  0.43513  1.0000
  H   H375      1.0  0.52485  0.25685  0.42443  1.0000
  H   H376      1.0  0.62783  0.14837  0.12992  1.0000
  H   H377      1.0  0.79048  0.30112  0.36481  1.0000
  H   H378      1.0  0.74707  0.31640  0.99792  1.0000
  H   H379      1.0  0.68945  0.99580  0.04168  1.0000
  P   P16       1.0  0.89385  0.01807  0.07753  1.0000
  C   C462      1.0  0.48001  0.15970  0.47602  1.0000
  H   H380      1.0  0.74672  0.02763  0.09936  1.0000
  H   H381      1.0  0.59181  0.27458  0.41195  1.0000
  C   C463      1.0  0.57867  0.06025  0.23125  1.0000
  Fe  Fe34      1.0  0.50821  0.14737  0.02225  1.0000
  H   H382      1.0  0.92065  0.21598  0.14628  1.0000
  C   C464      1.0  0.62867  0.07274  0.11666  1.0000
  H   H383      1.0  0.55876  0.07217  0.16516  1.0000
  C   C465      1.0  0.89881  0.22661  0.11551  1.0000
  C   C466      1.0  0.60801  0.04270  0.26654  1.0000
  H   H384      1.0  0.50555  0.15753  0.16909  1.0000
  C   C467      1.0  0.64521  0.02239  0.22425  1.0000
  H   H385      1.0  0.49709  0.23845  0.17969  1.0000
  C   C468      1.0  0.73409  0.03407  0.06578  1.0000
  C   C469      1.0  0.62988  0.27261  0.42946  1.0000
  C   C470      1.0  0.63934  0.12652  0.07980  1.0000
  H   H386      1.0  0.88627  0.26621  0.14442  1.0000
  C   C471      1.0  0.53085  0.03910  0.06451  1.0000
  C   C472      1.0  0.62643  0.10035  0.13514  1.0000
  S   S65       1.0  0.51602  0.15029  0.09133  1.0000
  C   C473      1.0  0.84299  0.25424  0.03555  1.0000
  H   H387      1.0  0.90468  0.19000  0.07775  1.0000
  H   H388      1.0  0.64855  0.09880  0.03306  1.0000
  H   H389      1.0  0.92539  0.00032  0.01232  1.0000
  H   H390      1.0  0.62012  0.10164  0.16337  1.0000
  C   C474      1.0  0.65126  0.24439  0.43866  1.0000
  C   C475      1.0  0.64273  0.09916  0.06177  1.0000
  C   C476      1.0  0.85105  0.27333  0.40112  1.0000
  H   H391      1.0  0.64210  0.14735  0.06499  1.0000
  H   H392      1.0  0.57150  0.21849  0.23683  1.0000
  C   C477      1.0  0.88912  0.04996  0.10786  1.0000
  H   H393      1.0  0.52389  0.09053  0.47313  1.0000
  H   H394      1.0  0.51203  0.03741  0.44316  1.0000
  C   C478      1.0  0.85146  0.26860  0.07466  1.0000
  H   H395      1.0  0.94839  0.29513  0.09349  1.0000
  C   C479      1.0  0.49168  0.12624  0.11720  1.0000
  H   H396      1.0  0.90830  0.08275  0.07193  1.0000
  C   C480      1.0  0.88994  0.21200  0.07685  1.0000
  C   C481      1.0  0.89804  0.07901  0.09763  1.0000
  H   H397      1.0  0.60445  0.04352  0.29636  1.0000
  C   C482      1.0  0.70050  0.24193  0.46096  1.0000
  C   C483      1.0  0.53806  0.21048  0.23423  1.0000
  H   H398      1.0  0.86510  0.27541  0.37778  1.0000
  H   H399      1.0  0.55223  0.07446  0.23372  1.0000
  C   C484      1.0  0.50417  0.24256  0.39718  1.0000
  C   C485      1.0  0.87618  0.25739  0.43952  1.0000
  P   P17       1.0  0.61874  0.03765  0.13743  1.0000
  H   H400      1.0  0.90985  0.24721  0.44612  1.0000
  H   H401      1.0  0.49368  0.16221  0.28296  1.0000
  C   C486      1.0  0.79111  0.28547  0.42412  1.0000
  C   C487      1.0  0.80887  0.28765  0.39367  1.0000
  C   C488      1.0  0.88074  0.09975  0.15385  1.0000
  C   C489      1.0  0.78025  0.14452  0.99812  1.0000
  H   H402      1.0  0.56998  0.18051  0.28879  1.0000
  H   H403      1.0  0.83695  0.29051  0.07477  1.0000
  C   C490      1.0  0.50861  0.21123  0.40148  1.0000
  C   C491      1.0  0.56220  0.02246  0.10043  1.0000
  H   H404      1.0  0.88492  0.31621  0.00083  1.0000
  C   C492      1.0  0.81548  0.26883  0.46226  1.0000
  H   H405      1.0  0.74780  0.08871  0.00435  1.0000
  C   C493      1.0  0.50111  0.01920  0.45727  1.0000
  C   C494      1.0  0.53726  0.18906  0.26343  1.0000
  H   H406      1.0  0.79473  0.20495  0.46976  1.0000
  H   H407      1.0  0.90014  0.12607  0.11193  1.0000
  C   C495      1.0  0.65764  0.29838  0.44259  1.0000
  C   C496      1.0  0.89672  0.01618  0.99761  1.0000
  C   C497      1.0  0.63724  0.07236  0.08000  1.0000
  C   C498      1.0  0.87662  0.04614  0.14189  1.0000
  C   C499      1.0  0.70144  0.01611  0.03279  1.0000
  H   H408      1.0  0.75892  0.29726  0.41801  1.0000
  H   H409      1.0  0.53321  0.20152  0.43200  1.0000
  C   C500      1.0  0.83871  0.04969  0.00164  1.0000
  C   C501      1.0  0.85856  0.25519  0.47002  1.0000
  C   C502      1.0  0.49418  0.17869  0.26003  1.0000
  C   C503      1.0  0.87943  0.25486  0.11442  1.0000
  H   H410      1.0  0.63868  0.05136  0.06494  1.0000
  H   H411      1.0  0.96520  0.24664  0.06759  1.0000
  H   H412      1.0  0.90596  0.26675  0.99614  1.0000
  C   C504      1.0  0.89364  0.10374  0.12041  1.0000
  H   H413      1.0  0.77976  0.15648  0.05849  1.0000
  H   H414      1.0  0.85545  0.21378  0.00737  1.0000
  C   C505      1.0  0.51315  0.13708  0.48273  1.0000
  C   C506      1.0  0.58264  0.05901  0.19250  1.0000
  C   C507      1.0  0.49575  0.22164  0.20175  1.0000
  Fe  Fe35      1.0  0.90765  0.14568  0.00589  1.0000
  H   H415      1.0  0.69303  0.15151  0.03101  1.0000
  H   H416      1.0  0.54034  0.06102  0.05761  1.0000
  H   H417      1.0  0.94653  0.03104  0.42927  1.0000
  C   C508      1.0  0.75053  0.06038  0.05549  1.0000
  C   C509      1.0  0.61670  0.04064  0.18891  1.0000
  C   C510      1.0  0.87500  0.02863  0.02156  1.0000
  C   C511      1.0  0.75825  0.15020  0.02506  1.0000
  H   H418      1.0  0.71969  0.04155  0.19241  1.0000
  C   C512      1.0  0.70881  0.14727  0.00955  1.0000
  H   H419      1.0  0.87030  0.02416  0.15124  1.0000
  H   H420      1.0  0.62953  0.22444  0.42836  1.0000
  C   C513      1.0  0.71330  0.02170  0.17247  1.0000
  H   H421      1.0  0.86314  0.06785  0.19111  1.0000
  H   H422      1.0  0.79867  0.99694  0.01829  1.0000
  H   H423      1.0  0.87749  0.11900  0.17149  1.0000
  H   H424      1.0  0.82231  0.06010  0.01974  1.0000
  C   C514      1.0  0.48152  0.19242  0.36649  1.0000
  C   C515      1.0  0.66713  0.01392  0.14265  1.0000
  C   C516      1.0  0.87245  0.07096  0.16471  1.0000
  C   C517      1.0  0.81415  0.31244  0.99541  1.0000
  C   C518      1.0  0.96125  0.01402  0.45407  1.0000
  H   H425      1.0  0.76240  0.21880  0.99703  1.0000
  C   C519      1.0  0.95485  0.00636  0.09994  1.0000
  C   C520      1.0  0.49822  0.10790  0.46863  1.0000
  S   S66       1.0  0.54686  0.17995  0.99890  1.0000
  S   S67       1.0  0.48993  0.15332  0.37264  1.0000
  H   H426      1.0  0.78672  0.00889  0.20189  1.0000
  C   C521      1.0  0.48590  0.02797  0.03769  1.0000
  H   H427      1.0  0.66997  0.00664  0.22202  1.0000
  C   C522      1.0  0.75134  0.00345  0.17768  1.0000
  H   H428      1.0  0.71619  0.21987  0.46757  1.0000
  C   C523      1.0  0.70678  0.29599  0.46452  1.0000
  H   H429      1.0  0.64108  0.32029  0.43569  1.0000
  C   C524      1.0  0.49201  0.13560  0.15627  1.0000
  H   H430      1.0  0.72776  0.31622  0.47379  1.0000
  C   C525      1.0  0.64117  0.02370  0.26300  1.0000
  C   C526      1.0  0.72868  0.26778  0.47431  1.0000
  H   H431      1.0  0.49251  0.18222  0.48618  1.0000
  S   S68       1.0  0.97837  0.15721  0.06236  1.0000
  C   C527      1.0  0.54766  0.99473  0.10938  1.0000
  C   C528      1.0  0.68493  0.02441  0.98907  1.0000
  C   C529      1.0  0.87988  0.08823  0.67842  1.0000
  C   C530      1.0  0.65378  0.24118  0.92257  1.0000
  C   C531      1.0  0.85143  0.17566  0.57104  1.0000
  H   H432      1.0  0.84120  0.16035  0.66358  1.0000
  C   C532      1.0  0.81208  0.22982  0.52891  1.0000
  C   C533      1.0  0.75159  0.13649  0.95491  1.0000
  S   S69       1.0  0.97633  0.16067  0.62051  1.0000
  S   S70       1.0  0.61818  0.13088  0.94644  1.0000
  H   H433      1.0  0.90178  0.06806  0.84958  1.0000
  C   C534      1.0  0.68883  0.22357  0.95406  1.0000
  S   S71       1.0  0.91803  0.17827  0.96090  1.0000
  C   C535      1.0  0.82969  0.17708  0.52584  1.0000
  C   C536      1.0  0.81556  0.29528  0.54075  1.0000
  H   H434      1.0  0.87887  0.24298  0.49973  1.0000
  C   C537      1.0  0.97760  0.10532  0.78268  1.0000
  C   C538      1.0  0.74807  0.26061  0.96115  1.0000
  C   C539      1.0  0.91828  0.02165  0.84566  1.0000
  C   C540      1.0  0.75283  0.02939  0.63322  1.0000
  H   H435      1.0  0.76651  0.25612  0.89095  1.0000
  C   C541      1.0  0.80665  0.09252  0.68425  1.0000
  C   C542      1.0  0.50817  0.30652  0.87252  1.0000
  H   H436      1.0  0.48096  0.26427  0.54183  1.0000
  C   C543      1.0  0.89901  0.04949  0.82826  1.0000
  C   C544      1.0  0.60218  0.02323  0.90170  1.0000
  C   C545      1.0  0.71270  0.27789  0.92878  1.0000
  H   H437      1.0  0.56433  0.02052  0.51839  1.0000
  C   C546      1.0  0.85752  0.00608  0.63066  1.0000
  P   P18       1.0  0.80899  0.27263  0.98411  1.0000
  C   C547      1.0  0.95595  0.00552  0.67641  1.0000
  H   H438      1.0  0.86364  0.07580  0.77094  1.0000
  C   C548      1.0  0.53761  0.05771  0.83239  1.0000
  C   C549      1.0  0.87877  0.11897  0.67031  1.0000
  C   C550      1.0  0.51432  0.25900  0.90981  1.0000
  H   H439      1.0  0.86838  0.15509  0.58727  1.0000
  C   C551      1.0  0.84365  0.07471  0.68517  1.0000
  C   C552      1.0  0.84174  0.13650  0.66930  1.0000
  H   H440      1.0  0.94640  0.02432  0.72913  1.0000
  C   C553      1.0  0.87729  0.05380  0.78337  1.0000
  H   H441      1.0  0.83615  0.24758  0.59393  1.0000
  H   H442      1.0  0.72142  0.29873  0.91800  1.0000
  H   H443      1.0  0.81965  0.00682  0.61187  1.0000
  H   H444      1.0  0.68107  0.02506  0.58343  1.0000
  C   C554      1.0  0.83328  0.22805  0.57438  1.0000
  C   C555      1.0  0.87941  0.01642  0.67366  1.0000
  C   C556      1.0  0.77306  0.99942  0.69772  1.0000
  C   C557      1.0  0.81005  0.20401  0.50481  1.0000
  H   H445      1.0  0.55855  0.01301  0.95728  1.0000
  C   C558      1.0  0.58128  0.01164  0.85931  1.0000
  C   C559      1.0  0.87329  0.24658  0.89198  1.0000
  C   C560      1.0  0.82429  0.24766  0.87629  1.0000
  C   C561      1.0  0.80449  0.25591  0.90381  1.0000
  H   H446      1.0  0.60355  0.06130  0.94151  1.0000
  H   H447      1.0  0.89960  0.01529  0.93634  1.0000
  C   C562      1.0  0.88476  0.99559  0.61079  1.0000
  C   C563      1.0  0.66573  0.26831  0.90986  1.0000
  C   C564      1.0  0.87418  0.03007  0.75543  1.0000
  H   H448      1.0  0.88867  0.23962  0.87095  1.0000
  H   H449      1.0  0.90954  0.07533  0.68005  1.0000
  C   C565      1.0  0.70694  0.01786  0.61527  1.0000
  C   C566      1.0  0.53089  0.00943  0.50008  1.0000
  H   H450      1.0  0.87114  0.20012  0.63033  1.0000
  H   H451      1.0  0.76212  0.04551  0.61482  1.0000
  C   C567      1.0  0.79064  0.30478  0.56355  1.0000
  H   H452      1.0  0.83585  0.05289  0.90191  1.0000
  H   H453      1.0  0.77892  0.08276  0.69040  1.0000
  Fe  Fe36      1.0  0.95302  0.13989  0.94335  1.0000
  C   C568      1.0  0.80572  0.12329  0.67628  1.0000
  H   H454      1.0  0.94063  0.25250  0.94774  1.0000
  H   H455      1.0  0.95720  0.26253  0.56017  1.0000
  C   C569      1.0  0.89336  0.00211  0.77322  1.0000
  C   C570      1.0  0.90255  0.25386  0.93516  1.0000
  C   C571      1.0  0.88222  0.02465  0.95444  1.0000
  C   C572      1.0  0.84623  0.04576  0.93499  1.0000
  H   H456      1.0  0.57318  0.28278  0.90896  1.0000
  H   H457      1.0  0.80163  0.24166  0.84292  1.0000
  C   C573      1.0  0.53549  0.28269  0.89797  1.0000
  H   H458      1.0  0.93327  0.14018  0.78799  1.0000
  P   P19       1.0  0.84573  0.03518  0.69724  1.0000
  H   H459      1.0  0.53361  0.01974  0.79227  1.0000
  H   H460      1.0  0.51317  0.07118  0.80562  1.0000
  C   C574      1.0  0.54919  0.02883  0.82488  1.0000
  C   C575      1.0  0.97606  0.24156  0.56539  1.0000
  H   H461      1.0  0.53571  0.24086  0.92971  1.0000
  Fe  Fe37      1.0  0.55435  0.14107  0.96048  1.0000
  H   H462      1.0  0.96994  0.11093  0.74971  1.0000
  H   H463      1.0  0.55044  0.14233  0.49779  1.0000
  C   C576      1.0  0.55732  0.06917  0.87452  1.0000
  C   C577      1.0  0.69410  0.99713  0.63843  1.0000
  C   C578      1.0  0.78639  0.02018  0.67456  1.0000
  C   C579      1.0  0.82450  0.05829  0.95863  1.0000
  H   H464      1.0  0.90711  0.12922  0.66542  1.0000
  S   S72       1.0  0.48470  0.15049  0.90149  1.0000
  C   C580      1.0  0.85293  0.20106  0.59528  1.0000
  H   H465      1.0  0.93941  0.22050  0.59792  1.0000
  H   H466      1.0  0.77731  0.13697  0.67597  1.0000
  C   C581      1.0  0.58903  0.05192  0.90914  1.0000
  C   C582      1.0  0.91526  0.99795  0.81814  1.0000
  C   C583      1.0  0.92879  0.01572  0.69643  1.0000
  H   H467      1.0  0.54828  0.09159  0.88040  1.0000
  C   C584      1.0  0.96649  0.11504  0.84750  1.0000
  H   H468      1.0  0.73604  0.00669  0.94552  1.0000
  C   C585      1.0  0.70188  0.05084  0.97906  1.0000
  S   S73       1.0  0.93589  0.13512  0.87175  1.0000
  H   H469      1.0  0.76759  0.13211  0.93356  1.0000
  C   C586      1.0  0.70221  0.13303  0.93963  1.0000
  H   H470      1.0  0.69008  0.05780  0.94569  1.0000
  H   H471      1.0  0.93598  0.01855  0.88047  1.0000
  H   H472      1.0  0.68082  0.12607  0.90648  1.0000
  P   P20       1.0  0.64355  0.00087  0.94629  1.0000
  H   H473      1.0  0.61737  0.23369  0.90790  1.0000
  H   H474      1.0  0.63845  0.28190  0.88526  1.0000
  H   H475      1.0  0.87907  0.30179  0.53274  1.0000
  H   H476      1.0  0.79745  0.07526  0.94402  1.0000
  C   C587      1.0  0.85906  0.30869  0.54975  1.0000
  H   H477      1.0  0.75727  0.29456  0.55754  1.0000
  C   C588      1.0  0.68031  0.13812  0.96683  1.0000
  C   C589      1.0  0.95703  0.12195  0.80458  1.0000
  C   C590      1.0  0.88282  0.26193  0.96268  1.0000
  H   H478      1.0  0.82944  0.15750  0.50717  1.0000
  P   P21       1.0  0.79249  0.26537  0.50149  1.0000
  C   C591      1.0  0.96602  0.21768  0.58675  1.0000
  C   C592      1.0  0.83371  0.26313  0.94738  1.0000
  C   C593      1.0  0.93396  0.99567  0.63347  1.0000
  S   S74       1.0  0.93828  0.10658  0.98509  1.0000
  H   H479      1.0  0.67942  0.20243  0.96347  1.0000
  C   C594      1.0  0.73586  0.23310  0.97317  1.0000
  S   S75       1.0  0.51992  0.10786  0.98751  1.0000
  H   H480      1.0  0.79772  0.99213  0.72980  1.0000
  C   C595      1.0  0.72408  0.52223  0.14901  1.0000
  H   H481      1.0  0.77107  0.49073  0.32426  1.0000
  S   S76       1.0  0.51823  0.37293  0.38172  1.0000
  S   S77       1.0  0.52630  0.40221  0.47158  1.0000
  S   S78       1.0  0.55556  0.59842  0.12053  1.0000
  Fe  Fe38      1.0  0.57422  0.37544  0.45119  1.0000
  C   C596      1.0  0.69482  0.37166  0.42621  1.0000
  C   C597      1.0  0.51780  0.65788  0.17878  1.0000
  C   C598      1.0  0.68337  0.63776  0.43953  1.0000
  C   C599      1.0  0.67250  0.61162  0.45546  1.0000
  Fe  Fe39      1.0  0.60357  0.63243  0.11170  1.0000
  Fe  Fe40      1.0  0.69412  0.59973  0.17293  1.0000
  S   S79       1.0  0.65326  0.56293  0.18517  1.0000
  S   S80       1.0  0.77282  0.60879  0.19731  1.0000
  Fe  Fe41      1.0  0.60399  0.56399  0.11282  1.0000
  H   H482      1.0  0.68702  0.52765  0.13010  1.0000
  Fe  Fe42      1.0  0.60812  0.59980  0.19192  1.0000
  S   S81       1.0  0.60701  0.60239  0.25809  1.0000
  S   S82       1.0  0.64898  0.59798  0.10086  1.0000
  S   S83       1.0  0.65161  0.63639  0.18264  1.0000
  S   S84       1.0  0.94734  0.58156  0.37864  1.0000
  H   H483      1.0  0.82365  0.50167  0.40153  1.0000
  C   C600      1.0  0.81708  0.60367  0.25110  1.0000
  C   C601      1.0  0.85606  0.62314  0.26747  1.0000
  C   C602      1.0  0.89533  0.61739  0.30749  1.0000
  C   C603      1.0  0.89630  0.59176  0.33113  1.0000
  C   C604      1.0  0.85668  0.57281  0.31548  1.0000
  C   C605      1.0  0.81715  0.57879  0.27570  1.0000
  H   H484      1.0  0.73633  0.56158  0.42930  1.0000
  H   H485      1.0  0.92553  0.63219  0.31934  1.0000
  H   H486      1.0  0.85700  0.55296  0.33359  1.0000
  H   H487      1.0  0.78778  0.56335  0.26299  1.0000
  C   C606      1.0  0.56659  0.61026  0.27982  1.0000
  C   C607      1.0  0.51775  0.61187  0.25414  1.0000
  S   S85       1.0  0.48096  0.61208  0.45909  1.0000
  C   C608      1.0  0.93638  0.50079  0.48363  1.0000
  H   H488      1.0  0.53864  0.63817  0.18094  1.0000
  C   C609      1.0  0.53313  0.52370  0.27400  1.0000
  H   H489      1.0  0.72825  0.36127  0.38517  1.0000
  Fe  Fe43      1.0  0.50392  0.35780  0.48667  1.0000
  H   H490      1.0  0.90389  0.50218  0.48673  1.0000
  H   H491      1.0  0.93360  0.50753  0.38038  1.0000
  H   H492      1.0  0.68304  0.63454  0.33029  1.0000
  C   C610      1.0  0.55415  0.50935  0.01830  1.0000
  H   H493      1.0  0.83239  0.39554  0.03366  1.0000
  S   S86       1.0  0.55423  0.33110  0.46976  1.0000
  H   H494      1.0  0.50760  0.54050  0.48298  1.0000
  C   C611      1.0  0.52062  0.54204  0.20356  1.0000
  C   C612      1.0  0.50551  0.62300  0.31807  1.0000
  C   C613      1.0  0.89861  0.51048  0.08816  1.0000
  C   C614      1.0  0.58449  0.61456  0.32485  1.0000
  H   H495      1.0  0.82413  0.51166  0.06994  1.0000
  C   C615      1.0  0.55119  0.53397  0.24611  1.0000
  H   H496      1.0  0.56874  0.62429  0.37850  1.0000
  H   H497      1.0  0.71074  0.48734  0.18500  1.0000
  C   C616      1.0  0.72182  0.58301  0.43178  1.0000
  H   H498      1.0  0.89580  0.36837  0.02465  1.0000
  C   C617      1.0  0.73754  0.49942  0.17995  1.0000
  Fe  Fe44      1.0  0.91018  0.35883  0.46705  1.0000
  H   H499      1.0  0.72202  0.65717  0.40818  1.0000
  H   H500      1.0  0.97020  0.50685  0.09661  1.0000
  C   C618      1.0  0.93216  0.42254  0.18416  1.0000
  H   H501      1.0  0.58772  0.53170  0.47052  1.0000
  C   C619      1.0  0.93321  0.50271  0.07532  1.0000
  C   C620      1.0  0.77291  0.57061  0.37022  1.0000
  H   H502      1.0  0.62200  0.61272  0.34531  1.0000
  H   H503      1.0  0.80772  0.64993  0.46470  1.0000
  C   C621      1.0  0.74167  0.53521  0.31040  1.0000
  C   C622      1.0  0.74224  0.56392  0.32682  1.0000
  C   C623      1.0  0.78519  0.35773  0.01488  1.0000
  C   C624      1.0  0.73410  0.36659  0.41780  1.0000
  S   S87       1.0  0.58267  0.51926  0.07493  1.0000
  H   H504      1.0  0.71832  0.53039  0.27671  1.0000
  H   H505      1.0  0.71881  0.58082  0.30540  1.0000
  C   C625      1.0  0.75769  0.63423  0.34747  1.0000
  H   H506      1.0  0.56634  0.57144  0.41474  1.0000
  Fe  Fe45      1.0  0.49574  0.33011  0.40170  1.0000
  C   C626      1.0  0.85106  0.50530  0.06025  1.0000
  C   C627      1.0  0.87209  0.60549  0.43047  1.0000
  H   H507      1.0  0.53485  0.55018  0.18218  1.0000
  C   C628      1.0  0.80100  0.51910  0.38073  1.0000
  C   C629      1.0  0.89649  0.44180  0.32573  1.0000
  C   C630      1.0  0.91365  0.46183  0.36052  1.0000
  C   C631      1.0  0.92074  0.49183  0.35358  1.0000
  C   C632      1.0  0.91123  0.50175  0.31202  1.0000
  C   C633      1.0  0.89458  0.48170  0.27689  1.0000
  C   C634      1.0  0.88663  0.45169  0.28403  1.0000
  P   P22       1.0  0.88050  0.49482  0.22274  1.0000
  C   C635      1.0  0.88733  0.46491  0.19047  1.0000
  C   C636      1.0  0.81982  0.50725  0.19646  1.0000
  C   C637      1.0  0.80595  0.53035  0.16552  1.0000
  C   C638      1.0  0.75828  0.53793  0.14221  1.0000
  C   C639      1.0  0.78523  0.49192  0.20365  1.0000
  C   C640      1.0  0.92511  0.44481  0.20915  1.0000
  C   C641      1.0  0.80141  0.54774  0.39736  1.0000
  C   C642      1.0  0.90123  0.42000  0.14012  1.0000
  C   C643      1.0  0.86303  0.43968  0.12121  1.0000
  C   C644      1.0  0.85601  0.46202  0.14625  1.0000
  C   C645      1.0  0.92058  0.52497  0.22702  1.0000
  H   H508      1.0  0.56366  0.46197  0.03142  1.0000
  C   C646      1.0  0.86261  0.35735  0.01724  1.0000
  H   H509      1.0  0.58898  0.53606  0.25758  1.0000
  C   C647      1.0  0.94304  0.57742  0.24119  1.0000
  C   C648      1.0  0.91159  0.55418  0.23658  1.0000
  H   H510      1.0  0.89130  0.41844  0.33119  1.0000
  H   H511      1.0  0.92153  0.45405  0.39281  1.0000
  C   C649      1.0  0.54966  0.47883  0.00633  1.0000
  H   H512      1.0  0.91696  0.52511  0.30771  1.0000
  H   H513      1.0  0.87299  0.43582  0.25752  1.0000
  H   H514      1.0  0.83165  0.54227  0.15879  1.0000
  H   H515      1.0  0.79482  0.47375  0.22677  1.0000
  H   H516      1.0  0.94965  0.44679  0.24294  1.0000
  C   C650      1.0  0.83813  0.49192  0.01980  1.0000
  H   H517      1.0  0.82633  0.47704  0.13086  1.0000
  H   H518      1.0  0.75784  0.36933  0.01973  1.0000
  H   H519      1.0  0.94772  0.48420  0.02525  1.0000
  H   H520      1.0  0.85610  0.64254  0.24881  1.0000
  C   C651      1.0  0.49245  0.44813  0.29889  1.0000
  H   H521      1.0  0.88048  0.55894  0.24100  1.0000
  H   H522      1.0  0.82834  0.63717  0.35241  1.0000
  C   C652      1.0  0.69172  0.58428  0.45159  1.0000
  P   P23       1.0  0.77338  0.60773  0.39144  1.0000
  C   C653      1.0  0.95592  0.52646  0.47508  1.0000
  C   C654      1.0  0.50120  0.51412  0.35039  1.0000
  H   H523      1.0  0.91814  0.42603  0.02345  1.0000
  C   C655      1.0  0.56344  0.52676  0.43714  1.0000
  H   H524      1.0  0.68327  0.56405  0.46403  1.0000
  H   H525      1.0  0.49525  0.47019  0.37442  1.0000
  C   C656      1.0  0.55428  0.62106  0.34386  1.0000
  C   C657      1.0  0.70150  0.37919  0.46801  1.0000
  S   S88       1.0  0.95661  0.39503  0.46021  1.0000
  C   C658      1.0  0.83192  0.61784  0.43176  1.0000
  C   C659      1.0  0.71363  0.63661  0.41989  1.0000
  Fe  Fe46      1.0  0.48732  0.64381  0.41099  1.0000
  S   S89       1.0  0.82882  0.36342  0.43739  1.0000
  C   C660      1.0  0.78075  0.36857  0.45094  1.0000
  H   H526      1.0  0.65940  0.37028  0.40014  1.0000
  C   C661      1.0  0.48724  0.41757  0.28900  1.0000
  H   H527      1.0  0.74767  0.55602  0.11878  1.0000
  H   H528      1.0  0.90722  0.40288  0.12079  1.0000
  H   H529      1.0  0.49323  0.48557  0.47968  1.0000
  C   C662      1.0  0.96175  0.51945  0.22231  1.0000
  C   C663      1.0  0.92620  0.42363  0.99622  1.0000
  H   H530      1.0  0.82412  0.55208  0.43126  1.0000
  C   C664      1.0  0.84307  0.65308  0.15705  1.0000
  C   C665      1.0  0.82714  0.37248  0.02282  1.0000
  H   H531      1.0  0.86884  0.58974  0.40543  1.0000
  H   H532      1.0  0.83959  0.62957  0.16304  1.0000
  C   C666      1.0  0.77133  0.51289  0.33720  1.0000
  C   C667      1.0  0.73297  0.60917  0.41562  1.0000
  C   C668      1.0  0.92035  0.48967  0.03476  1.0000
  C   C669      1.0  0.48416  0.52164  0.25951  1.0000
  C   C670      1.0  0.52064  0.54286  0.36252  1.0000
  H   H533      1.0  0.55750  0.51731  0.30670  1.0000
  H   H534      1.0  0.80131  0.43763  0.45685  1.0000
  H   H535      1.0  0.83905  0.43781  0.08706  1.0000
  H   H536      1.0  0.94810  0.60429  0.46007  1.0000
  H   H537      1.0  0.80116  0.48808  0.99902  1.0000
  H   H538      1.0  0.93597  0.59976  0.24908  1.0000
  C   C671      1.0  0.51154  0.49211  0.38248  1.0000
  H   H539      1.0  0.90872  0.52059  0.11963  1.0000
  S   S90       1.0  0.65342  0.38785  0.48026  1.0000
  C   C672      1.0  0.83782  0.63952  0.46332  1.0000
  C   C673      1.0  0.54344  0.49824  0.42551  1.0000
  H   H540      1.0  0.52719  0.45675  0.31992  1.0000
  C   C674      1.0  0.71070  0.64345  0.32341  1.0000
  H   H541      1.0  0.96212  0.40752  0.19891  1.0000
  C   C675      1.0  0.48750  0.61837  0.27314  1.0000
  C   C676      1.0  0.55158  0.54915  0.40572  1.0000
  C   C677      1.0  0.87275  0.48391  0.00672  1.0000
  C   C678      1.0  0.96088  0.40309  0.99921  1.0000
  C   C679      1.0  0.91721  0.61396  0.46108  1.0000
  C   C680      1.0  0.79214  0.64478  0.33565  1.0000
  H   H542      1.0  0.55261  0.48079  0.44978  1.0000
  H   H543      1.0  0.51194  0.56044  0.33852  1.0000
  H   H544      1.0  0.93857  0.54791  0.47128  1.0000
  H   H545      1.0  0.51763  0.40287  0.30270  1.0000
  H   H546      1.0  0.97038  0.49718  0.21575  1.0000
  H   H547      1.0  0.64924  0.61258  0.47091  1.0000
  H   H548      1.0  0.77697  0.65456  0.09927  1.0000
  H   H549      1.0  0.53845  0.55425  0.99338  1.0000
  H   H550      1.0  0.50311  0.60766  0.21974  1.0000
  C   C681      1.0  0.77888  0.32774  0.00174  1.0000
  C   C682      1.0  0.85617  0.32754  0.00349  1.0000
  H   H551      1.0  0.90825  0.65835  0.21460  1.0000
  C   C683      1.0  0.83313  0.47761  0.66408  1.0000
  H   H552      1.0  0.67455  0.44054  0.53852  1.0000
  C   C684      1.0  0.49076  0.37060  0.58586  1.0000
  C   C685      1.0  0.80108  0.44744  0.93491  1.0000
  C   C686      1.0  0.53246  0.54302  0.55203  1.0000
  C   C687      1.0  0.48933  0.37730  0.65592  1.0000
  C   C688      1.0  0.95957  0.47336  0.48938  1.0000
  H   H553      1.0  0.71977  0.53945  0.64295  1.0000
  H   H554      1.0  0.84641  0.52545  0.51750  1.0000
  H   H555      1.0  0.91588  0.51731  0.64774  1.0000
  C   C689      1.0  0.56129  0.48689  0.72978  1.0000
  H   H556      1.0  0.95828  0.51189  0.72684  1.0000
  Fe  Fe47      1.0  0.86650  0.61209  0.74981  1.0000
  S   S91       1.0  0.89769  0.56733  0.74756  1.0000
  S   S92       1.0  0.78859  0.62420  0.72539  1.0000
  H   H557      1.0  0.57927  0.46623  0.74454  1.0000
  Fe  Fe48      1.0  0.94800  0.59312  0.72947  1.0000
  Fe  Fe49      1.0  0.94968  0.57487  0.81817  1.0000
  S   S93       1.0  0.91296  0.63716  0.72747  1.0000
  S   S94       1.0  0.91470  0.61839  0.82127  1.0000
  C   C690      1.0  0.69020  0.46273  0.54538  1.0000
  S   S95       1.0  0.61642  0.59982  0.54039  1.0000
  H   H558      1.0  0.51652  0.48560  0.76186  1.0000
  C   C691      1.0  0.74263  0.62022  0.67189  1.0000
  C   C692      1.0  0.74922  0.60496  0.63956  1.0000
  C   C693      1.0  0.71059  0.60001  0.59870  1.0000
  C   C694      1.0  0.66524  0.61047  0.58960  1.0000
  C   C695      1.0  0.65922  0.62710  0.62110  1.0000
  C   C696      1.0  0.69760  0.63166  0.66217  1.0000
  H   H559      1.0  0.78375  0.59629  0.64653  1.0000
  H   H560      1.0  0.71571  0.58788  0.57409  1.0000
  H   H561      1.0  0.94545  0.45356  0.49734  1.0000
  C   C697      1.0  0.89925  0.50504  0.66435  1.0000
  C   C698      1.0  0.70082  0.56031  0.72861  1.0000
  H   H562      1.0  0.63292  0.53710  0.60786  1.0000
  C   C699      1.0  0.62641  0.55006  0.66554  1.0000
  H   H563      1.0  0.60046  0.60879  0.66817  1.0000
  C   C700      1.0  0.79941  0.41599  0.93435  1.0000
  C   C701      1.0  0.80847  0.32777  0.59415  1.0000
  S   S96       1.0  0.52038  0.41868  0.81502  1.0000
  H   H564      1.0  0.82861  0.55578  0.62824  1.0000
  C   C702      1.0  0.71412  0.41746  0.90440  1.0000
  C   C703      1.0  0.49304  0.64081  0.61049  1.0000
  Fe  Fe50      1.0  0.96358  0.64027  0.79833  1.0000
  H   H565      1.0  0.49281  0.55912  0.67480  1.0000
  C   C704      1.0  0.54138  0.63830  0.63774  1.0000
  H   H566      1.0  0.53938  0.48356  0.61684  1.0000
  S   S97       1.0  0.47885  0.48148  0.87246  1.0000
  C   C705      1.0  0.65132  0.54312  0.64173  1.0000
  C   C706      1.0  0.51481  0.52807  0.51227  1.0000
  C   C707      1.0  0.52571  0.49773  0.73943  1.0000
  C   C708      1.0  0.81070  0.46495  0.51179  1.0000
  H   H567      1.0  0.60023  0.49329  0.69308  1.0000
  H   H568      1.0  0.52427  0.44631  0.95395  1.0000
  H   H569      1.0  0.78857  0.33537  0.61095  1.0000
  C   C709      1.0  0.71541  0.44873  0.90439  1.0000
  H   H570      1.0  0.97037  0.56246  0.59493  1.0000
  S   S98       1.0  0.96596  0.53377  0.86451  1.0000
  H   H571      1.0  0.91051  0.46558  0.60816  1.0000
  C   C710      1.0  0.85228  0.49612  0.91617  1.0000
  C   C711      1.0  0.88118  0.52161  0.92998  1.0000
  C   C712      1.0  0.87827  0.54371  0.90014  1.0000
  C   C713      1.0  0.84717  0.54038  0.85628  1.0000
  C   C714      1.0  0.81854  0.51500  0.84216  1.0000
  C   C715      1.0  0.82113  0.49289  0.87191  1.0000
  C   C716      1.0  0.56290  0.61009  0.64748  1.0000
  H   H572      1.0  0.63300  0.56412  0.72812  1.0000
  C   C717      1.0  0.92361  0.50187  0.70933  1.0000
  C   C718      1.0  0.51289  0.52172  0.94107  1.0000
  H   H573      1.0  0.62486  0.48500  0.53230  1.0000
  H   H574      1.0  0.75405  0.38701  0.53363  1.0000
  C   C719      1.0  0.90273  0.44105  0.95863  1.0000
  H   H575      1.0  0.92139  0.48511  0.76690  1.0000
  H   H576      1.0  0.84150  0.46295  0.72675  1.0000
  H   H577      1.0  0.90695  0.52424  0.96344  1.0000
  C   C720      1.0  0.51629  0.48138  0.54838  1.0000
  C   C721      1.0  0.91347  0.43686  0.92364  1.0000
  C   C722      1.0  0.85764  0.47454  0.70919  1.0000
  H   H578      1.0  0.51072  0.45740  0.54708  1.0000
  H   H579      1.0  0.68276  0.46137  0.89270  1.0000
  H   H580      1.0  0.72007  0.56778  0.76188  1.0000
  H   H581      1.0  0.90158  0.56293  0.91073  1.0000
  H   H582      1.0  0.84632  0.55714  0.83317  1.0000
  H   H583      1.0  0.79503  0.51225  0.80800  1.0000
  C   C723      1.0  0.48120  0.40115  0.57751  1.0000
  C   C724      1.0  0.54102  0.52739  0.59023  1.0000
  C   C725      1.0  0.50129  0.52380  0.71946  1.0000
  C   C726      1.0  0.48754  0.58693  0.60234  1.0000
  H   H584      1.0  0.66066  0.53588  0.54713  1.0000
  H   H585      1.0  0.76348  0.55529  0.71955  1.0000
  P   P24       1.0  0.56282  0.54738  0.64115  1.0000
  H   H586      1.0  0.69221  0.64371  0.68680  1.0000
  H   H587      1.0  0.95774  0.64267  0.51523  1.0000
  H   H588      1.0  0.79949  0.47306  0.86013  1.0000
  C   C727      1.0  0.51220  0.53897  0.68959  1.0000
  C   C728      1.0  0.53608  0.58416  0.62983  1.0000
  C   C729      1.0  0.75865  0.46369  0.91936  1.0000
  S   S99       1.0  0.53572  0.33583  0.85797  1.0000
  C   C730      1.0  0.88612  0.45977  0.57524  1.0000
  C   C731      1.0  0.84072  0.47241  0.55508  1.0000
  H   H589      1.0  0.75898  0.48795  0.91878  1.0000
  P   P25       1.0  0.82168  0.49915  0.58344  1.0000
  C   C732      1.0  0.75904  0.49478  0.56647  1.0000
  C   C733      1.0  0.85366  0.49312  0.64133  1.0000
  C   C734      1.0  0.72536  0.55313  0.70482  1.0000
  C   C735      1.0  0.70065  0.54437  0.66152  1.0000
  Fe  Fe51      1.0  0.48918  0.37464  0.82103  1.0000
  C   C736      1.0  0.65155  0.55851  0.70923  1.0000
  C   C737      1.0  0.52724  0.46982  0.96223  1.0000
  C   C738      1.0  0.73048  0.51982  0.56225  1.0000
  C   C739      1.0  0.68228  0.51635  0.54996  1.0000
  H   H590      1.0  0.68053  0.40589  0.89273  1.0000
  H   H591      1.0  0.83134  0.40280  0.94537  1.0000
  C   C740      1.0  0.73847  0.46615  0.55791  1.0000
  C   C741      1.0  0.83478  0.53685  0.57308  1.0000
  C   C742      1.0  0.84645  0.54300  0.53909  1.0000
  C   C743      1.0  0.86019  0.57190  0.53383  1.0000
  C   C744      1.0  0.86181  0.59481  0.56208  1.0000
  C   C745      1.0  0.84920  0.58901  0.59529  1.0000
  C   C746      1.0  0.83609  0.56013  0.60101  1.0000
  H   H592      1.0  0.53944  0.56686  0.55292  1.0000
  H   H593      1.0  0.62469  0.63567  0.61425  1.0000
  Fe  Fe52      1.0  0.55257  0.63026  0.50566  1.0000
  C   C747      1.0  0.92270  0.63555  0.49224  1.0000
  C   C748      1.0  0.54790  0.52816  0.67958  1.0000
  H   H594      1.0  0.79814  0.46817  0.64736  1.0000
  P   P26       1.0  0.85689  0.46694  0.95428  1.0000
  C   C749      1.0  0.86982  0.43114  0.51042  1.0000
  C   C750      1.0  0.57257  0.50209  0.70020  1.0000
  H   H595      1.0  0.85218  0.60651  0.61817  1.0000
  H   H596      1.0  0.74528  0.54205  0.56857  1.0000
  C   C751      1.0  0.90045  0.43908  0.55301  1.0000
  C   C752      1.0  0.66215  0.48779  0.54162  1.0000
  H   H597      1.0  0.87126  0.57640  0.50893  1.0000
  H   H598      1.0  0.75962  0.44639  0.56094  1.0000
  H   H599      1.0  0.88044  0.41456  0.49351  1.0000
  H   H600      1.0  0.82276  0.37719  0.51884  1.0000
  H   H601      1.0  0.87449  0.61683  0.55942  1.0000
  H   H602      1.0  0.77579  0.47469  0.49525  1.0000
  C   C753      1.0  0.75609  0.40111  0.91919  1.0000
  C   C754      1.0  0.50852  0.49123  0.92908  1.0000
  C   C755      1.0  0.53292  0.49637  0.58810  1.0000
  S   S100      1.0  0.96130  0.57695  0.67241  1.0000
  C   C756      1.0  0.90274  0.48682  0.73184  1.0000
  C   C757      1.0  0.78738  0.37552  0.49290  1.0000
  H   H603      1.0  0.50207  0.33527  0.63208  1.0000
  H   H604      1.0  0.49862  0.53860  0.91602  1.0000
  H   H605      1.0  0.49253  0.36785  0.68600  1.0000
  C   C758      1.0  0.74815  0.38116  0.50118  1.0000
  C   C759      1.0  0.50674  0.49723  0.51043  1.0000
  C   C760      1.0  0.49482  0.35886  0.62525  1.0000
  S   S101      1.0  0.49493  0.34586  0.54719  1.0000
  S   S102      1.0  0.96315  0.34566  0.53501  1.0000
  H   H606      1.0  0.86541  0.35897  0.62639  1.0000
  H   H607      1.0  0.91052  0.34176  0.58755  1.0000
  C   C761      1.0  0.97178  0.39935  0.96450  1.0000
  C   C762      1.0  0.94798  0.41615  0.92669  1.0000
  C   C763      1.0  0.87707  0.33140  0.58084  1.0000
  H   H608      1.0  0.75503  0.37684  0.91889  1.0000
  C   C764      1.0  0.85168  0.34107  0.60282  1.0000
  C   C765      1.0  0.48042  0.40791  0.64787  1.0000
  H   H609      1.0  0.89594  0.44989  0.89425  1.0000
  H   H610      1.0  0.95683  0.41351  0.89994  1.0000
  H   H611      1.0  0.93532  0.42906  0.56888  1.0000
  C   C766      1.0  0.53560  0.53073  0.98513  1.0000
  C   C767      1.0  0.88306  0.64843  0.49323  1.0000
  H   H612      1.0  0.56232  0.65831  0.65077  1.0000
  C   C768      1.0  0.82516  0.44425  0.48970  1.0000
  Fe  Fe53      1.0  0.95142  0.89775  0.27871  1.0000
  S   S103      1.0  0.89303  0.86437  0.26055  1.0000
  Fe  Fe54      1.0  0.92006  0.93270  0.33987  1.0000
  S   S104      1.0  0.85733  0.90185  0.32265  1.0000
  Fe  Fe55      1.0  0.90920  0.86489  0.33068  1.0000
  Fe  Fe56      1.0  0.84596  0.90394  0.25323  1.0000
  S   S105      1.0  0.78202  0.90232  0.18616  1.0000
  S   S106      1.0  0.90438  0.93772  0.26876  1.0000
  H   H613      1.0  0.52696  0.68428  0.10580  1.0000
  C   C769      1.0  0.94346  0.75744  0.15854  1.0000
  S   S107      1.0  0.55894  0.91312  0.11188  1.0000
  C   C770      1.0  0.50618  0.77322  0.21191  1.0000
  H   H614      1.0  0.93304  0.73794  0.13770  1.0000
  H   H615      1.0  0.57565  0.68071  0.22921  1.0000
  C   C771      1.0  0.90409  0.70742  0.32263  1.0000
  C   C772      1.0  0.55639  0.70397  0.06647  1.0000
  C   C773      1.0  0.52790  0.70385  0.08780  1.0000
  H   H616      1.0  0.78338  0.84812  0.02950  1.0000
  H   H617      1.0  0.93919  0.80423  0.02894  1.0000
  H   H618      1.0  0.97041  0.67469  0.18328  1.0000
  C   C774      1.0  0.87030  0.82405  0.99546  1.0000
  C   C775      1.0  0.84990  0.71425  0.14336  1.0000
  C   C776      1.0  0.72024  0.90232  0.16936  1.0000
  C   C777      1.0  0.69045  0.89065  0.12822  1.0000
  C   C778      1.0  0.64109  0.89249  0.11136  1.0000
  C   C779      1.0  0.62078  0.90723  0.13461  1.0000
  C   C780      1.0  0.65039  0.91879  0.17589  1.0000
  C   C781      1.0  0.69993  0.91598  0.19351  1.0000
  H   H619      1.0  0.70558  0.88061  0.10885  1.0000
  H   H620      1.0  0.61876  0.88319  0.07990  1.0000
  H   H621      1.0  0.63501  0.93034  0.19410  1.0000
  H   H622      1.0  0.72238  0.92553  0.22488  1.0000
  H   H623      1.0  0.90178  0.89714  0.09428  1.0000
  H   H624      1.0  0.91770  0.89759  0.17184  1.0000
  H   H625      1.0  0.48845  0.82516  0.13354  1.0000
  C   C782      1.0  0.63779  0.75335  0.27613  1.0000
  S   S108      1.0  0.96079  0.88976  0.05177  1.0000
  H   H626      1.0  0.68595  0.67571  0.13018  1.0000
  C   C783      1.0  0.83054  0.80003  0.10038  1.0000
  C   C784      1.0  0.84567  0.82772  0.12060  1.0000
  C   C785      1.0  0.81918  0.84255  0.13789  1.0000
  C   C786      1.0  0.77773  0.82966  0.13532  1.0000
  C   C787      1.0  0.76278  0.80146  0.11601  1.0000
  C   C788      1.0  0.78922  0.78701  0.09791  1.0000
  P   P27       1.0  0.70974  0.78355  0.11234  1.0000
  C   C789      1.0  0.67024  0.78112  0.05494  1.0000
  C   C790      1.0  0.72630  0.74735  0.13806  1.0000
  C   C791      1.0  0.69603  0.72262  0.12210  1.0000
  C   C792      1.0  0.70894  0.69491  0.14299  1.0000
  C   C793      1.0  0.76863  0.74419  0.17625  1.0000
  C   C794      1.0  0.88191  0.66947  0.18616  1.0000
  H   H627      1.0  0.71183  0.76453  0.30539  1.0000
  H   H628      1.0  0.96704  0.78052  0.26060  1.0000
  C   C795      1.0  0.49951  0.72884  0.08468  1.0000
  C   C796      1.0  0.67222  0.75655  0.03032  1.0000
  C   C797      1.0  0.68173  0.80216  0.14155  1.0000
  C   C798      1.0  0.63226  0.80237  0.12468  1.0000
  C   C799      1.0  0.61042  0.81768  0.14617  1.0000
  C   C800      1.0  0.63773  0.83201  0.18551  1.0000
  C   C801      1.0  0.68692  0.83020  0.20402  1.0000
  C   C802      1.0  0.70886  0.81483  0.18259  1.0000
  H   H629      1.0  0.85103  0.78870  0.08677  1.0000
  H   H630      1.0  0.87782  0.83782  0.12281  1.0000
  H   H631      1.0  0.83099  0.86407  0.15358  1.0000
  H   H632      1.0  0.75774  0.84205  0.14829  1.0000
  H   H633      1.0  0.77788  0.76562  0.08191  1.0000
  H   H634      1.0  0.66204  0.72461  0.09404  1.0000
  H   H635      1.0  0.79192  0.76314  0.18984  1.0000
  H   H636      1.0  0.63736  0.82425  0.05173  1.0000
  C   C803      1.0  0.78340  0.96018  0.04996  1.0000
  S   S109      1.0  0.97203  0.89522  0.35060  1.0000
  H   H637      1.0  0.69725  0.73860  0.04514  1.0000
  H   H638      1.0  0.61018  0.79082  0.09487  1.0000
  H   H639      1.0  0.57222  0.81868  0.13195  1.0000
  H   H640      1.0  0.62077  0.84451  0.20161  1.0000
  H   H641      1.0  0.70814  0.84114  0.23472  1.0000
  H   H642      1.0  0.74697  0.81327  0.19802  1.0000
  C   C804      1.0  0.63843  0.80449  0.03399  1.0000
  C   C805      1.0  0.94617  0.89395  0.16322  1.0000
  H   H643      1.0  0.57874  0.72949  0.02585  1.0000
  H   H644      1.0  0.90842  0.75426  0.03514  1.0000
  H   H645      1.0  0.52815  0.68772  0.28343  1.0000
  C   C806      1.0  0.87145  0.75582  0.29254  1.0000
  H   H646      1.0  0.72341  0.68945  0.25078  1.0000
  H   H647      1.0  0.55678  0.83841  0.45441  1.0000
  H   H648      1.0  0.93938  0.95916  0.08488  1.0000
  C   C807      1.0  0.77989  0.66486  0.30115  1.0000
  C   C808      1.0  0.53866  0.70416  0.34537  1.0000
  C   C809      1.0  0.52910  0.75451  0.04003  1.0000
  H   H649      1.0  0.85590  0.93413  0.15070  1.0000
  C   C810      1.0  0.96645  0.97617  0.09804  1.0000
  C   C811      1.0  0.64807  0.74183  0.20110  1.0000
  C   C812      1.0  0.68173  0.75707  0.27622  1.0000
  H   H650      1.0  0.66828  0.65894  0.44246  1.0000
  S   S110      1.0  0.93383  0.97455  0.38436  1.0000
  C   C813      1.0  0.69805  0.97053  0.12140  1.0000
  C   C814      1.0  0.68684  0.75141  0.23867  1.0000
  H   H651      1.0  0.62469  0.98194  0.09329  1.0000
  H   H652      1.0  0.56656  0.77563  0.38151  1.0000
  C   C815      1.0  0.80768  0.66720  0.12108  1.0000
  H   H653      1.0  0.77315  0.96351  0.15674  1.0000
  H   H654      1.0  0.72075  0.75450  0.23864  1.0000
  H   H655      1.0  0.85114  0.73809  0.13872  1.0000
  C   C816      1.0  0.95125  0.79501  0.37600  1.0000
  P   P28       1.0  0.93307  0.72164  0.21993  1.0000
  C   C817      1.0  0.53677  0.70723  0.30423  1.0000
  H   H656      1.0  0.81332  0.71385  0.22685  1.0000
  H   H657      1.0  0.77700  0.92506  0.09014  1.0000
  C   C818      1.0  0.85146  0.92584  0.99576  1.0000
  H   H658      1.0  0.57097  0.98167  0.13729  1.0000
  C   C819      1.0  0.87863  0.73299  0.32255  1.0000
  C   C820      1.0  0.87306  0.96993  0.11816  1.0000
  H   H659      1.0  0.76079  0.67045  0.19692  1.0000
  H   H660      1.0  0.81429  0.89300  0.01336  1.0000
  H   H661      1.0  0.53138  0.68267  0.35568  1.0000
  C   C821      1.0  0.81116  0.69774  0.11413  1.0000
  H   H662      1.0  0.52930  0.77381  0.02117  1.0000
  C   C822      1.0  0.97438  0.80754  0.21271  1.0000
  C   C823      1.0  0.93728  0.89344  0.11931  1.0000
  C   C824      1.0  0.51235  0.70800  0.20338  1.0000
  C   C825      1.0  0.55604  0.75989  0.31857  1.0000
  H   H663      1.0  0.90769  0.97338  0.14500  1.0000
  H   H664      1.0  0.69219  0.95054  0.10194  1.0000
  C   C826      1.0  0.92229  0.70460  0.29259  1.0000
  C   C827      1.0  0.84396  0.94751  0.12142  1.0000
  C   C828      1.0  0.53559  0.87958  0.47437  1.0000
  S   S111      1.0  0.90786  0.82264  0.36647  1.0000
  H   H665      1.0  0.86286  0.93796  0.02591  1.0000
  C   C829      1.0  0.94557  0.75627  0.20008  1.0000
  C   C830      1.0  0.73318  0.67439  0.27802  1.0000
  H   H666      1.0  0.63476  0.75796  0.30553  1.0000
  H   H667      1.0  0.72313  0.85836  0.05448  1.0000
  S   S112      1.0  0.55207  0.74209  0.48890  1.0000
  C   C831      1.0  0.59860  0.74377  0.23838  1.0000
  H   H668      1.0  0.80649  0.67253  0.29182  1.0000
  H   H669      1.0  0.78301  0.70868  0.08679  1.0000
  C   C832      1.0  0.56824  0.85816  0.47459  1.0000
  Fe  Fe57      1.0  0.50770  0.88933  0.05034  1.0000
  H   H670      1.0  0.56253  0.78169  0.30854  1.0000
  C   C833      1.0  0.88912  0.75293  0.26211  1.0000
  C   C834      1.0  0.95607  0.78365  0.14407  1.0000
  H   H671      1.0  0.74882  0.95631  0.02343  1.0000
  C   C835      1.0  0.88581  0.70013  0.17933  1.0000
  S   S113      1.0  0.53004  0.84904  0.02567  1.0000
  H   H672      1.0  0.94202  0.68464  0.29326  1.0000
  C   C836      1.0  0.81195  0.98312  0.04701  1.0000
  C   C837      1.0  0.91526  0.72744  0.26229  1.0000
  C   C838      1.0  0.53876  0.68214  0.20615  1.0000
  C   C839      1.0  0.55711  0.72941  0.04279  1.0000
  C   C840      1.0  0.95455  0.77056  0.40283  1.0000
  C   C841      1.0  0.54534  0.73521  0.29042  1.0000
  C   C842      1.0  0.75118  0.69189  0.18065  1.0000
  H   H673      1.0  0.93197  0.76966  0.41882  1.0000
  S   S114      1.0  0.59063  0.67261  0.06747  1.0000
  C   C843      1.0  0.51199  0.78864  0.17911  1.0000
  C   C844      1.0  0.78084  0.71651  0.19747  1.0000
  H   H674      1.0  0.95492  0.78454  0.11223  1.0000
  C   C845      1.0  0.97116  0.80873  0.17101  1.0000
  C   C846      1.0  0.79930  0.94249  0.08727  1.0000
  C   C847      1.0  0.60706  0.80237  0.98991  1.0000
  H   H675      1.0  0.88468  0.84544  0.99255  1.0000
  C   C848      1.0  0.60425  0.73807  0.20090  1.0000
  H   H676      1.0  0.57460  0.73094  0.17124  1.0000
  H   H677      1.0  0.86592  0.73566  0.34678  1.0000
  H   H678      1.0  0.65158  0.73751  0.17182  1.0000
  H   H679      1.0  0.55078  0.72628  0.40498  1.0000
  C   C849      1.0  0.96004  0.98380  0.44143  1.0000
  P   P29       1.0  0.54079  0.74013  0.23654  1.0000
  Fe  Fe58      1.0  0.52345  0.69472  0.47791  1.0000
  H   H680      1.0  0.85321  0.77613  0.29366  1.0000
  H   H681      1.0  0.64004  0.86823  0.00119  1.0000
  C   C850      1.0  0.88409  0.77258  0.02007  1.0000
  C   C851      1.0  0.55822  0.75662  0.35979  1.0000
  C   C852      1.0  0.54941  0.72878  0.37313  1.0000
  H   H682      1.0  0.53704  0.78112  0.16786  1.0000
  H   H683      1.0  0.91077  0.69009  0.34670  1.0000
  H   H684      1.0  0.88221  0.77061  0.23858  1.0000
  H   H685      1.0  0.50973  0.93379  0.42613  1.0000
  C   C853      1.0  0.50263  0.98371  0.08254  1.0000
  C   C854      1.0  0.96242  0.78127  0.22752  1.0000
  C   C855      1.0  0.60866  0.93633  0.01086  1.0000
  C   C856      1.0  0.90148  0.80068  0.01658  1.0000
  C   C857      1.0  0.55146  0.97621  0.99379  1.0000
  C   C858      1.0  0.97396  0.88836  0.10759  1.0000
  C   C859      1.0  0.48422  0.81369  0.15930  1.0000
  H   H686      1.0  0.55447  0.93758  0.03227  1.0000
  H   H687      1.0  0.49169  0.96229  0.08969  1.0000
  H   H688      1.0  0.62273  0.91516  0.02644  1.0000
  C   C860      1.0  0.74735  0.85235  0.00578  1.0000
  C   C861      1.0  0.49985  0.75412  0.06064  1.0000
  H   H689      1.0  0.66211  0.67018  0.27032  1.0000
  C   C862      1.0  0.71332  0.85826  0.02016  1.0000
  C   C863      1.0  0.83542  0.76804  0.00332  1.0000
  C   C864      1.0  0.74370  0.97787  0.15216  1.0000
  H   H690      1.0  0.82195  0.74617  0.00568  1.0000
  C   C865      1.0  0.56989  0.94888  0.01389  1.0000
  C   C866      1.0  0.69862  0.66364  0.28912  1.0000
  H   H691      1.0  0.52118  0.98575  0.99596  1.0000
  C   C867      1.0  0.85718  0.98806  0.08095  1.0000
  C   C868      1.0  0.65977  0.98836  0.11675  1.0000
  S   S115      1.0  0.55962  0.65984  0.45628  1.0000
  C   C869      1.0  0.66667  0.86395  0.99026  1.0000
  H   H692      1.0  0.48078  0.96914  0.36542  1.0000
  C   C870      1.0  0.47957  0.92748  0.39644  1.0000
  Fe  Fe59      1.0  0.56424  0.91927  0.71147  1.0000
  S   S116      1.0  0.59525  0.87401  0.71234  1.0000
  S   S117      1.0  0.54818  0.93616  0.76696  1.0000
  Fe  Fe60      1.0  0.56696  0.93710  0.62464  1.0000
  S   S118      1.0  0.60007  0.89280  0.62210  1.0000
  S   S119      1.0  0.55807  0.97398  0.57376  1.0000
  Fe  Fe61      1.0  0.54733  0.87244  0.64083  1.0000
  H   H693      1.0  0.78464  0.93563  0.63334  1.0000
  Fe  Fe62      1.0  0.64626  0.89774  0.69387  1.0000
  S   S120      1.0  0.72048  0.87760  0.72242  1.0000
  S   S121      1.0  0.61787  0.94360  0.69605  1.0000
  S   S122      1.0  0.94164  0.85814  0.94758  1.0000
  S   S123      1.0  0.92542  0.91707  0.86052  1.0000
  C   C871      1.0  0.67566  0.97710  0.92616  1.0000
  C   C872      1.0  0.76275  0.70597  0.64906  1.0000
  C   C873      1.0  0.70238  0.68578  0.58197  1.0000
  C   C874      1.0  0.67816  0.93331  0.88534  1.0000
  C   C875      1.0  0.56235  0.79395  0.53504  1.0000
  C   C876      1.0  0.55278  0.81367  0.56199  1.0000
  H   H694      1.0  0.92949  0.82291  0.82326  1.0000
  S   S124      1.0  0.52146  0.66636  0.53058  1.0000
  S   S125      1.0  0.96579  0.77524  0.94255  1.0000
  H   H695      1.0  0.56908  0.83553  0.56932  1.0000
  C   C877      1.0  0.77402  0.88950  0.76624  1.0000
  C   C878      1.0  0.80778  0.86778  0.79029  1.0000
  C   C879      1.0  0.85338  0.87607  0.82095  1.0000
  C   C880      1.0  0.86631  0.90623  0.82699  1.0000
  C   C881      1.0  0.83220  0.92810  0.80416  1.0000
  C   C882      1.0  0.78598  0.91979  0.77442  1.0000
  H   H696      1.0  0.79902  0.84430  0.78475  1.0000
  H   H697      1.0  0.87900  0.85905  0.83880  1.0000
  H   H698      1.0  0.84175  0.95153  0.80893  1.0000
  H   H699      1.0  0.76039  0.93673  0.75627  1.0000
  C   C883      1.0  0.53725  0.91506  0.80569  1.0000
  C   C884      1.0  0.53316  0.86806  0.83991  1.0000
  C   C885      1.0  0.54171  0.88387  0.80864  1.0000
  H   H700      1.0  0.94258  0.87474  0.80626  1.0000
  H   H701      1.0  0.55153  0.87187  0.78663  1.0000
  C   C886      1.0  0.54102  0.76562  0.52463  1.0000
  H   H702      1.0  0.77727  0.97534  0.91467  1.0000
  H   H703      1.0  0.53644  0.84392  0.84147  1.0000
  C   C887      1.0  0.86674  0.93489  0.96541  1.0000
  C   C888      1.0  0.82076  0.92916  0.65431  1.0000
  H   H704      1.0  0.58969  0.98946  0.85229  1.0000
  H   H705      1.0  0.73981  0.92932  0.87419  1.0000
  C   C889      1.0  0.72712  0.98793  0.67959  1.0000
  C   C890      1.0  0.74795  0.68452  0.61605  1.0000
  H   H706      1.0  0.89733  0.92412  0.76131  1.0000
  H   H707      1.0  0.86787  0.98836  0.57726  1.0000
  C   C891      1.0  0.73176  0.72870  0.64851  1.0000
  C   C892      1.0  0.68635  0.73022  0.61351  1.0000
  P   P30       1.0  0.75026  0.75584  0.69204  1.0000
  C   C893      1.0  0.78665  0.73813  0.74348  1.0000
  C   C894      1.0  0.78440  0.78541  0.68364  1.0000
  C   C895      1.0  0.81306  0.77934  0.66310  1.0000
  C   C896      1.0  0.84123  0.80190  0.65860  1.0000
  C   C897      1.0  0.84110  0.83063  0.67463  1.0000
  C   C898      1.0  0.81293  0.83682  0.69530  1.0000
  C   C899      1.0  0.78494  0.81429  0.70003  1.0000
  C   C900      1.0  0.82076  0.75486  0.77764  1.0000
  C   C901      1.0  0.84933  0.74113  0.81725  1.0000
  C   C902      1.0  0.84408  0.71064  0.82307  1.0000
  C   C903      1.0  0.84975  0.91834  0.63656  1.0000
  C   C904      1.0  0.78096  0.70761  0.75002  1.0000
  C   C905      1.0  0.69807  0.77041  0.69419  1.0000
  C   C906      1.0  0.60032  0.90854  0.52797  1.0000
  H   H708      1.0  0.69533  0.73569  0.73697  1.0000
  H   H709      1.0  0.49357  0.73523  0.53388  1.0000
  C   C907      1.0  0.67173  0.70872  0.58057  1.0000
  C   C908      1.0  0.51030  0.75698  0.54173  1.0000
  H   H710      1.0  0.66173  0.74765  0.61159  1.0000
  H   H711      1.0  0.81410  0.75718  0.65090  1.0000
  H   H712      1.0  0.86332  0.79703  0.64281  1.0000
  H   H713      1.0  0.86293  0.84808  0.67125  1.0000
  H   H714      1.0  0.81272  0.85909  0.70780  1.0000
  H   H715      1.0  0.76393  0.81945  0.71674  1.0000
  H   H716      1.0  0.82566  0.77846  0.77387  1.0000
  H   H717      1.0  0.87603  0.75401  0.84336  1.0000
  C   C909      1.0  0.68778  0.85746  0.93143  1.0000
  C   C910      1.0  0.60818  0.77739  0.96607  1.0000
  H   H718      1.0  0.69057  0.66876  0.55692  1.0000
  H   H719      1.0  0.91759  0.90050  0.64940  1.0000
  C   C911      1.0  0.97548  0.75054  0.90749  1.0000
  H   H720      1.0  0.58157  0.82004  0.97408  1.0000
  C   C912      1.0  0.57252  0.99142  0.97153  1.0000
  H   H721      1.0  0.61248  0.92811  0.54868  1.0000
  H   H722      1.0  0.62057  0.94353  0.89976  1.0000
  C   C913      1.0  0.67891  0.75566  0.71869  1.0000
  C   C914      1.0  0.83810  0.93112  0.69923  1.0000
  C   C915      1.0  0.80989  0.69393  0.78953  1.0000
  H   H723      1.0  0.95978  0.67682  0.87766  1.0000
  P   P31       1.0  0.78084  0.84777  0.94376  1.0000
  H   H724      1.0  0.64165  0.73516  0.96763  1.0000
  C   C916      1.0  0.89616  0.90967  0.66374  1.0000
  H   H725      1.0  0.66086  0.91363  0.86655  1.0000
  C   C917      1.0  0.73510  0.85230  0.96126  1.0000
  H   H726      1.0  0.95507  0.98875  0.61742  1.0000
  C   C918      1.0  0.82756  0.89220  0.92051  1.0000
  C   C919      1.0  0.85438  0.91828  0.92766  1.0000
  H   H727      1.0  0.61738  0.86708  0.92283  1.0000
  H   H728      1.0  0.52056  0.95421  0.83286  1.0000
  C   C920      1.0  0.96543  0.86190  0.75806  1.0000
  C   C921      1.0  0.75700  0.83641  0.88743  1.0000
  C   C922      1.0  0.72777  0.85611  0.85477  1.0000
  C   C923      1.0  0.70985  0.84812  0.81121  1.0000
  C   C924      1.0  0.72181  0.82066  0.79955  1.0000
  C   C925      1.0  0.75180  0.80107  0.83161  1.0000
  C   C926      1.0  0.76954  0.80891  0.87540  1.0000
  H   H729      1.0  0.77153  0.66650  0.61747  1.0000
  H   H730      1.0  0.58343  0.77574  0.93202  1.0000
  H   H731      1.0  0.86674  0.69985  0.85346  1.0000
  C   C927      1.0  0.81186  0.88291  0.95083  1.0000
  H   H732      1.0  0.67637  0.85684  0.89694  1.0000
  H   H733      1.0  0.83609  0.91639  0.60170  1.0000
  C   C928      1.0  0.82138  0.81939  0.97721  1.0000
  H   H734      1.0  0.66055  0.94157  0.98760  1.0000
  H   H735      1.0  0.82065  0.87898  0.89198  1.0000
  H   H736      1.0  0.86729  0.92502  0.90477  1.0000
  C   C929      1.0  0.52179  0.80512  0.57888  1.0000
  C   C930      1.0  0.72228  0.94219  0.88939  1.0000
  H   H737      1.0  0.63634  0.70972  0.55411  1.0000
  H   H738      1.0  0.71918  0.87786  0.86288  1.0000
  H   H739      1.0  0.68759  0.86361  0.78631  1.0000
  H   H740      1.0  0.70875  0.81508  0.76557  1.0000
  H   H741      1.0  0.76183  0.78000  0.82248  1.0000
  H   H742      1.0  0.79369  0.79363  0.89935  1.0000
  H   H743      1.0  0.97824  0.94355  0.68319  1.0000
  H   H744      1.0  0.94691  0.71267  0.92651  1.0000
  H   H745      1.0  0.97647  0.96503  0.75160  1.0000
  H   H746      1.0  0.89155  0.98360  0.75237  1.0000
  C   C931      1.0  0.52436  0.93013  0.83479  1.0000
  C   C932      1.0  0.63252  0.88705  0.52828  1.0000
  C   C933      1.0  0.74331  0.96832  0.91200  1.0000
  C   C934      1.0  0.94831  0.80302  0.77630  1.0000
  C   C935      1.0  0.94928  0.85638  0.78927  1.0000
  C   C936      1.0  0.65386  0.86328  0.94597  1.0000
  S   S126      1.0  0.50987  0.86128  0.90749  1.0000
  C   C937      1.0  0.88465  0.92284  0.72649  1.0000
  C   C938      1.0  0.51600  0.91429  0.86626  1.0000
  C   C939      1.0  0.65518  0.95048  0.90405  1.0000
  C   C940      1.0  0.62973  0.95133  0.98850  1.0000
  H   H747      1.0  0.80623  0.67017  0.79385  1.0000
  C   C941      1.0  0.94129  0.82705  0.79867  1.0000
  C   C942      1.0  0.71989  0.98593  0.92985  1.0000
  S   S127      1.0  0.50732  0.82939  0.61182  1.0000
  H   H748      1.0  0.79805  0.70433  0.67546  1.0000
  H   H749      1.0  0.65839  0.98837  0.62458  1.0000
  H   H750      1.0  0.58299  0.80011  0.69529  1.0000
  H   H751      1.0  0.62271  0.75485  0.73785  1.0000
  C   C943      1.0  0.67477  0.79566  0.66963  1.0000
  C   C944      1.0  0.96241  0.72039  0.90601  1.0000
  C   C945      1.0  0.91436  0.91270  0.70891  1.0000
  C   C946      1.0  0.63763  0.76638  0.71922  1.0000
  H   H752      1.0  0.88963  0.95410  0.97179  1.0000
  Fe  Fe63      1.0  0.97395  0.88620  0.91471  1.0000
  H   H753      1.0  0.66981  0.88987  0.54939  1.0000
  C   C947      1.0  0.61524  0.79185  0.69532  1.0000
  C   C948      1.0  0.63400  0.80652  0.67080  1.0000
  H   H754      1.0  0.75463  0.69412  0.72460  1.0000
  C   C949      1.0  0.64100  0.75460  0.98617  1.0000
  C   C950      1.0  0.52003  0.88302  0.86884  1.0000
  H   H755      1.0  0.76642  0.78742  0.96809  1.0000
  S   S128      1.0  0.51143  0.91631  0.64048  1.0000
  C   C951      1.0  0.96302  0.80831  0.74428  1.0000
  H   H756      1.0  0.68772  0.80695  0.64928  1.0000
  H   H757      1.0  0.61649  0.82620  0.65222  1.0000
  H   H758      1.0  0.81521  0.93869  0.71294  1.0000
  C   C952      1.0  0.55205  0.90454  0.50179  1.0000
  C   C953      1.0  0.80410  0.79143  0.98218  1.0000
  C   C954      1.0  0.82404  0.90003  0.98853  1.0000
  H   H759      1.0  0.58627  0.80068  0.52207  1.0000
  P   P32       1.0  0.97315  0.89999  0.74452  1.0000
  C   C955      1.0  0.61197  0.97913  0.96889  1.0000
  C   C956      1.0  0.51804  0.98546  0.51935  1.0000
  H   H760      1.0  0.94184  0.78030  0.78347  1.0000
  C   C957      1.0  0.50071  0.77668  0.56866  1.0000
  C   C958      1.0  0.96951  0.70009  0.87831  1.0000
  H   H761      1.0  0.50602  0.92624  0.88821  1.0000
  H   H762      1.0  0.71677  0.97201  0.69748  1.0000
  H   H763      1.0  0.64134  0.84498  0.50223  1.0000
  C   C959      1.0  0.61646  0.86182  0.50170  1.0000
  H   H764      1.0  0.93028  0.97637  0.83168  1.0000
  H   H765      1.0  0.88760  0.66536  0.51731  1.0000
  Fe  Fe64      1.0  0.48250  0.86710  0.95884  1.0000
  H   H766      1.0  0.52764  0.92109  0.50279  1.0000
  H   H767      1.0  0.48863  0.86427  0.52822  1.0000
  H   H768      1.0  0.96779  0.78960  0.72658  1.0000
  C   C960      1.0  0.97094  0.83764  0.73473  1.0000
