data_image0
_chemical_formula_structural       FeS2FeS2FeSFeS3HC2FeS2CH2FeS2HFeS3HCH2C6H4C6H4FeC2HC2H2C2HCH2C3H2C2HCHCHC3H2C3HCHCSCHCHC2HCH3C3HCHC2HC3H3C2HCH3C3SH2CPHC2H4C2H4C4HC3H3PC2HCH3C2H2CH2C2PHC5HCFeCHC3HCHFeH5C2HCHC2H2C2PC7H2CH2C4H2C5H2C3SCSCHSH2CFeS2FeS2FeS2FeSFeS3FeS2HC7HC2H2C6H4C3HC2H2CH2C2H3C2H3CHC4SH3C4SH3C4HPHC6PC8H7CH2C2H3CH2C2H2C4H2CH6CHSCHCFe2CH3CH2CHC4SH4C6PC2HC3HC8H7C2H6C7PC18HCH18C2HC3PC18H2CH10C4H3C3HCH2CH3SHCH2CH2CHC2H2CH6FeS2FeS2FeSFeS3FeS2FeS2FeSFeCS2CFeCSCH2C5HCPC9H4C6H2CHC6H4C6H4C5HCHC6PC18H17CH4CHCHC4HC3HCH2FeH4C2H2C2HCSHC2H3C3SHFeCH2CSH2C3HCHCHCSC2HC5HCHSHSCH2C3HFeC2H5SHCH4SC2SCHCHC3HCHFeHCHCH2C5H2CHC11H2CH2C3H5C3HCH2CPHCH3C2H2PHSH4CH2CFeCH2SHCH7C2HC5HCPH2CH2FeS2H2CHFeSHSFeS2FeS2FeSFeS3H2CHSCHSC6H5C3H2CHCHFeC2HCH5C6H4CH7CH2CH6C4HC6PHC2HC3HCH2C2HC2FeCH5C6H2CSH2CHCHC2H3C4HC3HC3HC7PC18H14C2H5CH3CSC5SCH2CFeSHFeSCFeSFeSCSFeSFeS2FeHFeS3Fe2S2FeCFeS3C6H4C6H4C2H2C3HC9H4C2HCHC2H2SCH2CH2CHC2H4CH2C3H3C2H2C2HCH2C3SHCHCH3C5HC2H5C2HCH3CSC2HCPC2H2CHCHC6HC5HC7HCH4CPCPH2C2H2C6H3CHCH8C3H3SH9CHSC6PC18H7CHSH2CH2CH3C2H3CHCH4CFeS2FeS2FeSFeS3FeS2FeS2FeSFeS4CFeSC2HC2HC2HC6H4C4H2C2HCH2CH2CHC6H4C3HCH6CH2C3HCHPC9H2C2HCH5C4HPHCH2PHC2H2C8FePCHPCH4C2HFeSHCH7C3H3CSC2HCSHCPHC2PC13H3CH10CH4CPHC4HC11SH4C3H7C6PC15H17C3HC4PHCH4C2HC3HCHCHCFeH5C2HCHC5HC2HC3H2C4HCHC3H2CHCHC4HC2HCH4CH2C6HCHC4HCHCH2C3H2C2H2C4HC2HC2H2C4HC2HPHC6HCH2CHCHCH2C2HCS2HCH2C2H7C7H2C2SC2PCHCHCH4C2HC5FeSHFeS2FeSFeS3FeS2FeS2FeSFeS3HSHC4HC6H4CHC2HC6H4C4HCHCHCH2C6H4C6H4C3PC13H7CH3C6PC10HC8H10C3H6C7H4CH2C3H2CHC7FeHC3H2C5H2C5SC6PC9SH2C6H12CH7C6PH2CHC3H3C4H2CSH6CHCH3C2H2C2SCH2C3H2C3HC2PCH2PC2HFeC7H9SCH6CSHC2H2CH2C2H4C2HCHCHC3HC2H5CH3CHCHCHCHCHC4H2CH2CH2FeHCHC3HCHC3H2CH3FeS2FeSCSFeS2HSFeSFeHCFeS2FeS2FeSFeS3FeS2FeS2C6H4C6H4C6H4C5H5C7H4FeH2CH3CH2C2HCHCHCH2CH2C5HSH2CHC3HC5HC2HCHC3H3CH2CH4C2H2C4H3C3HCFeCSPHC6HCH3PH2CHCH3CHC3HCHC4H3PCH2CHCHC2H2CH3CSH2C2HC2HC2H3CHC2HC2H2CH4CHCSC3HC3HC2SHC3H2CSHCHC2H4C2H2C2H2C3HC6PC18H2FeH2CHSH2CHPCHC4HCH2C2H3CHCFeS2FeSHFeSFeS3FeS2FeS2FeHFeS3H3SH6C6H4C5H2C8H2C6H4C2HC3HCH2CHPH3CH2CH2CHCH2C2HC3H2PC13HC2HCH3C3HCH7C3H2C4HC3HC7HCH2C2H2CHCH6C2HCH2CHC6PC8H2C2H2C2HC2H2CHC3HCH4CHCFeS2FeS2FeSFeS3FeS2FeS2FeSFeS4C2HSCH2C3H2C2PHC7HCH2C6H4C6H4C2PH5C2HC2HC6HPCHCPCH2C8HCH7C4H9C6SC2HC3H6FeH5C6H2CH2C5HC8H3C7PCPH2C8H4CHC3H6SHCHSH4CHCSCHC2HCHC2PC2HC2H3C5PC2HCHCH2CH6C3H3CH2C3HCH2C2H2CHC2HCHC10HCH4FeHC3HCHCH4C4HCHCH3C5SHC2HCHC4H3C3H2CHCH2C2PC2H4CH2CHC5H3CH3CHC4H2CHC2HC3HCFeS2FeS2FeSFeS3FeS2FeS2FeCFeS3FeSFeS2FeSFeS3H2SC10H3CH2C6H4C3HC6H4C5HC8H4C2HSCHCHPHCHCHC7H4CH5CH2C3PC3HCPC10HSHCHCH3C2H7CH3CHCH2CH2CH2C4H2CHPCH3C2H5CHC2H2C3HCHC2HCH2C6H2CHCHC3H5C2H3CHCHC2H3CHC7PC2HCH2C8H2FeCSHCH2CH2CH7CH2C2H2C6PC5HC9H2C3HCH6C3H2C3H2C5HCPH4CHC2FeS2H2C2FeC2SFeSHFeS2FeSFeS3HCFeS2FeSH2SH3C2H2CHC6HCH2C6H4C5H3C6PC16H11CHCHCHC2HCH3C2HC4HC2HC2HCH2C2H2C4HPH2C3H3CHSHCHCH2CHCH2CH2CHCHC3HCH3CHC2HC5HC3H2C3HC
_chemical_formula_sum              "Fe128 S256 H1536 C1920 P64"
_cell_length_a       56.2974
_cell_length_b       55.1611
_cell_length_c       26.8003
_cell_angle_alpha    90.0466
_cell_angle_beta     90.2145
_cell_angle_gamma    88.9455

_space_group_name_H-M_alt    "P 1"
_space_group_IT_number       1

loop_
  _space_group_symop_operation_xyz
  'x, y, z'

loop_
  _atom_site_type_symbol
  _atom_site_label
  _atom_site_symmetry_multiplicity
  _atom_site_fract_x
  _atom_site_fract_y
  _atom_site_fract_z
  _atom_site_occupancy
  Fe  Fe1       1.0  0.08894  0.14307  0.69649  1.0000
  S   S1        1.0  0.08478  0.15178  0.77876  1.0000
  S   S2        1.0  0.09556  0.16544  0.62526  1.0000
  Fe  Fe2       1.0  0.08287  0.08854  0.71545  1.0000
  S   S3        1.0  0.07759  0.09305  0.79787  1.0000
  S   S4        1.0  0.07954  0.05291  0.67424  1.0000
  Fe  Fe3       1.0  0.05463  0.12529  0.77599  1.0000
  S   S5        1.0  0.01883  0.12906  0.81430  1.0000
  Fe  Fe4       1.0  0.10822  0.11859  0.79540  1.0000
  S   S6        1.0  0.14042  0.11823  0.85007  1.0000
  S   S7        1.0  0.05747  0.11859  0.69393  1.0000
  S   S8        1.0  0.11481  0.11215  0.71315  1.0000
  H   H1        1.0  0.20690  0.01132  0.30019  1.0000
  C   C1        1.0  0.00534  0.06376  0.72010  1.0000
  C   C2        1.0  0.08509  0.21304  0.90049  1.0000
  Fe  Fe5       1.0  0.21289  0.05080  0.09410  1.0000
  S   S9        1.0  0.18013  0.06004  0.04374  1.0000
  S   S10       1.0  0.21035  0.04668  0.17849  1.0000
  C   C3        1.0  0.03087  0.20192  0.71303  1.0000
  H   H2        1.0  0.17154  0.15333  0.79426  1.0000
  H   H3        1.0  0.14030  0.03409  0.50799  1.0000
  Fe  Fe6       1.0  0.03574  0.25503  0.33291  1.0000
  S   S11       1.0  0.01503  0.25444  0.40379  1.0000
  S   S12       1.0  0.03798  0.22205  0.28359  1.0000
  H   H4        1.0  0.04264  0.18958  0.69293  1.0000
  Fe  Fe7       1.0  0.04637  0.27303  0.43740  1.0000
  S   S13       1.0  0.05676  0.26316  0.51861  1.0000
  S   S14       1.0  0.02003  0.29019  0.30605  1.0000
  S   S15       1.0  0.06838  0.27163  0.36681  1.0000
  H   H5        1.0  0.02372  0.04757  0.81809  1.0000
  C   C4        1.0  0.01252  0.21483  0.79033  1.0000
  H   H6        1.0  0.09757  0.11203  0.95667  1.0000
  H   H7        1.0  0.12849  0.17766  0.84806  1.0000
  C   C5        1.0  0.08311  0.19216  0.59658  1.0000
  C   C6        1.0  0.07648  0.21274  0.62420  1.0000
  C   C7        1.0  0.06850  0.23412  0.59973  1.0000
  C   C8        1.0  0.06656  0.23530  0.54727  1.0000
  C   C9        1.0  0.07294  0.21463  0.51965  1.0000
  C   C10       1.0  0.08145  0.19340  0.54409  1.0000
  H   H8        1.0  0.07842  0.21254  0.66434  1.0000
  H   H9        1.0  0.06428  0.25001  0.62174  1.0000
  H   H10       1.0  0.07184  0.21516  0.47934  1.0000
  H   H11       1.0  0.08684  0.17782  0.52207  1.0000
  C   C11       1.0  0.17013  0.07556  0.98805  1.0000
  C   C12       1.0  0.18371  0.09293  0.96351  1.0000
  C   C13       1.0  0.17438  0.10558  0.92148  1.0000
  C   C14       1.0  0.15147  0.10093  0.90254  1.0000
  C   C15       1.0  0.13816  0.08310  0.92623  1.0000
  C   C16       1.0  0.14730  0.07078  0.96880  1.0000
  H   H12       1.0  0.20118  0.09707  0.97767  1.0000
  H   H13       1.0  0.18497  0.11924  0.90368  1.0000
  H   H14       1.0  0.12068  0.07896  0.91212  1.0000
  H   H15       1.0  0.13653  0.05744  0.98714  1.0000
  Fe  Fe8       1.0  0.05108  0.30745  0.34431  1.0000
  C   C17       1.0  0.02756  0.19891  0.76429  1.0000
  C   C18       1.0  0.07296  0.17479  0.05546  1.0000
  H   H16       1.0  0.12097  0.15332  0.92289  1.0000
  C   C19       1.0  0.10027  0.03003  0.69069  1.0000
  C   C20       1.0  0.10082  0.00806  0.66418  1.0000
  H   H17       1.0  0.00436  0.31654  0.09449  1.0000
  H   H18       1.0  0.99980  0.20267  0.98960  1.0000
  C   C21       1.0  0.13337  0.01543  0.74111  1.0000
  C   C22       1.0  0.11665  0.03370  0.72908  1.0000
  H   H19       1.0  0.08811  0.00514  0.63451  1.0000
  C   C23       1.0  0.02989  0.12483  0.94451  1.0000
  H   H20       1.0  0.14558  0.01832  0.77144  1.0000
  H   H21       1.0  0.11634  0.05058  0.74971  1.0000
  C   C24       1.0  0.01114  0.20733  0.27099  1.0000
  C   C25       1.0  0.01231  0.18407  0.25031  1.0000
  C   C26       1.0  0.22952  0.03892  0.32821  1.0000
  H   H22       1.0  0.02944  0.17542  0.24388  1.0000
  H   H23       1.0  0.21468  0.01507  0.46038  1.0000
  C   C27       1.0  0.16162  0.01312  0.45625  1.0000
  C   C28       1.0  0.02670  0.28439  0.63482  1.0000
  H   H24       1.0  0.03615  0.15796  0.98406  1.0000
  C   C29       1.0  0.04408  0.14122  0.97039  1.0000
  H   H25       1.0  0.05039  0.14507  0.07631  1.0000
  C   C30       1.0  0.13329  0.99595  0.51366  1.0000
  H   H26       1.0  0.10554  0.21587  0.83288  1.0000
  C   C31       1.0  0.16148  0.06110  0.65857  1.0000
  C   C32       1.0  0.08021  0.19819  0.06857  1.0000
  C   C33       1.0  0.08077  0.19927  0.94326  1.0000
  H   H27       1.0  0.13694  0.17429  0.01025  1.0000
  H   H28       1.0  0.03718  0.99225  0.58076  1.0000
  C   C34       1.0  0.00074  0.23378  0.76518  1.0000
  C   C35       1.0  0.11402  0.14461  0.02962  1.0000
  C   C36       1.0  0.00772  0.16569  0.59449  1.0000
  H   H29       1.0  0.14009  0.00702  0.24069  1.0000
  C   C37       1.0  0.06432  0.09895  0.92987  1.0000
  H   H30       1.0  0.02501  0.27152  0.60453  1.0000
  C   C38       1.0  0.21844  0.02185  0.42336  1.0000
  S   S16       1.0  0.22904  0.01315  0.08441  1.0000
  C   C39       1.0  0.23413  0.04106  0.41787  1.0000
  H   H31       1.0  0.16663  0.00618  0.59558  1.0000
  C   C40       1.0  0.22715  0.11544  0.75501  1.0000
  H   H32       1.0  0.23714  0.07355  0.92450  1.0000
  C   C41       1.0  0.13383  0.11074  0.07144  1.0000
  C   C42       1.0  0.01543  0.29961  0.71629  1.0000
  H   H33       1.0  0.16270  0.01633  0.31727  1.0000
  C   C43       1.0  0.23957  0.04966  0.37029  1.0000
  H   H34       1.0  0.00997  0.21237  0.83002  1.0000
  H   H35       1.0  0.17215  0.04878  0.87563  1.0000
  H   H36       1.0  0.99882  0.12770  0.34296  1.0000
  C   C44       1.0  0.03180  0.26426  0.18149  1.0000
  C   C45       1.0  0.05568  0.26772  0.19362  1.0000
  C   C46       1.0  0.15248  0.10515  0.60975  1.0000
  H   H37       1.0  0.21185  0.16812  0.81418  1.0000
  C   C47       1.0  0.03891  0.27940  0.09817  1.0000
  H   H38       1.0  0.00627  0.10179  0.70235  1.0000
  C   C48       1.0  0.13583  0.15650  0.02699  1.0000
  C   C49       1.0  0.14249  0.06336  0.62496  1.0000
  H   H39       1.0  0.07476  0.29049  0.08325  1.0000
  C   C50       1.0  0.06275  0.28304  0.11054  1.0000
  C   C51       1.0  0.18500  0.00016  0.59214  1.0000
  C   C52       1.0  0.15657  0.14523  0.04524  1.0000
  H   H40       1.0  0.09633  0.11276  0.05719  1.0000
  H   H41       1.0  0.02193  0.22296  0.64805  1.0000
  H   H42       1.0  0.12248  0.08742  0.57667  1.0000
  C   C53       1.0  0.03364  0.31651  0.71402  1.0000
  C   C54       1.0  0.14792  0.99242  0.26261  1.0000
  H   H43       1.0  0.03289  0.28356  0.06070  1.0000
  C   C55       1.0  0.13417  0.99355  0.71443  1.0000
  H   H44       1.0  0.00118  0.24477  0.02086  1.0000
  H   H45       1.0  0.02018  0.25657  0.20920  1.0000
  H   H46       1.0  0.06219  0.26298  0.23059  1.0000
  C   C56       1.0  0.06954  0.21041  0.10870  1.0000
  C   C57       1.0  0.11304  0.12198  0.05344  1.0000
  C   C58       1.0  0.17166  0.10290  0.64287  1.0000
  S   S17       1.0  0.03151  0.31056  0.41845  1.0000
  H   H47       1.0  0.17348  0.15414  0.04200  1.0000
  H   H48       1.0  0.23220  0.05306  0.84287  1.0000
  C   C59       1.0  0.10245  0.20543  0.86642  1.0000
  P   P1        1.0  0.99219  0.26627  0.11890  1.0000
  H   H49       1.0  0.17171  0.11326  0.08023  1.0000
  C   C60       1.0  0.20781  0.01137  0.38122  1.0000
  C   C61       1.0  0.15559  0.12229  0.06709  1.0000
  H   H50       1.0  0.13080  0.04826  0.61878  1.0000
  H   H51       1.0  0.17964  0.08027  0.81336  1.0000
  H   H52       1.0  0.23395  0.04542  0.29125  1.0000
  H   H53       1.0  0.16660  0.11473  0.74999  1.0000
  C   C62       1.0  0.17616  0.08091  0.66801  1.0000
  C   C63       1.0  0.01917  0.18274  0.56507  1.0000
  H   H54       1.0  0.13326  0.09282  0.08798  1.0000
  H   H55       1.0  0.14844  0.12244  0.59204  1.0000
  H   H56       1.0  0.16983  0.02901  0.44080  1.0000
  H   H57       1.0  0.01369  0.16251  0.63240  1.0000
  C   C64       1.0  0.05190  0.19925  0.13656  1.0000
  C   C65       1.0  0.04500  0.17575  0.12448  1.0000
  C   C66       1.0  0.01162  0.18698  0.51614  1.0000
  C   C67       1.0  0.07721  0.01793  0.81988  1.0000
  H   H58       1.0  0.00469  0.29870  0.74965  1.0000
  C   C68       1.0  0.01895  0.22068  0.68768  1.0000
  C   C69       1.0  0.07110  0.27728  0.15831  1.0000
  C   C70       1.0  0.07858  0.11540  0.95519  1.0000
  H   H59       1.0  0.04390  0.20862  0.16816  1.0000
  H   H60       1.0  0.18261  0.11852  0.64951  1.0000
  H   H61       1.0  0.19827  0.99411  0.77456  1.0000
  P   P2        1.0  0.00360  0.01446  0.74455  1.0000
  C   C71       1.0  0.01144  0.28381  0.67609  1.0000
  C   C72       1.0  0.21386  0.01974  0.33353  1.0000
  H   H62       1.0  0.99270  0.15389  0.22210  1.0000
  C   C73       1.0  0.22703  0.00862  0.59518  1.0000
  H   H63       1.0  0.09453  0.01876  0.83749  1.0000
  H   H64       1.0  0.02042  0.20050  0.49370  1.0000
  H   H65       1.0  0.18146  0.00562  0.85684  1.0000
  C   C74       1.0  0.06848  0.13639  0.97660  1.0000
  C   C75       1.0  0.11547  0.18403  0.87504  1.0000
  H   H66       1.0  0.02910  0.09145  0.90285  1.0000
  H   H67       1.0  0.19917  0.03559  0.60466  1.0000
  C   C76       1.0  0.05557  0.16348  0.08430  1.0000
  H   H68       1.0  0.03164  0.16698  0.14680  1.0000
  H   H69       1.0  0.07234  0.08296  0.91308  1.0000
  C   C77       1.0  0.02308  0.27070  0.13413  1.0000
  C   C78       1.0  0.03279  0.01650  0.77210  1.0000
  P   P3        1.0  0.08730  0.15872  0.00475  1.0000
  H   H70       1.0  0.07474  0.22942  0.89328  1.0000
  C   C79       1.0  0.13784  0.08541  0.60098  1.0000
  C   C80       1.0  0.00347  0.23651  0.71341  1.0000
  C   C81       1.0  0.03732  0.03429  0.80819  1.0000
  C   C82       1.0  0.05948  0.03500  0.83185  1.0000
  C   C83       1.0  0.16096  0.99763  0.30575  1.0000
  H   H71       1.0  0.12027  0.99822  0.54314  1.0000
  C   C84       1.0  0.14471  0.01611  0.49407  1.0000
  Fe  Fe9       1.0  0.22873  0.01057  0.16824  1.0000
  C   C85       1.0  0.99265  0.17403  0.49639  1.0000
  H   H72       1.0  0.09428  0.20688  0.04820  1.0000
  C   C86       1.0  0.00460  0.99733  0.68737  1.0000
  C   C87       1.0  0.11124  0.17028  0.91774  1.0000
  C   C88       1.0  0.99358  0.15127  0.73746  1.0000
  H   H73       1.0  0.07523  0.22840  0.11887  1.0000
  C   C89       1.0  0.09414  0.17799  0.95261  1.0000
  H   H74       1.0  0.03380  0.19282  0.58030  1.0000
  Fe  Fe10      1.0  0.00161  0.29139  0.38027  1.0000
  H   H75       1.0  0.05652  0.30148  0.60042  1.0000
  H   H76       1.0  0.06298  0.04888  0.85925  1.0000
  H   H77       1.0  0.08956  0.28015  0.16797  1.0000
  H   H78       1.0  0.06670  0.20497  0.96828  1.0000
  H   H79       1.0  0.01122  0.12892  0.93814  1.0000
  C   C90       1.0  0.20335  0.01665  0.59781  1.0000
  C   C91       1.0  0.23043  0.07789  0.62883  1.0000
  H   H80       1.0  0.99519  0.29928  0.20454  1.0000
  C   C92       1.0  0.03999  0.10367  0.92440  1.0000
  H   H81       1.0  0.02443  0.06240  0.72521  1.0000
  C   C93       1.0  0.18714  0.14297  0.78272  1.0000
  C   C94       1.0  0.20983  0.15119  0.79419  1.0000
  H   H82       1.0  0.16425  0.04401  0.67767  1.0000
  H   H83       1.0  0.01059  0.15518  0.72126  1.0000
  C   C95       1.0  0.20436  0.10718  0.74291  1.0000
  C   C96       1.0  0.18439  0.12105  0.75738  1.0000
  P   P4        1.0  0.20052  0.07834  0.71207  1.0000
  C   C97       1.0  0.22750  0.07061  0.67863  1.0000
  C   C98       1.0  0.19432  0.05535  0.75807  1.0000
  C   C99       1.0  0.19932  0.03082  0.74761  1.0000
  C   C100      1.0  0.19497  0.01303  0.78336  1.0000
  C   C101      1.0  0.18533  0.01948  0.82959  1.0000
  C   C102      1.0  0.17993  0.04378  0.84001  1.0000
  C   C103      1.0  0.18430  0.06166  0.80440  1.0000
  H   H84       1.0  0.08967  0.31450  0.22658  1.0000
  H   H85       1.0  0.20611  0.02533  0.71153  1.0000
  C   C104      1.0  0.04486  0.30127  0.63262  1.0000
  H   H86       1.0  0.21641  0.08766  0.60925  1.0000
  H   H87       1.0  0.03645  0.18404  0.78372  1.0000
  C   C105      1.0  0.22983  0.13743  0.78035  1.0000
  C   C106      1.0  0.99653  0.23034  0.04617  1.0000
  C   C107      1.0  0.04828  0.31741  0.67207  1.0000
  C   C108      1.0  0.02235  0.00194  0.65212  1.0000
  H   H88       1.0  0.24106  0.02152  0.60017  1.0000
  H   H89       1.0  0.23933  0.00888  0.83548  1.0000
  C   C109      1.0  0.24069  0.05424  0.92104  1.0000
  C   C110      1.0  0.99588  0.20649  0.02839  1.0000
  C   C111      1.0  0.07262  0.99980  0.78494  1.0000
  C   C112      1.0  0.99515  0.08611  0.70637  1.0000
  C   C113      1.0  0.23785  0.04264  0.87512  1.0000
  H   H90       1.0  0.99610  0.13229  0.43439  1.0000
  H   H91       1.0  0.03564  0.01554  0.65939  1.0000
  C   C114      1.0  0.05045  0.99893  0.76142  1.0000
  C   C115      1.0  0.99269  0.13790  0.78171  1.0000
  C   C116      1.0  0.24186  0.01760  0.87114  1.0000
  S   S18       1.0  0.11511  0.64409  0.03179  1.0000
  C   C117      1.0  0.24031  0.62073  0.99322  1.0000
  S   S19       1.0  0.12923  0.62337  0.80872  1.0000
  C   C118      1.0  0.00515  0.63924  0.14271  1.0000
  H   H92       1.0  0.15927  0.64351  0.64328  1.0000
  S   S20       1.0  0.19221  0.64711  0.44144  1.0000
  H   H93       1.0  0.18506  0.62491  0.84240  1.0000
  H   H94       1.0  0.01411  0.49550  0.76667  1.0000
  C   C119      1.0  0.05402  0.63823  0.40113  1.0000
  Fe  Fe11      1.0  0.18269  0.62841  0.51278  1.0000
  S   S21       1.0  0.17195  0.58955  0.52022  1.0000
  S   S22       1.0  0.21250  0.64433  0.55701  1.0000
  Fe  Fe12      1.0  0.08735  0.43375  0.96859  1.0000
  S   S23       1.0  0.08480  0.43529  0.05195  1.0000
  S   S24       1.0  0.05488  0.43417  0.91798  1.0000
  Fe  Fe13      1.0  0.14229  0.43826  0.96651  1.0000
  S   S25       1.0  0.14350  0.43842  0.05156  1.0000
  S   S26       1.0  0.17627  0.45028  0.92377  1.0000
  Fe  Fe14      1.0  0.11573  0.40902  0.05139  1.0000
  S   S27       1.0  0.11451  0.37450  0.10068  1.0000
  Fe  Fe15      1.0  0.11231  0.46418  0.04653  1.0000
  S   S28       1.0  0.10783  0.49866  0.09126  1.0000
  S   S29       1.0  0.11739  0.40619  0.96652  1.0000
  S   S30       1.0  0.11192  0.46524  0.96324  1.0000
  Fe  Fe16      1.0  0.14032  0.61905  0.99142  1.0000
  S   S31       1.0  0.11270  0.60472  0.93988  1.0000
  S   S32       1.0  0.16498  0.59112  0.02617  1.0000
  H   H95       1.0  0.21070  0.54659  0.72800  1.0000
  C   C120      1.0  0.21435  0.59880  0.83770  1.0000
  C   C121      1.0  0.08948  0.54165  0.53419  1.0000
  C   C122      1.0  0.14342  0.64260  0.76606  1.0000
  C   C123      1.0  0.21062  0.64685  0.13090  1.0000
  C   C124      1.0  0.00671  0.61981  0.17608  1.0000
  C   C125      1.0  0.18925  0.45104  0.86218  1.0000
  C   C126      1.0  0.21035  0.46403  0.85474  1.0000
  H   H96       1.0  0.11541  0.42777  0.75707  1.0000
  C   C127      1.0  0.19139  0.43902  0.77416  1.0000
  C   C128      1.0  0.17967  0.43885  0.82101  1.0000
  H   H97       1.0  0.18391  0.42909  0.74321  1.0000
  H   H98       1.0  0.16350  0.42881  0.82550  1.0000
  C   C129      1.0  0.14879  0.56513  0.04112  1.0000
  C   C130      1.0  0.16008  0.54228  0.04186  1.0000
  C   C131      1.0  0.14745  0.52158  0.05582  1.0000
  C   C132      1.0  0.12356  0.52380  0.06965  1.0000
  C   C133      1.0  0.11232  0.54665  0.06869  1.0000
  C   C134      1.0  0.12478  0.56722  0.05385  1.0000
  H   H99       1.0  0.17850  0.54064  0.03110  1.0000
  H   H100      1.0  0.15613  0.50393  0.05631  1.0000
  H   H101      1.0  0.09384  0.54837  0.07904  1.0000
  H   H102      1.0  0.11590  0.58477  0.05309  1.0000
  C   C135      1.0  0.19698  0.57036  0.51791  1.0000
  C   C136      1.0  0.19946  0.55120  0.55191  1.0000
  C   C137      1.0  0.21962  0.53589  0.55046  1.0000
  H   H103      1.0  0.20118  0.45681  0.15261  1.0000
  C   C138      1.0  0.00888  0.35362  0.27378  1.0000
  C   C139      1.0  0.21463  0.57423  0.48244  1.0000
  H   H104      1.0  0.18613  0.54858  0.58021  1.0000
  H   H105      1.0  0.22157  0.52118  0.57691  1.0000
  C   C140      1.0  0.14528  0.48956  0.21966  1.0000
  H   H106      1.0  0.21291  0.58921  0.45658  1.0000
  H   H107      1.0  0.20318  0.54812  0.32414  1.0000
  C   C141      1.0  0.13016  0.48405  0.30341  1.0000
  C   C142      1.0  0.08603  0.51825  0.55260  1.0000
  H   H108      1.0  0.13823  0.45404  0.61473  1.0000
  H   H109      1.0  0.00748  0.63587  0.10313  1.0000
  H   H110      1.0  0.14059  0.57728  0.74611  1.0000
  C   C143      1.0  0.03730  0.62071  0.38956  1.0000
  C   C144      1.0  0.22205  0.46423  0.80791  1.0000
  H   H111      1.0  0.07629  0.55010  0.50997  1.0000
  H   H112      1.0  0.01005  0.44890  0.06052  1.0000
  H   H113      1.0  0.15538  0.49938  0.19230  1.0000
  C   C145      1.0  0.00019  0.43932  0.08876  1.0000
  H   H114      1.0  0.16534  0.54798  0.38946  1.0000
  C   C146      1.0  0.09936  0.34110  0.17082  1.0000
  C   C147      1.0  0.09943  0.36580  0.15696  1.0000
  C   C148      1.0  0.08849  0.38263  0.18917  1.0000
  C   C149      1.0  0.07841  0.37494  0.23485  1.0000
  S   S33       1.0  0.06753  0.34184  0.30933  1.0000
  H   H115      1.0  0.08833  0.40165  0.17948  1.0000
  H   H116      1.0  0.07063  0.38826  0.25982  1.0000
  H   H117      1.0  0.03150  0.42293  0.12169  1.0000
  C   C150      1.0  0.00670  0.39776  0.00048  1.0000
  C   C151      1.0  0.02780  0.40856  0.98473  1.0000
  C   C152      1.0  0.02875  0.41995  0.93825  1.0000
  C   C153      1.0  0.00846  0.42028  0.90746  1.0000
  S   S34       1.0  0.15290  0.64754  0.93825  1.0000
  H   H118      1.0  0.00612  0.38907  0.03662  1.0000
  H   H119      1.0  0.04333  0.40798  0.00855  1.0000
  H   H120      1.0  0.00911  0.42899  0.87137  1.0000
  C   C154      1.0  0.23026  0.60771  0.73843  1.0000
  C   C155      1.0  0.02513  0.61829  0.98223  1.0000
  C   C156      1.0  0.01955  0.63116  0.93868  1.0000
  C   C157      1.0  0.14437  0.49691  0.26993  1.0000
  H   H121      1.0  0.22413  0.56232  0.97599  1.0000
  P   P5        1.0  0.23341  0.61807  0.80184  1.0000
  H   H122      1.0  0.13297  0.46408  0.16459  1.0000
  C   C158      1.0  0.10158  0.56066  0.33954  1.0000
  C   C159      1.0  0.10886  0.57026  0.38526  1.0000
  C   C160      1.0  0.13183  0.56538  0.40298  1.0000
  C   C161      1.0  0.14768  0.55126  0.37467  1.0000
  C   C162      1.0  0.14053  0.54153  0.32856  1.0000
  C   C163      1.0  0.11726  0.54620  0.31147  1.0000
  P   P6        1.0  0.16063  0.52295  0.29147  1.0000
  C   C164      1.0  0.18581  0.51348  0.32951  1.0000
  C   C165      1.0  0.18722  0.49018  0.35067  1.0000
  C   C166      1.0  0.17141  0.53935  0.23795  1.0000
  C   C167      1.0  0.15769  0.55795  0.21569  1.0000
  C   C168      1.0  0.16514  0.56867  0.17126  1.0000
  C   C169      1.0  0.18637  0.56101  0.14892  1.0000
  C   C170      1.0  0.20032  0.54278  0.17116  1.0000
  C   C171      1.0  0.19280  0.53190  0.21531  1.0000
  H   H123      1.0  0.08371  0.56432  0.32601  1.0000
  H   H124      1.0  0.09674  0.58154  0.40693  1.0000
  H   H125      1.0  0.13752  0.57279  0.43855  1.0000
  H   H126      1.0  0.11121  0.53862  0.27640  1.0000
  H   H127      1.0  0.17367  0.47697  0.34371  1.0000
  H   H128      1.0  0.14095  0.56379  0.23154  1.0000
  H   H129      1.0  0.15408  0.58239  0.15308  1.0000
  C   C172      1.0  0.14580  0.63507  0.71630  1.0000
  H   H130      1.0  0.23289  0.63898  0.99118  1.0000
  H   H131      1.0  0.19159  0.56877  0.11358  1.0000
  C   C173      1.0  0.01228  0.42455  0.12309  1.0000
  C   C174      1.0  0.03866  0.60832  0.34417  1.0000
  H   H132      1.0  0.11293  0.57221  0.53255  1.0000
  H   H133      1.0  0.19138  0.61167  0.64070  1.0000
  H   H134      1.0  0.01156  0.59512  0.03981  1.0000
  C   C175      1.0  0.00362  0.62383  0.22717  1.0000
  H   H135      1.0  0.19622  0.62580  0.72775  1.0000
  H   H136      1.0  0.02161  0.35684  0.34930  1.0000
  C   C176      1.0  0.11002  0.55412  0.54693  1.0000
  C   C177      1.0  0.00743  0.60499  0.00591  1.0000
  H   H137      1.0  0.12444  0.54629  0.68942  1.0000
  H   H138      1.0  0.21658  0.53656  0.15346  1.0000
  C   C178      1.0  0.21036  0.62221  0.11875  1.0000
  C   C179      1.0  0.22403  0.50035  0.39222  1.0000
  C   C180      1.0  0.21638  0.46212  0.17486  1.0000
  C   C181      1.0  0.23545  0.57730  0.98540  1.0000
  H   H139      1.0  0.20427  0.46863  0.01967  1.0000
  H   H140      1.0  0.06252  0.33033  0.67037  1.0000
  C   C182      1.0  0.20705  0.60638  0.66197  1.0000
  H   H141      1.0  0.23420  0.65410  0.37565  1.0000
  H   H142      1.0  0.07016  0.50853  0.54247  1.0000
  H   H143      1.0  0.20032  0.50636  0.06965  1.0000
  H   H144      1.0  0.21789  0.47385  0.88563  1.0000
  H   H145      1.0  0.00955  0.39970  0.18364  1.0000
  H   H146      1.0  0.01371  0.47411  0.93265  1.0000
  C   C183      1.0  0.20988  0.61437  0.71108  1.0000
  H   H147      1.0  0.19505  0.51526  0.67220  1.0000
  S   S35       1.0  0.05374  0.61828  0.00924  1.0000
  C   C184      1.0  0.23689  0.47930  0.98497  1.0000
  H   H148      1.0  0.03305  0.64162  0.92043  1.0000
  C   C185      1.0  0.22129  0.57465  0.84746  1.0000
  Fe  Fe17      1.0  0.08795  0.63171  0.97564  1.0000
  Fe  Fe18      1.0  0.12335  0.63490  0.88889  1.0000
  C   C186      1.0  0.22302  0.52336  0.37061  1.0000
  H   H149      1.0  0.19364  0.61372  0.10985  1.0000
  H   H150      1.0  0.23684  0.53619  0.37896  1.0000
  H   H151      1.0  0.03475  0.45535  0.76617  1.0000
  C   C187      1.0  0.99303  0.36253  0.23782  1.0000
  H   H152      1.0  0.21190  0.54095  0.88265  1.0000
  H   H153      1.0  0.21860  0.65661  0.23612  1.0000
  C   C188      1.0  0.11887  0.45648  0.23733  1.0000
  H   H154      1.0  0.20327  0.51710  0.23085  1.0000
  C   C189      1.0  0.20649  0.55953  0.87483  1.0000
  C   C190      1.0  0.18457  0.56836  0.89201  1.0000
  C   C191      1.0  0.17703  0.59185  0.87994  1.0000
  C   C192      1.0  0.19172  0.60702  0.85261  1.0000
  S   S36       1.0  0.22750  0.44981  0.70729  1.0000
  H   H155      1.0  0.12582  0.42028  0.66840  1.0000
  H   H156      1.0  0.17320  0.55703  0.91426  1.0000
  H   H157      1.0  0.15957  0.59822  0.89131  1.0000
  H   H158      1.0  0.18345  0.57756  0.76525  1.0000
  C   C193      1.0  0.07119  0.62590  0.13612  1.0000
  C   C194      1.0  0.07790  0.60166  0.12848  1.0000
  C   C195      1.0  0.09016  0.58888  0.16578  1.0000
  C   C196      1.0  0.09588  0.60040  0.21057  1.0000
  C   C197      1.0  0.08968  0.62492  0.21802  1.0000
  C   C198      1.0  0.07693  0.63751  0.18076  1.0000
  P   P7        1.0  0.09620  0.63919  0.27693  1.0000
  C   C199      1.0  0.12548  0.62912  0.29720  1.0000
  C   C200      1.0  0.20400  0.52996  0.33947  1.0000
  H   H159      1.0  0.10904  0.44087  0.22460  1.0000
  C   C201      1.0  0.23159  0.60869  0.11759  1.0000
  C   C202      1.0  0.21288  0.45140  0.76716  1.0000
  C   C203      1.0  0.99384  0.38312  0.33318  1.0000
  H   H160      1.0  0.21933  0.64805  0.88737  1.0000
  C   C204      1.0  0.14336  0.62429  0.26181  1.0000
  C   C205      1.0  0.16581  0.61576  0.27701  1.0000
  C   C206      1.0  0.17061  0.61205  0.32765  1.0000
  C   C207      1.0  0.15305  0.61706  0.36303  1.0000
  C   C208      1.0  0.13066  0.62572  0.34802  1.0000
  C   C209      1.0  0.07349  0.63133  0.32145  1.0000
  C   C210      1.0  0.05663  0.61361  0.31014  1.0000
  C   C211      1.0  0.07856  0.35026  0.24887  1.0000
  H   H161      1.0  0.10683  0.45377  0.31316  1.0000
  H   H162      1.0  0.06148  0.63576  0.10739  1.0000
  H   H163      1.0  0.07352  0.59280  0.09361  1.0000
  H   H164      1.0  0.09512  0.57002  0.15997  1.0000
  H   H165      1.0  0.10495  0.59018  0.23958  1.0000
  H   H166      1.0  0.99322  0.35456  0.20085  1.0000
  H   H167      1.0  0.20757  0.60385  0.97193  1.0000
  C   C212      1.0  0.99962  0.41123  0.15817  1.0000
  C   C213      1.0  0.11763  0.46380  0.28719  1.0000
  H   H168      1.0  0.13997  0.62721  0.22242  1.0000
  H   H169      1.0  0.17948  0.61216  0.24952  1.0000
  H   H170      1.0  0.18799  0.60556  0.33973  1.0000
  H   H171      1.0  0.15672  0.61428  0.40240  1.0000
  H   H172      1.0  0.11761  0.62974  0.37642  1.0000
  H   H173      1.0  0.05688  0.60415  0.27481  1.0000
  C   C214      1.0  0.13256  0.46944  0.20359  1.0000
  C   C215      1.0  0.03048  0.49290  0.78742  1.0000
  C   C216      1.0  0.04213  0.47034  0.78687  1.0000
  C   C217      1.0  0.06311  0.46690  0.81403  1.0000
  C   C218      1.0  0.07238  0.48589  0.84213  1.0000
  C   C219      1.0  0.06085  0.50870  0.84299  1.0000
  C   C220      1.0  0.03972  0.51200  0.81541  1.0000
  P   P8        1.0  0.07247  0.53255  0.88223  1.0000
  C   C221      1.0  0.06169  0.52848  0.94505  1.0000
  C   C222      1.0  0.10454  0.52911  0.88119  1.0000
  C   C223      1.0  0.11719  0.52346  0.92510  1.0000
  C   C224      1.0  0.14109  0.51616  0.92272  1.0000
  C   C225      1.0  0.15280  0.51523  0.87699  1.0000
  C   C226      1.0  0.14082  0.52227  0.83359  1.0000
  C   C227      1.0  0.11665  0.52876  0.83539  1.0000
  C   C228      1.0  0.05775  0.54869  0.97612  1.0000
  C   C229      1.0  0.04985  0.54557  0.02502  1.0000
  C   C230      1.0  0.04656  0.52225  0.04385  1.0000
  C   C231      1.0  0.05080  0.50204  0.01346  1.0000
  C   C232      1.0  0.05817  0.50511  0.96416  1.0000
  C   C233      1.0  0.06212  0.56184  0.85978  1.0000
  C   C234      1.0  0.03812  0.56861  0.86611  1.0000
  C   C235      1.0  0.02943  0.59071  0.84762  1.0000
  C   C236      1.0  0.04475  0.60669  0.82423  1.0000
  C   C237      1.0  0.06875  0.60044  0.81893  1.0000
  C   C238      1.0  0.07750  0.57814  0.83672  1.0000
  H   H174      1.0  0.12886  0.48958  0.34212  1.0000
  C   C239      1.0  0.00924  0.36382  0.32149  1.0000
  H   H175      1.0  0.07175  0.44916  0.81507  1.0000
  H   H176      1.0  0.08819  0.48247  0.86437  1.0000
  H   H177      1.0  0.03013  0.52909  0.81538  1.0000
  H   H178      1.0  0.10846  0.52342  0.96104  1.0000
  H   H179      1.0  0.15037  0.51032  0.95615  1.0000
  H   H180      1.0  0.17112  0.50886  0.87526  1.0000
  H   H181      1.0  0.15028  0.52199  0.79854  1.0000
  H   H182      1.0  0.10723  0.53288  0.80105  1.0000
  H   H183      1.0  0.06094  0.56692  0.96295  1.0000
  H   H184      1.0  0.04674  0.56131  0.04848  1.0000
  H   H185      1.0  0.04114  0.51980  0.08221  1.0000
  H   H186      1.0  0.04883  0.48392  0.02831  1.0000
  H   H187      1.0  0.06152  0.48914  0.94163  1.0000
  H   H188      1.0  0.02605  0.55678  0.88544  1.0000
  H   H189      1.0  0.01089  0.59562  0.85244  1.0000
  H   H190      1.0  0.03812  0.62411  0.81101  1.0000
  H   H191      1.0  0.08065  0.61306  0.80145  1.0000
  H   H192      1.0  0.09628  0.57411  0.83308  1.0000
  C   C240      1.0  0.08889  0.33339  0.21604  1.0000
  C   C241      1.0  0.21387  0.46614  0.22607  1.0000
  H   H193      1.0  0.19666  0.46403  0.24345  1.0000
  C   C242      1.0  0.12703  0.54328  0.57821  1.0000
  C   C243      1.0  0.12360  0.51987  0.59729  1.0000
  C   C244      1.0  0.10307  0.50732  0.58387  1.0000
  P   P9        1.0  0.14643  0.50561  0.63525  1.0000
  C   C245      1.0  0.13443  0.48137  0.67250  1.0000
  C   C246      1.0  0.16926  0.49275  0.59556  1.0000
  C   C247      1.0  0.18524  0.47524  0.61469  1.0000
  C   C248      1.0  0.20278  0.46496  0.58417  1.0000
  C   C249      1.0  0.20485  0.47238  0.53458  1.0000
  C   C250      1.0  0.18894  0.48973  0.51520  1.0000
  C   C251      1.0  0.17111  0.49976  0.54538  1.0000
  C   C252      1.0  0.12757  0.48551  0.72208  1.0000
  C   C253      1.0  0.12085  0.46625  0.75250  1.0000
  C   C254      1.0  0.12023  0.44275  0.73318  1.0000
  C   C255      1.0  0.12615  0.43855  0.68328  1.0000
  C   C256      1.0  0.13319  0.45776  0.65298  1.0000
  C   C257      1.0  0.15849  0.52837  0.67638  1.0000
  C   C258      1.0  0.14330  0.54608  0.69756  1.0000
  C   C259      1.0  0.15234  0.56366  0.72969  1.0000
  C   C260      1.0  0.17657  0.56379  0.74071  1.0000
  C   C261      1.0  0.19184  0.54633  0.71978  1.0000
  C   C262      1.0  0.18286  0.52860  0.68785  1.0000
  H   H194      1.0  0.11664  0.46944  0.79140  1.0000
  H   H195      1.0  0.20719  0.46582  0.39870  1.0000
  C   C263      1.0  0.20628  0.48369  0.38189  1.0000
  H   H196      1.0  0.14298  0.55317  0.58708  1.0000
  H   H197      1.0  0.10022  0.48911  0.59733  1.0000
  H   H198      1.0  0.18432  0.46956  0.65338  1.0000
  H   H199      1.0  0.21497  0.45144  0.59950  1.0000
  H   H200      1.0  0.21903  0.46502  0.51156  1.0000
  H   H201      1.0  0.19088  0.49608  0.47734  1.0000
  H   H202      1.0  0.15935  0.51346  0.52960  1.0000
  H   H203      1.0  0.12779  0.50348  0.73765  1.0000
  H   H204      1.0  0.23139  0.58965  0.10781  1.0000
  H   H205      1.0  0.22270  0.58612  0.60151  1.0000
  C   C264      1.0  0.21513  0.50407  0.04428  1.0000
  C   C265      1.0  0.22451  0.59166  0.63999  1.0000
  C   C266      1.0  0.23429  0.55835  0.47974  1.0000
  C   C267      1.0  0.07193  0.64366  0.36716  1.0000
  H   H206      1.0  0.02123  0.33906  0.26438  1.0000
  H   H207      1.0  0.13864  0.61792  0.70455  1.0000
  H   H208      1.0  0.10786  0.32785  0.14672  1.0000
  C   C268      1.0  0.22565  0.64983  0.80783  1.0000
  C   C269      1.0  0.23353  0.47272  0.25482  1.0000
  C   C270      1.0  0.21747  0.48267  0.01666  1.0000
  H   H209      1.0  0.23120  0.47613  0.29419  1.0000
  C   C271      1.0  0.23856  0.46471  0.15243  1.0000
  H   H210      1.0  0.02546  0.59496  0.33504  1.0000
  H   H211      1.0  0.23881  0.46247  0.96421  1.0000
  C   C272      1.0  0.15743  0.64961  0.68139  1.0000
  H   H212      1.0  0.02307  0.61712  0.41551  1.0000
  H   H213      1.0  0.00415  0.60873  0.25290  1.0000
  H   H214      1.0  0.99664  0.65048  0.28452  1.0000
  S   S37       1.0  0.15573  0.65629  0.53651  1.0000
  H   H215      1.0  0.23841  0.47396  0.80356  1.0000
  C   C273      1.0  0.22601  0.60092  0.98259  1.0000
  H   H216      1.0  0.03659  0.32872  0.74504  1.0000
  H   H217      1.0  0.99772  0.48734  0.01463  1.0000
  C   C274      1.0  0.99941  0.64733  0.24498  1.0000
  H   H218      1.0  0.99411  0.39089  0.37029  1.0000
  H   H219      1.0  0.00999  0.60163  0.16211  1.0000
  C   C275      1.0  0.99641  0.63024  0.91852  1.0000
  H   H220      1.0  0.23811  0.56752  0.83375  1.0000
  C   C276      1.0  0.99559  0.48104  0.93546  1.0000
  C   C277      1.0  0.23672  0.53910  0.51353  1.0000
  H   H221      1.0  0.23845  0.49558  0.41755  1.0000
  H   H222      1.0  0.22950  0.53904  0.06013  1.0000
  C   C278      1.0  0.23165  0.52253  0.03865  1.0000
  H   H223      1.0  0.07128  0.65622  0.18585  1.0000
  H   H224      1.0  0.05273  0.64802  0.43611  1.0000
  H   H225      1.0  0.24052  0.46148  0.11272  1.0000
  H   H226      1.0  0.99217  0.64004  0.88460  1.0000
  H   H227      1.0  0.08437  0.65773  0.37630  1.0000
  H   H228      1.0  0.19395  0.65699  0.13276  1.0000
  Fe  Fe19      1.0  0.16438  0.85551  0.19728  1.0000
  S   S38       1.0  0.19087  0.82657  0.22014  1.0000
  S   S39       1.0  0.17193  0.88508  0.14183  1.0000
  Fe  Fe20      1.0  0.12542  0.83525  0.26007  1.0000
  S   S40       1.0  0.14830  0.80460  0.28760  1.0000
  S   S41       1.0  0.08915  0.84060  0.29285  1.0000
  Fe  Fe21      1.0  0.17632  0.83227  0.29720  1.0000
  S   S42       1.0  0.19761  0.82867  0.36856  1.0000
  Fe  Fe22      1.0  0.16071  0.80085  0.20854  1.0000
  S   S43       1.0  0.16747  0.76186  0.18378  1.0000
  S   S44       1.0  0.15250  0.86357  0.27545  1.0000
  S   S45       1.0  0.13516  0.82937  0.17973  1.0000
  Fe  Fe23      1.0  0.18496  0.88723  0.69598  1.0000
  S   S46       1.0  0.18933  0.92225  0.65505  1.0000
  S   S47       1.0  0.21990  0.86908  0.72019  1.0000
  Fe  Fe24      1.0  0.13124  0.88729  0.67350  1.0000
  S   S48       1.0  0.13223  0.92243  0.63132  1.0000
  S   S49       1.0  0.09685  0.86634  0.67245  1.0000
  Fe  Fe25      1.0  0.16547  0.90693  0.59698  1.0000
  S   S50       1.0  0.17398  0.91513  0.51691  1.0000
  Fe  Fe26      1.0  0.15591  0.93456  0.69347  1.0000
  C   C279      1.0  0.99797  0.66682  0.21171  1.0000
  S   S51       1.0  0.16310  0.87082  0.63423  1.0000
  S   S52       1.0  0.15287  0.90040  0.73909  1.0000
  C   C280      1.0  0.02869  0.80368  0.78289  1.0000
  Fe  Fe27      1.0  0.12483  0.67149  0.97368  1.0000
  C   C281      1.0  0.21984  0.65959  0.85474  1.0000
  S   S53       1.0  0.12990  0.71184  0.98542  1.0000
  C   C282      1.0  0.03714  0.75834  0.51550  1.0000
  H   H229      1.0  0.20233  0.88991  0.81405  1.0000
  H   H230      1.0  0.09343  0.72800  0.68939  1.0000
  C   C283      1.0  0.01322  0.78840  0.75681  1.0000
  C   C284      1.0  0.06439  0.73732  0.92170  1.0000
  C   C285      1.0  0.09466  0.72130  0.24459  1.0000
  C   C286      1.0  0.06279  0.69718  0.45087  1.0000
  C   C287      1.0  0.07088  0.70680  0.40584  1.0000
  H   H231      1.0  0.07855  0.72089  0.14152  1.0000
  C   C288      1.0  0.00034  0.66281  0.16027  1.0000
  P   P10       1.0  0.99849  0.68756  0.11654  1.0000
  C   C289      1.0  0.20223  0.73863  0.02848  1.0000
  C   C290      1.0  0.15254  0.66494  0.78067  1.0000
  C   C291      1.0  0.22552  0.74440  0.36270  1.0000
  C   C292      1.0  0.03032  0.89501  0.75423  1.0000
  C   C293      1.0  0.02836  0.87789  0.71592  1.0000
  C   C294      1.0  0.04886  0.86926  0.69109  1.0000
  C   C295      1.0  0.07138  0.87820  0.70327  1.0000
  C   C296      1.0  0.07326  0.89569  0.74083  1.0000
  C   C297      1.0  0.05285  0.90380  0.76661  1.0000
  H   H232      1.0  0.08734  0.85524  0.91341  1.0000
  H   H233      1.0  0.04724  0.85572  0.66215  1.0000
  H   H234      1.0  0.09051  0.90261  0.75074  1.0000
  H   H235      1.0  0.05455  0.91700  0.79623  1.0000
  C   C298      1.0  0.07050  0.81647  0.27903  1.0000
  C   C299      1.0  0.07485  0.80156  0.23766  1.0000
  C   C300      1.0  0.05956  0.78243  0.22690  1.0000
  C   C301      1.0  0.04038  0.77779  0.25837  1.0000
  C   C302      1.0  0.03619  0.79257  0.29985  1.0000
  C   C303      1.0  0.05105  0.81208  0.30987  1.0000
  H   H236      1.0  0.08982  0.80496  0.21369  1.0000
  H   H237      1.0  0.06276  0.77106  0.19463  1.0000
  C   C304      1.0  0.06935  0.78092  0.64584  1.0000
  H   H238      1.0  0.04770  0.82356  0.34194  1.0000
  C   C305      1.0  0.13893  0.72525  0.04228  1.0000
  C   C306      1.0  0.13802  0.75063  0.04681  1.0000
  C   C307      1.0  0.14600  0.76209  0.09058  1.0000
  C   C308      1.0  0.15535  0.74823  0.12986  1.0000
  C   C309      1.0  0.15614  0.72281  0.12547  1.0000
  C   C310      1.0  0.14767  0.71132  0.08214  1.0000
  H   H239      1.0  0.13120  0.76152  0.01623  1.0000
  H   H240      1.0  0.14533  0.78166  0.09353  1.0000
  H   H241      1.0  0.16350  0.71197  0.15557  1.0000
  H   H242      1.0  0.14849  0.69178  0.07904  1.0000
  C   C311      1.0  0.19196  0.85280  0.41007  1.0000
  C   C312      1.0  0.18618  0.87591  0.39191  1.0000
  C   C313      1.0  0.18102  0.89490  0.42517  1.0000
  C   C314      1.0  0.18141  0.89091  0.47678  1.0000
  C   C315      1.0  0.18785  0.86796  0.49513  1.0000
  C   C316      1.0  0.19336  0.84899  0.46176  1.0000
  H   H243      1.0  0.18569  0.87919  0.35217  1.0000
  H   H244      1.0  0.17626  0.91262  0.41080  1.0000
  H   H245      1.0  0.18841  0.86478  0.53491  1.0000
  H   H246      1.0  0.19810  0.83123  0.47599  1.0000
  C   C317      1.0  0.18380  0.91179  0.16651  1.0000
  C   C318      1.0  0.19594  0.91154  0.21208  1.0000
  C   C319      1.0  0.20755  0.93241  0.22844  1.0000
  C   C320      1.0  0.19408  0.95414  0.15489  1.0000
  C   C321      1.0  0.18253  0.93322  0.13844  1.0000
  H   H247      1.0  0.19708  0.89503  0.23378  1.0000
  C   C322      1.0  0.23275  0.94329  0.77414  1.0000
  H   H248      1.0  0.17276  0.93350  0.10361  1.0000
  C   C323      1.0  0.06912  0.78030  0.73659  1.0000
  C   C324      1.0  0.03085  0.80057  0.49423  1.0000
  C   C325      1.0  0.07710  0.81887  0.81269  1.0000
  C   C326      1.0  0.06165  0.76095  0.51009  1.0000
  C   C327      1.0  0.07106  0.78362  0.49807  1.0000
  C   C328      1.0  0.05539  0.80329  0.48886  1.0000
  P   P11       1.0  0.10271  0.78665  0.48939  1.0000
  C   C329      1.0  0.11820  0.76952  0.53768  1.0000
  C   C330      1.0  0.11047  0.77434  0.42909  1.0000
  C   C331      1.0  0.13364  0.76549  0.42021  1.0000
  C   C332      1.0  0.13985  0.75644  0.37327  1.0000
  C   C333      1.0  0.12314  0.75653  0.33468  1.0000
  C   C334      1.0  0.10012  0.76551  0.34309  1.0000
  C   C335      1.0  0.09377  0.77441  0.39007  1.0000
  C   C336      1.0  0.12585  0.78065  0.58199  1.0000
  C   C337      1.0  0.13711  0.76692  0.61939  1.0000
  C   C338      1.0  0.14127  0.74209  0.61254  1.0000
  C   C339      1.0  0.13393  0.73091  0.56851  1.0000
  C   C340      1.0  0.12231  0.74449  0.53144  1.0000
  C   C341      1.0  0.11054  0.81834  0.49168  1.0000
  C   C342      1.0  0.10266  0.83319  0.53121  1.0000
  C   C343      1.0  0.10879  0.85763  0.53306  1.0000
  C   C344      1.0  0.12235  0.86761  0.49495  1.0000
  C   C345      1.0  0.12965  0.85318  0.45481  1.0000
  C   C346      1.0  0.12398  0.82863  0.45325  1.0000
  H   H249      1.0  0.01113  0.87091  0.70609  1.0000
  H   H250      1.0  0.07308  0.74510  0.51427  1.0000
  H   H251      1.0  0.06196  0.82060  0.47656  1.0000
  H   H252      1.0  0.14692  0.76554  0.44945  1.0000
  H   H253      1.0  0.15761  0.74935  0.36677  1.0000
  H   H254      1.0  0.12820  0.75001  0.29810  1.0000
  H   H255      1.0  0.08715  0.76572  0.31323  1.0000
  H   H256      1.0  0.07591  0.78153  0.39547  1.0000
  H   H257      1.0  0.12305  0.79980  0.58843  1.0000
  H   H258      1.0  0.14262  0.77556  0.65376  1.0000
  H   H259      1.0  0.15013  0.73147  0.64137  1.0000
  H   H260      1.0  0.11652  0.73540  0.49782  1.0000
  H   H261      1.0  0.09177  0.82595  0.56072  1.0000
  H   H262      1.0  0.10296  0.86889  0.56403  1.0000
  H   H263      1.0  0.12712  0.88656  0.49636  1.0000
  H   H264      1.0  0.13971  0.86101  0.42465  1.0000
  H   H265      1.0  0.12991  0.81801  0.42152  1.0000
  C   C347      1.0  0.22800  0.93171  0.45779  1.0000
  H   H266      1.0  0.20404  0.78155  0.44213  1.0000
  H   H267      1.0  0.13722  0.71165  0.56315  1.0000
  H   H268      1.0  0.17605  0.70191  0.33185  1.0000
  H   H269      1.0  0.02996  0.74071  0.52404  1.0000
  C   C348      1.0  0.23010  0.76804  0.49520  1.0000
  H   H270      1.0  0.01917  0.77056  0.74471  1.0000
  C   C349      1.0  0.22383  0.73412  0.10634  1.0000
  H   H271      1.0  0.99798  0.70058  0.01013  1.0000
  C   C350      1.0  0.21089  0.67427  0.24416  1.0000
  C   C351      1.0  0.06746  0.70967  0.11821  1.0000
  C   C352      1.0  0.18703  0.69974  0.29888  1.0000
  C   C353      1.0  0.21444  0.68433  0.85972  1.0000
  H   H272      1.0  0.18347  0.73722  0.27718  1.0000
  C   C354      1.0  0.07925  0.68751  0.48509  1.0000
  C   C355      1.0  0.21893  0.92816  0.03288  1.0000
  C   C356      1.0  0.23644  0.96037  0.85738  1.0000
  H   H273      1.0  0.15067  0.67097  0.81890  1.0000
  C   C357      1.0  0.23256  0.98399  0.58729  1.0000
  H   H274      1.0  0.20907  0.91686  0.05818  1.0000
  H   H275      1.0  0.11610  0.87288  0.85427  1.0000
  Fe  Fe28      1.0  0.00677  0.71300  0.40981  1.0000
  H   H276      1.0  0.18227  0.78210  0.59536  1.0000
  H   H277      1.0  0.22884  0.92323  0.49426  1.0000
  H   H278      1.0  0.23204  0.65849  0.73007  1.0000
  H   H279      1.0  0.13299  0.67316  0.24430  1.0000
  C   C358      1.0  0.19124  0.71962  0.26816  1.0000
  C   C359      1.0  0.19709  0.67713  0.28721  1.0000
  H   H280      1.0  0.05897  0.67696  0.28693  1.0000
  H   H281      1.0  0.03219  0.83949  0.81577  1.0000
  C   C360      1.0  0.02062  0.82691  0.79711  1.0000
  C   C361      1.0  0.14516  0.96838  0.24744  1.0000
  H   H282      1.0  0.20818  0.73257  0.20250  1.0000
  C   C362      1.0  0.19056  0.78247  0.51709  1.0000
  S   S54       1.0  0.18237  0.68980  0.65303  1.0000
  H   H283      1.0  0.22322  0.96055  0.32615  1.0000
  C   C363      1.0  0.16405  0.67959  0.74554  1.0000
  C   C364      1.0  0.24090  0.78758  0.21916  1.0000
  H   H284      1.0  0.02855  0.66828  0.03560  1.0000
  H   H285      1.0  0.99471  0.68488  0.22625  1.0000
  H   H286      1.0  0.19854  0.76289  0.88732  1.0000
  C   C365      1.0  0.07511  0.82839  0.86120  1.0000
  C   C366      1.0  0.06417  0.79224  0.69132  1.0000
  C   C367      1.0  0.21366  0.77200  0.90339  1.0000
  S   S55       1.0  0.09579  0.66088  0.91980  1.0000
  H   H287      1.0  0.17086  0.69694  0.75684  1.0000
  Fe  Fe29      1.0  0.18611  0.67396  0.57536  1.0000
  C   C368      1.0  0.22314  0.96592  0.98828  1.0000
  H   H288      1.0  0.15284  0.93088  0.26409  1.0000
  H   H289      1.0  0.09401  0.74046  0.23555  1.0000
  C   C369      1.0  0.15512  0.94953  0.27579  1.0000
  S   S56       1.0  0.03229  0.69534  0.46440  1.0000
  H   H290      1.0  0.11592  0.67950  0.50090  1.0000
  H   H291      1.0  0.20777  0.74537  0.37822  1.0000
  C   C370      1.0  0.20783  0.77752  0.48102  1.0000
  C   C371      1.0  0.09614  0.67162  0.26743  1.0000
  C   C372      1.0  0.13851  0.97283  0.49488  1.0000
  H   H292      1.0  0.17604  0.96312  0.57667  1.0000
  C   C373      1.0  0.16737  0.98984  0.43809  1.0000
  H   H293      1.0  0.10144  0.71295  0.35948  1.0000
  C   C374      1.0  0.07507  0.68531  0.27385  1.0000
  H   H294      1.0  0.18952  0.70570  0.99574  1.0000
  C   C375      1.0  0.20880  0.69871  0.06416  1.0000
  S   S57       1.0  0.22213  0.97925  0.22066  1.0000
  C   C376      1.0  0.11176  0.69604  0.42877  1.0000
  C   C377      1.0  0.09355  0.82886  0.77967  1.0000
  H   H295      1.0  0.19367  0.80474  0.92013  1.0000
  C   C378      1.0  0.09532  0.70610  0.39481  1.0000
  C   C379      1.0  0.23952  0.91904  0.01028  1.0000
  C   C380      1.0  0.20961  0.96101  0.40135  1.0000
  C   C381      1.0  0.02175  0.77817  0.50794  1.0000
  C   C382      1.0  0.21459  0.69404  0.21207  1.0000
  H   H296      1.0  0.00270  0.77596  0.51097  1.0000
  C   C383      1.0  0.21085  0.79554  0.92201  1.0000
  H   H297      1.0  0.06596  0.72402  0.95141  1.0000
  S   S58       1.0  0.19584  0.69688  0.50927  1.0000
  H   H298      1.0  0.00751  0.84677  0.27380  1.0000
  S   S59       1.0  0.00528  0.90502  0.78901  1.0000
  C   C384      1.0  0.02321  0.98886  0.60742  1.0000
  H   H299      1.0  0.00681  0.96124  0.56274  1.0000
  H   H300      1.0  0.05830  0.71429  0.37912  1.0000
  C   C385      1.0  0.23025  0.80736  0.94280  1.0000
  C   C386      1.0  0.23580  0.76519  0.34298  1.0000
  C   C387      1.0  0.21918  0.88081  0.82110  1.0000
  H   H301      1.0  0.19317  0.97059  0.13298  1.0000
  Fe  Fe30      1.0  0.16732  0.67659  0.46877  1.0000
  C   C388      1.0  0.21455  0.74889  0.06828  1.0000
  C   C389      1.0  0.20680  0.95369  0.19970  1.0000
  H   H302      1.0  0.99898  0.89605  0.89467  1.0000
  H   H303      1.0  0.19423  0.75015  0.00005  1.0000
  H   H304      1.0  0.21751  0.93180  0.26284  1.0000
  H   H305      1.0  0.17611  0.93976  0.33955  1.0000
  H   H306      1.0  0.05825  0.72052  0.26852  1.0000
  S   S60       1.0  0.14228  0.69471  0.41357  1.0000
  H   H307      1.0  0.01875  0.81565  0.48669  1.0000
  C   C390      1.0  0.16848  0.95469  0.31846  1.0000
  H   H308      1.0  0.21630  0.78549  0.15768  1.0000
  H   H309      1.0  0.00507  0.96509  0.78293  1.0000
  H   H310      1.0  0.13145  0.71679  0.22459  1.0000
  H   H311      1.0  0.22575  0.78219  0.34348  1.0000
  S   S61       1.0  0.02191  0.75334  0.24590  1.0000
  C   C391      1.0  0.03897  0.68048  0.05818  1.0000
  C   C392      1.0  0.06069  0.77168  0.84454  1.0000
  S   S62       1.0  0.00951  0.75240  0.39284  1.0000
  C   C393      1.0  0.11574  0.70790  0.23832  1.0000
  H   H312      1.0  0.21929  0.88927  0.89982  1.0000
  C   C394      1.0  0.08526  0.74595  0.69004  1.0000
  H   H313      1.0  0.08332  0.74873  0.61004  1.0000
  C   C395      1.0  0.23808  0.72232  0.36237  1.0000
  C   C396      1.0  0.08912  0.84779  0.87616  1.0000
  C   C397      1.0  0.21110  0.95181  0.02286  1.0000
  H   H314      1.0  0.21073  0.71864  0.82165  1.0000
  C   C398      1.0  0.07446  0.71005  0.26282  1.0000
  H   H315      1.0  0.08394  0.74742  0.76977  1.0000
  Fe  Fe31      1.0  0.00171  0.74187  0.31390  1.0000
  H   H316      1.0  0.10157  0.74570  0.92351  1.0000
  C   C399      1.0  0.04239  0.74222  0.89911  1.0000
  H   H317      1.0  0.20313  0.96402  0.89758  1.0000
  C   C400      1.0  0.21178  0.95826  0.86354  1.0000
  H   H318      1.0  0.12009  0.85596  0.76901  1.0000
  H   H319      1.0  0.13536  0.96430  0.21368  1.0000
  C   C401      1.0  0.10538  0.85769  0.84298  1.0000
  C   C402      1.0  0.23121  0.86916  0.78203  1.0000
  C   C403      1.0  0.08452  0.74956  0.90594  1.0000
  C   C404      1.0  0.07963  0.75768  0.64523  1.0000
  C   C405      1.0  0.07997  0.75715  0.73563  1.0000
  H   H320      1.0  0.07025  0.67473  0.01376  1.0000
  H   H321      1.0  0.22846  0.72135  0.60625  1.0000
  C   C406      1.0  0.10359  0.68696  0.47411  1.0000
  H   H322      1.0  0.23013  0.77615  0.24241  1.0000
  C   C407      1.0  0.19551  0.77791  0.56735  1.0000
  C   C408      1.0  0.22703  0.66536  0.76647  1.0000
  C   C409      1.0  0.16680  0.67181  0.69595  1.0000
  C   C410      1.0  0.99749  0.83468  0.78528  1.0000
  C   C411      1.0  0.20519  0.71686  0.22536  1.0000
  C   C412      1.0  0.19960  0.71355  0.02612  1.0000
  C   C413      1.0  0.22055  0.70892  0.10538  1.0000
  C   C414      1.0  0.08271  0.76665  0.86754  1.0000
  C   C415      1.0  0.04050  0.75936  0.86067  1.0000
  C   C416      1.0  0.15519  0.96983  0.45674  1.0000
  C   C417      1.0  0.04361  0.70639  0.13053  1.0000
  H   H323      1.0  0.17886  0.94662  0.83072  1.0000
  H   H324      1.0  0.23756  0.74214  0.89048  1.0000
  C   C418      1.0  0.21400  0.96775  0.57930  1.0000
  H   H325      1.0  0.17345  0.79018  0.50617  1.0000
  H   H326      1.0  0.05585  0.81014  0.69118  1.0000
  C   C419      1.0  0.21530  0.69956  0.81810  1.0000
  C   C420      1.0  0.21180  0.95079  0.44906  1.0000
  C   C421      1.0  0.22443  0.95250  0.36298  1.0000
  H   H327      1.0  0.22136  0.76552  0.62100  1.0000
  H   H328      1.0  0.22212  0.70178  0.73908  1.0000
  H   H329      1.0  0.00670  0.85256  0.91240  1.0000
  H   H330      1.0  0.09547  0.70101  0.06632  1.0000
  H   H331      1.0  0.09856  0.77586  0.85562  1.0000
  C   C422      1.0  0.21771  0.76848  0.58172  1.0000
  C   C423      1.0  0.10768  0.84812  0.79496  1.0000
  C   C424      1.0  0.23530  0.76364  0.54584  1.0000
  H   H332      1.0  0.06508  0.79007  0.61107  1.0000
  C   C425      1.0  0.07700  0.69849  0.07581  1.0000
  H   H333      1.0  0.20939  0.69168  0.89573  1.0000
  H   H334      1.0  0.09545  0.82215  0.74195  1.0000
  C   C426      1.0  0.02901  0.69237  0.09965  1.0000
  P   P12       1.0  0.05896  0.79364  0.79451  1.0000
  H   H335      1.0  0.06258  0.82091  0.88734  1.0000
  C   C427      1.0  0.19787  0.94839  0.82578  1.0000
  H   H336      1.0  0.20077  0.95717  0.47939  1.0000
  H   H337      1.0  0.15869  0.95182  0.44206  1.0000
  H   H338      1.0  0.20628  0.67947  0.06100  1.0000
  C   C428      1.0  0.99277  0.73754  0.13212  1.0000
  C   C429      1.0  0.06279  0.68382  0.04602  1.0000
  H   H339      1.0  0.03661  0.71480  0.16416  1.0000
  H   H340      1.0  0.00855  0.73991  0.10993  1.0000
  P   P13       1.0  0.23231  0.69029  0.15604  1.0000
  H   H341      1.0  0.02331  0.76287  0.84378  1.0000
  S   S63       1.0  0.00288  0.70216  0.33003  1.0000
  H   H342      1.0  0.02133  0.78912  0.32386  1.0000
  H   H343      1.0  0.07311  0.68011  0.52002  1.0000
  H   H344      1.0  0.12966  0.95711  0.50980  1.0000
  H   H345      1.0  0.23144  0.67988  0.63928  1.0000
  C   C430      1.0  0.22883  0.88039  0.86972  1.0000
  H   H346      1.0  0.19411  0.66187  0.31169  1.0000
  H   H347      1.0  0.19749  0.93259  0.75314  1.0000
  C   C431      1.0  0.20840  0.94069  0.78146  1.0000
  Fe  Fe32      1.0  0.21991  0.66565  0.48735  1.0000
  C   C432      1.0  0.11653  0.68316  0.24978  1.0000
  H   H348      1.0  0.21746  0.94883  0.57102  1.0000
  H   H349      1.0  0.08636  0.98653  0.77568  1.0000
  S   S64       1.0  0.15617  0.97155  0.72981  1.0000
  H   H350      1.0  0.02681  0.73268  0.91138  1.0000
  C   C433      1.0  0.22177  0.69010  0.77161  1.0000
  H   H351      1.0  0.21630  0.76839  0.07016  1.0000
  H   H352      1.0  0.21594  0.98374  0.97936  1.0000
  H   H353      1.0  0.00966  0.88720  0.52499  1.0000
  H   H354      1.0  0.22814  0.82575  0.95677  1.0000
  H   H355      1.0  0.19527  0.95901  0.04084  1.0000
  H   H356      1.0  0.23020  0.70624  0.37811  1.0000
  H   H357      1.0  0.11814  0.97308  0.65519  1.0000
  C   C434      1.0  0.23305  0.79269  0.17064  1.0000
  C   C435      1.0  0.24049  0.93331  0.37164  1.0000
  H   H358      1.0  0.22891  0.89368  0.12262  1.0000
  C   C436      1.0  0.19033  0.97583  0.58201  1.0000
  C   C437      1.0  0.17205  0.97884  0.33302  1.0000
  C   C438      1.0  0.23593  0.76031  0.90512  1.0000
  C   C439      1.0  0.00611  0.97143  0.59729  1.0000
  C   C440      1.0  0.11780  0.98988  0.67588  1.0000
  H   H359      1.0  0.04719  0.98440  0.73526  1.0000
  C   C441      1.0  0.23225  0.65843  0.13993  1.0000
  P   P14       1.0  0.18886  0.98557  0.38876  1.0000
  H   H360      1.0  0.23964  0.81238  0.10273  1.0000
  H   H361      1.0  0.23330  0.74243  0.13690  1.0000
  C   C442      1.0  0.99412  0.85341  0.29974  1.0000
  H   H362      1.0  0.24069  0.93711  0.73958  1.0000
  H   H363      1.0  0.99419  0.82047  0.34301  1.0000
  Fe  Fe33      1.0  0.46228  0.21165  0.83020  1.0000
  S   S65       1.0  0.46356  0.21880  0.91405  1.0000
  S   S66       1.0  0.44610  0.17752  0.79370  1.0000
  H   H364      1.0  0.32025  0.03052  0.50904  1.0000
  H   H365      1.0  0.24289  0.10505  0.74510  1.0000
  C   C443      1.0  0.37922  0.99725  0.23208  1.0000
  H   H366      1.0  0.33897  0.99368  0.91134  1.0000
  Fe  Fe34      1.0  0.46027  0.25882  0.89658  1.0000
  S   S67       1.0  0.43890  0.28921  0.93660  1.0000
  H   H367      1.0  0.43926  0.19155  0.38454  1.0000
  S   S68       1.0  0.45540  0.25129  0.81367  1.0000
  Fe  Fe35      1.0  0.43149  0.07855  0.46794  1.0000
  S   S69       1.0  0.42643  0.07741  0.55092  1.0000
  S   S70       1.0  0.46782  0.07365  0.43337  1.0000
  Fe  Fe36      1.0  0.37757  0.08169  0.44514  1.0000
  S   S71       1.0  0.36887  0.08253  0.52733  1.0000
  S   S72       1.0  0.35442  0.07105  0.37791  1.0000
  Fe  Fe37      1.0  0.40011  0.10788  0.53772  1.0000
  S   S73       1.0  0.40295  0.14420  0.58077  1.0000
  Fe  Fe38      1.0  0.39621  0.05232  0.53380  1.0000
  S   S74       1.0  0.38744  0.01769  0.57501  1.0000
  S   S75       1.0  0.40630  0.10968  0.45386  1.0000
  S   S76       1.0  0.40394  0.05075  0.45259  1.0000
  H   H368      1.0  0.48546  0.16038  0.44387  1.0000
  H   H369      1.0  0.30263  0.00955  0.58046  1.0000
  C   C444      1.0  0.44973  0.02480  0.35423  1.0000
  H   H370      1.0  0.28723  0.05769  0.60967  1.0000
  S   S77       1.0  0.29736  0.02813  0.04989  1.0000
  C   C445      1.0  0.24639  0.05853  0.70319  1.0000
  H   H371      1.0  0.24216  0.04924  0.45041  1.0000
  S   S78       1.0  0.25951  0.08621  0.24790  1.0000
  C   C446      1.0  0.32724  0.07519  0.34436  1.0000
  C   C447      1.0  0.32378  0.06134  0.30103  1.0000
  C   C448      1.0  0.30308  0.06418  0.27168  1.0000
  C   C449      1.0  0.28550  0.08120  0.28506  1.0000
  C   C450      1.0  0.28884  0.09497  0.32875  1.0000
  C   C451      1.0  0.30939  0.09171  0.35869  1.0000
  H   H372      1.0  0.33730  0.04836  0.29010  1.0000
  H   H373      1.0  0.30093  0.05347  0.23821  1.0000
  H   H374      1.0  0.27541  0.10823  0.33955  1.0000
  H   H375      1.0  0.31150  0.10217  0.39245  1.0000
  H   H376      1.0  0.24483  0.05336  0.74201  1.0000
  C   C452      1.0  0.48163  0.00440  0.53767  1.0000
  C   C453      1.0  0.37337  0.00359  0.36216  1.0000
  C   C454      1.0  0.25184  0.07306  0.60401  1.0000
  H   H377      1.0  0.27121  0.99603  0.40958  1.0000
  H   H378      1.0  0.48792  0.23938  0.66564  1.0000
  C   C455      1.0  0.33673  0.00170  0.02753  1.0000
  H   H379      1.0  0.47831  0.06159  0.58510  1.0000
  C   C456      1.0  0.24814  0.04091  0.96267  1.0000
  H   H380      1.0  0.34516  0.01912  0.02492  1.0000
  Fe  Fe39      1.0  0.26397  0.03144  0.09540  1.0000
  C   C457      1.0  0.44090  0.30216  0.99794  1.0000
  C   C458      1.0  0.45386  0.29112  0.03671  1.0000
  H   H381      1.0  0.30441  0.02433  0.42358  1.0000
  C   C459      1.0  0.38255  0.28008  0.84201  1.0000
  H   H382      1.0  0.47459  0.20954  0.29631  1.0000
  H   H383      1.0  0.24742  0.14376  0.78953  1.0000
  H   H384      1.0  0.46352  0.27434  0.02961  1.0000
  H   H385      1.0  0.25078  0.04993  0.99809  1.0000
  H   H386      1.0  0.42208  0.17288  0.46040  1.0000
  C   C460      1.0  0.43449  0.16883  0.73367  1.0000
  C   C461      1.0  0.43182  0.14396  0.72283  1.0000
  C   C462      1.0  0.42286  0.13604  0.67616  1.0000
  C   C463      1.0  0.41577  0.15291  0.63970  1.0000
  C   C464      1.0  0.41823  0.17776  0.65072  1.0000
  C   C465      1.0  0.42776  0.18568  0.69688  1.0000
  H   H387      1.0  0.43685  0.13066  0.75073  1.0000
  H   H388      1.0  0.42100  0.11689  0.66882  1.0000
  H   H389      1.0  0.41249  0.19101  0.62341  1.0000
  H   H390      1.0  0.42950  0.20484  0.70430  1.0000
  C   C466      1.0  0.47740  0.12237  0.44032  1.0000
  H   H391      1.0  0.47548  0.99437  0.50560  1.0000
  H   H392      1.0  0.25408  0.07902  0.56580  1.0000
  H   H393      1.0  0.45886  0.12512  0.44955  1.0000
  H   H394      1.0  0.34791  0.04832  0.19951  1.0000
  H   H395      1.0  0.39146  0.26292  0.85022  1.0000
  H   H396      1.0  0.24546  0.99275  0.68431  1.0000
  H   H397      1.0  0.40367  0.25267  0.61642  1.0000
  C   C467      1.0  0.29568  0.00608  0.54355  1.0000
  H   H398      1.0  0.33802  0.14161  0.41705  1.0000
  H   H399      1.0  0.32724  0.30457  0.82490  1.0000
  C   C468      1.0  0.29679  0.01470  0.45483  1.0000
  H   H400      1.0  0.34751  0.26508  0.84209  1.0000
  H   H401      1.0  0.25843  0.00591  0.99124  1.0000
  H   H402      1.0  0.49159  0.22665  0.47466  1.0000
  H   H403      1.0  0.30272  0.16740  0.39652  1.0000
  H   H404      1.0  0.29355  0.17759  0.30829  1.0000
  H   H405      1.0  0.46323  0.29220  0.11492  1.0000
  C   C469      1.0  0.31565  0.99323  0.29177  1.0000
  C   C470      1.0  0.27558  0.99321  0.73318  1.0000
  C   C471      1.0  0.42217  0.24996  0.62659  1.0000
  C   C472      1.0  0.35783  0.28133  0.83765  1.0000
  H   H406      1.0  0.48433  0.19658  0.68242  1.0000
  C   C473      1.0  0.45530  0.25841  0.68106  1.0000
  C   C474      1.0  0.34643  0.30357  0.82799  1.0000
  C   C475      1.0  0.48311  0.04251  0.58244  1.0000
  C   C476      1.0  0.43662  0.23420  0.59860  1.0000
  C   C477      1.0  0.46054  0.23017  0.61201  1.0000
  C   C478      1.0  0.46962  0.24218  0.65404  1.0000
  P   P15       1.0  0.47957  0.20988  0.57604  1.0000
  H   H407      1.0  0.48588  0.11908  0.67687  1.0000
  C   C479      1.0  0.46665  0.20461  0.51516  1.0000
  C   C480      1.0  0.44694  0.18947  0.51038  1.0000
  H   H408      1.0  0.36362  0.12558  0.35057  1.0000
  C   C481      1.0  0.43143  0.00886  0.34330  1.0000
  C   C482      1.0  0.46643  0.21041  0.42525  1.0000
  C   C483      1.0  0.47633  0.21506  0.47219  1.0000
  H   H409      1.0  0.33078  0.01988  0.13802  1.0000
  C   C484      1.0  0.44109  0.32310  0.09580  1.0000
  H   H410      1.0  0.37851  0.03425  0.25925  1.0000
  H   H411      1.0  0.48700  0.15740  0.72530  1.0000
  C   C485      1.0  0.42158  0.00813  0.29509  1.0000
  C   C486      1.0  0.47532  0.02895  0.54172  1.0000
  H   H412      1.0  0.48408  0.12027  0.58447  1.0000
  C   C487      1.0  0.37161  0.02162  0.23207  1.0000
  C   C488      1.0  0.48637  0.09898  0.43132  1.0000
  Fe  Fe40      1.0  0.24748  0.06147  0.18402  1.0000
  C   C489      1.0  0.25232  0.01592  0.95875  1.0000
  H   H413      1.0  0.46271  0.26808  0.71249  1.0000
  H   H414      1.0  0.42887  0.22517  0.56690  1.0000
  H   H415      1.0  0.48335  0.31907  0.84879  1.0000
  H   H416      1.0  0.43923  0.18105  0.54299  1.0000
  H   H417      1.0  0.45630  0.05037  0.23983  1.0000
  C   C490      1.0  0.43153  0.26214  0.66771  1.0000
  C   C491      1.0  0.34443  0.01361  0.16390  1.0000
  C   C492      1.0  0.48458  0.13700  0.60567  1.0000
  C   C493      1.0  0.48646  0.15790  0.68484  1.0000
  C   C494      1.0  0.48300  0.18111  0.60799  1.0000
  C   C495      1.0  0.49039  0.20124  0.28023  1.0000
  H   H418      1.0  0.42412  0.02200  0.21976  1.0000
  H   H419      1.0  0.26538  0.00009  0.76449  1.0000
  C   C496      1.0  0.27052  0.06104  0.62872  1.0000
  S   S79       1.0  0.26540  0.02524  0.17764  1.0000
  H   H420      1.0  0.45704  0.02561  0.39171  1.0000
  H   H421      1.0  0.31972  0.16260  0.24084  1.0000
  C   C497      1.0  0.45864  0.03979  0.31703  1.0000
  H   H422      1.0  0.47409  0.21844  0.39233  1.0000
  C   C498      1.0  0.27815  0.99873  0.44696  1.0000
  H   H423      1.0  0.38208  0.10106  0.16299  1.0000
  C   C499      1.0  0.35424  0.02969  0.19822  1.0000
  C   C500      1.0  0.29271  0.00205  0.30140  1.0000
  H   H424      1.0  0.46449  0.03753  0.51300  1.0000
  H   H425      1.0  0.36276  0.07453  0.10096  1.0000
  H   H426      1.0  0.48305  0.15921  0.54055  1.0000
  C   C501      1.0  0.24878  0.00401  0.91318  1.0000
  C   C502      1.0  0.43714  0.18480  0.46346  1.0000
  C   C503      1.0  0.39593  0.30100  0.83649  1.0000
  C   C504      1.0  0.44928  0.03880  0.26867  1.0000
  H   H427      1.0  0.25543  0.99412  0.29985  1.0000
  C   C505      1.0  0.42822  0.32383  0.00850  1.0000
  C   C506      1.0  0.30563  0.01826  0.50306  1.0000
  C   C507      1.0  0.48366  0.15926  0.58087  1.0000
  H   H428      1.0  0.31901  0.07000  0.10120  1.0000
  C   C508      1.0  0.26777  0.05373  0.67824  1.0000
  C   C509      1.0  0.43092  0.02287  0.25756  1.0000
  C   C510      1.0  0.31282  0.00048  0.04088  1.0000
  H   H429      1.0  0.42037  0.27437  0.68939  1.0000
  C   C511      1.0  0.44685  0.19528  0.42087  1.0000
  C   C512      1.0  0.38158  0.20315  0.21055  1.0000
  C   C513      1.0  0.38447  0.20313  0.15880  1.0000
  C   C514      1.0  0.38107  0.18183  0.13167  1.0000
  C   C515      1.0  0.37468  0.16053  0.15615  1.0000
  C   C516      1.0  0.37158  0.16040  0.20817  1.0000
  C   C517      1.0  0.37524  0.18189  0.23518  1.0000
  P   P16       1.0  0.36339  0.13311  0.24092  1.0000
  C   C518      1.0  0.34915  0.11226  0.19842  1.0000
  C   C519      1.0  0.38932  0.11841  0.26800  1.0000
  C   C520      1.0  0.38817  0.09409  0.28300  1.0000
  C   C521      1.0  0.40694  0.08331  0.30979  1.0000
  C   C522      1.0  0.42708  0.09666  0.32133  1.0000
  C   C523      1.0  0.42863  0.12070  0.30555  1.0000
  C   C524      1.0  0.40981  0.13161  0.27905  1.0000
  C   C525      1.0  0.32442  0.10915  0.19877  1.0000
  C   C526      1.0  0.31369  0.09399  0.16375  1.0000
  C   C527      1.0  0.32747  0.08171  0.12829  1.0000
  C   C528      1.0  0.35211  0.08428  0.12825  1.0000
  C   C529      1.0  0.36295  0.09926  0.16352  1.0000
  C   C530      1.0  0.34352  0.14273  0.29032  1.0000
  C   C531      1.0  0.32376  0.15770  0.27913  1.0000
  C   C532      1.0  0.30901  0.16639  0.31728  1.0000
  C   C533      1.0  0.31418  0.16069  0.36698  1.0000
  C   C534      1.0  0.33406  0.14621  0.37854  1.0000
  C   C535      1.0  0.34859  0.13708  0.34043  1.0000
  H   H430      1.0  0.38408  0.21973  0.23153  1.0000
  H   H431      1.0  0.38925  0.21966  0.13967  1.0000
  H   H432      1.0  0.38323  0.18188  0.09147  1.0000
  H   H433      1.0  0.37194  0.14444  0.13407  1.0000
  H   H434      1.0  0.37306  0.18228  0.27534  1.0000
  H   H435      1.0  0.37226  0.08381  0.27626  1.0000
  H   H436      1.0  0.40545  0.06490  0.32340  1.0000
  H   H437      1.0  0.44128  0.08853  0.34346  1.0000
  H   H438      1.0  0.44420  0.13102  0.31512  1.0000
  H   H439      1.0  0.41110  0.15044  0.26850  1.0000
  H   H440      1.0  0.31321  0.11808  0.22604  1.0000
  H   H441      1.0  0.29459  0.09167  0.16436  1.0000
  H   H442      1.0  0.33069  0.00489  0.29709  1.0000
  H   H443      1.0  0.28987  0.02054  0.31399  1.0000
  C   C536      1.0  0.45372  0.30137  0.08520  1.0000
  C   C537      1.0  0.48586  0.13632  0.65765  1.0000
  H   H444      1.0  0.28242  0.04478  0.69760  1.0000
  H   H445      1.0  0.42500  0.99717  0.37258  1.0000
  H   H446      1.0  0.38053  0.02125  0.35398  1.0000
  H   H447      1.0  0.41500  0.29945  0.84053  1.0000
  H   H448      1.0  0.29652  0.00152  0.92467  1.0000
  C   C538      1.0  0.48483  0.18022  0.66023  1.0000
  H   H449      1.0  0.47277  0.05220  0.32599  1.0000
  H   H450      1.0  0.35269  0.01741  0.42362  1.0000
  H   H451      1.0  0.25160  0.06462  0.36577  1.0000
  C   C539      1.0  0.35725  0.00156  0.40138  1.0000
  S   S80       1.0  0.24832  0.06921  0.10120  1.0000
  C   C540      1.0  0.38466  0.32343  0.82666  1.0000
  C   C541      1.0  0.35976  0.32457  0.82269  1.0000
  C   C542      1.0  0.26883  0.45282  0.34616  1.0000
  C   C543      1.0  0.31164  0.61279  0.85155  1.0000
  C   C544      1.0  0.24440  0.58417  0.66755  1.0000
  S   S81       1.0  0.32108  0.63828  0.67646  1.0000
  C   C545      1.0  0.26110  0.55647  0.26544  1.0000
  H   H452      1.0  0.42580  0.34994  0.72226  1.0000
  H   H453      1.0  0.29600  0.49241  0.45077  1.0000
  C   C546      1.0  0.47721  0.32728  0.77114  1.0000
  Fe  Fe41      1.0  0.33427  0.63113  0.23145  1.0000
  S   S82       1.0  0.33603  0.59678  0.18717  1.0000
  H   H454      1.0  0.27025  0.65792  0.64185  1.0000
  Fe  Fe42      1.0  0.38782  0.63801  0.22097  1.0000
  S   S83       1.0  0.39325  0.60411  0.17544  1.0000
  C   C547      1.0  0.44918  0.61351  0.45743  1.0000
  Fe  Fe43      1.0  0.35993  0.61642  0.13517  1.0000
  S   S84       1.0  0.35314  0.60947  0.05309  1.0000
  Fe  Fe44      1.0  0.36867  0.58752  0.23102  1.0000
  S   S85       1.0  0.37189  0.55111  0.26896  1.0000
  C   C548      1.0  0.27014  0.60573  0.86830  1.0000
  S   S86       1.0  0.36538  0.62059  0.27999  1.0000
  Fe  Fe45      1.0  0.27097  0.49702  0.57499  1.0000
  S   S87       1.0  0.26239  0.50582  0.65481  1.0000
  Fe  Fe46      1.0  0.30575  0.45526  0.59824  1.0000
  S   S88       1.0  0.29952  0.46009  0.68174  1.0000
  S   S89       1.0  0.33605  0.43100  0.56497  1.0000
  Fe  Fe47      1.0  0.26017  0.46533  0.66552  1.0000
  H   H455      1.0  0.41789  0.35049  0.06434  1.0000
  Fe  Fe48      1.0  0.30158  0.50024  0.66705  1.0000
  S   S90       1.0  0.32375  0.52469  0.71575  1.0000
  S   S91       1.0  0.26623  0.45686  0.58290  1.0000
  S   S92       1.0  0.31032  0.49510  0.58646  1.0000
  Fe  Fe49      1.0  0.43172  0.37008  0.20207  1.0000
  Fe  Fe50      1.0  0.42249  0.42548  0.20389  1.0000
  S   S93       1.0  0.42945  0.42877  0.28585  1.0000
  S   S94       1.0  0.41394  0.45852  0.15600  1.0000
  Fe  Fe51      1.0  0.45993  0.40274  0.27173  1.0000
  C   C549      1.0  0.31230  0.54198  0.84955  1.0000
  Fe  Fe52      1.0  0.40645  0.39617  0.29400  1.0000
  S   S95       1.0  0.37325  0.39881  0.34566  1.0000
  S   S96       1.0  0.45493  0.40222  0.18894  1.0000
  S   S97       1.0  0.39844  0.39354  0.21081  1.0000
  C   C550      1.0  0.34627  0.42356  0.50293  1.0000
  C   C551      1.0  0.33075  0.42124  0.46226  1.0000
  C   C552      1.0  0.33932  0.41359  0.41499  1.0000
  C   C553      1.0  0.36371  0.40871  0.40672  1.0000
  C   C554      1.0  0.37933  0.41137  0.44719  1.0000
  C   C555      1.0  0.37061  0.41824  0.49493  1.0000
  H   H456      1.0  0.31198  0.42438  0.46775  1.0000
  H   H457      1.0  0.32690  0.41141  0.38450  1.0000
  H   H458      1.0  0.39806  0.40753  0.44207  1.0000
  H   H459      1.0  0.38287  0.41955  0.52593  1.0000
  C   C556      1.0  0.38417  0.52602  0.23659  1.0000
  C   C557      1.0  0.38956  0.52703  0.18568  1.0000
  C   C558      1.0  0.39882  0.50630  0.16119  1.0000
  C   C559      1.0  0.40271  0.48452  0.18743  1.0000
  C   C560      1.0  0.39716  0.48367  0.23818  1.0000
  C   C561      1.0  0.38816  0.50434  0.26265  1.0000
  H   H460      1.0  0.38659  0.54371  0.16521  1.0000
  H   H461      1.0  0.40300  0.50714  0.12188  1.0000
  H   H462      1.0  0.39947  0.46700  0.25864  1.0000
  H   H463      1.0  0.38442  0.50350  0.30207  1.0000
  C   C562      1.0  0.32861  0.52330  0.08914  1.0000
  C   C563      1.0  0.44880  0.62484  0.26025  1.0000
  H   H464      1.0  0.43343  0.61344  0.25749  1.0000
  H   H465      1.0  0.37186  0.34984  0.91062  1.0000
  C   C564      1.0  0.25304  0.65468  0.36827  1.0000
  C   C565      1.0  0.35044  0.62906  0.95972  1.0000
  C   C566      1.0  0.35092  0.63397  0.01105  1.0000
  H   H466      1.0  0.32133  0.55537  0.97158  1.0000
  C   C567      1.0  0.28808  0.48154  0.42157  1.0000
  C   C568      1.0  0.33967  0.44018  0.24957  1.0000
  C   C569      1.0  0.25828  0.47113  0.18119  1.0000
  C   C570      1.0  0.32317  0.60656  0.68549  1.0000
  C   C571      1.0  0.30817  0.59138  0.65816  1.0000
  C   C572      1.0  0.30853  0.56617  0.66641  1.0000
  C   C573      1.0  0.32361  0.55606  0.70270  1.0000
  C   C574      1.0  0.33898  0.57117  0.72922  1.0000
  C   C575      1.0  0.33898  0.59627  0.72021  1.0000
  H   H467      1.0  0.29609  0.59916  0.63077  1.0000
  H   H468      1.0  0.29706  0.55454  0.64499  1.0000
  H   H469      1.0  0.35101  0.56341  0.75669  1.0000
  H   H470      1.0  0.35097  0.60764  0.74077  1.0000
  C   C576      1.0  0.24732  0.59209  0.71673  1.0000
  C   C577      1.0  0.34295  0.63656  0.49334  1.0000
  H   H471      1.0  0.35067  0.64436  0.88550  1.0000
  C   C578      1.0  0.32405  0.54892  0.89307  1.0000
  H   H472      1.0  0.27528  0.63226  0.01475  1.0000
  C   C579      1.0  0.25349  0.64461  0.13938  1.0000
  C   C580      1.0  0.28620  0.64882  0.31090  1.0000
  H   H473      1.0  0.29218  0.59085  0.01955  1.0000
  H   H474      1.0  0.40195  0.53021  0.39794  1.0000
  S   S98       1.0  0.43786  0.36982  0.28615  1.0000
  C   C581      1.0  0.26411  0.61695  0.00660  1.0000
  H   H475      1.0  0.31082  0.44211  0.30069  1.0000
  H   H476      1.0  0.27523  0.47299  0.16290  1.0000
  C   C582      1.0  0.43158  0.62920  0.47642  1.0000
  H   H477      1.0  0.25673  0.59927  0.89344  1.0000
  H   H478      1.0  0.36698  0.44246  0.19392  1.0000
  C   C583      1.0  0.43817  0.34360  0.75051  1.0000
  H   H479      1.0  0.43827  0.59002  0.33457  1.0000
  C   C584      1.0  0.35003  0.64810  0.92496  1.0000
  C   C585      1.0  0.37435  0.41005  0.74548  1.0000
  H   H480      1.0  0.33691  0.53614  0.16315  1.0000
  H   H481      1.0  0.45196  0.59571  0.47374  1.0000
  H   H482      1.0  0.34242  0.55442  0.89129  1.0000
  H   H483      1.0  0.26872  0.49434  0.95552  1.0000
  C   C586      1.0  0.30542  0.62417  0.80683  1.0000
  H   H484      1.0  0.41791  0.33240  0.97915  1.0000
  H   H485      1.0  0.26135  0.42738  0.40498  1.0000
  C   C587      1.0  0.38754  0.37014  0.77415  1.0000
  C   C588      1.0  0.45302  0.49112  0.29478  1.0000
  C   C589      1.0  0.25360  0.49758  0.97964  1.0000
  H   H486      1.0  0.33014  0.61079  0.86197  1.0000
  H   H487      1.0  0.24465  0.56695  0.26361  1.0000
  H   H488      1.0  0.37564  0.50679  0.49005  1.0000
  C   C590      1.0  0.47096  0.61480  0.27466  1.0000
  C   C591      1.0  0.46301  0.62064  0.41696  1.0000
  H   H489      1.0  0.36010  0.36695  0.66034  1.0000
  H   H490      1.0  0.44433  0.38354  0.05439  1.0000
  C   C592      1.0  0.27846  0.47540  0.33407  1.0000
  C   C593      1.0  0.43164  0.34274  0.80102  1.0000
  H   H491      1.0  0.37461  0.60327  0.41827  1.0000
  C   C594      1.0  0.42831  0.33426  0.05685  1.0000
  H   H492      1.0  0.35662  0.41124  0.67387  1.0000
  H   H493      1.0  0.43647  0.48964  0.31500  1.0000
  C   C595      1.0  0.34335  0.62900  0.54308  1.0000
  C   C596      1.0  0.35053  0.45033  0.20803  1.0000
  C   C597      1.0  0.27810  0.45932  0.43343  1.0000
  S   S99       1.0  0.35617  0.65173  0.17627  1.0000
  H   H494      1.0  0.43721  0.40710  0.94228  1.0000
  C   C598      1.0  0.27357  0.59338  0.00974  1.0000
  H   H495      1.0  0.29886  0.59648  0.91861  1.0000
  C   C599      1.0  0.29397  0.60420  0.88292  1.0000
  H   H496      1.0  0.34770  0.42440  0.26750  1.0000
  H   H497      1.0  0.32782  0.63235  0.46989  1.0000
  H   H498      1.0  0.42116  0.62341  0.50794  1.0000
  C   C600      1.0  0.47085  0.32624  0.82142  1.0000
  C   C601      1.0  0.38548  0.39533  0.78152  1.0000
  C   C602      1.0  0.28170  0.62547  0.79164  1.0000
  C   C603      1.0  0.26394  0.61561  0.82165  1.0000
  C   C604      1.0  0.38160  0.64768  0.55451  1.0000
  H   H499      1.0  0.44073  0.52136  0.25031  1.0000
  C   C605      1.0  0.26848  0.44494  0.39576  1.0000
  C   C606      1.0  0.47895  0.37947  0.02103  1.0000
  H   H500      1.0  0.37960  0.34064  0.72363  1.0000
  H   H501      1.0  0.24378  0.52225  0.26347  1.0000
  H   H502      1.0  0.37266  0.42946  0.75131  1.0000
  H   H503      1.0  0.36282  0.62878  0.61226  1.0000
  H   H504      1.0  0.27040  0.65271  0.14803  1.0000
  C   C607      1.0  0.31207  0.54907  0.93865  1.0000
  C   C608      1.0  0.30823  0.47102  0.24547  1.0000
  H   H505      1.0  0.26222  0.44098  0.31719  1.0000
  C   C609      1.0  0.42368  0.58329  0.35620  1.0000
  H   H506      1.0  0.40797  0.61860  0.36812  1.0000
  H   H507      1.0  0.31901  0.63186  0.78362  1.0000
  H   H508      1.0  0.43505  0.54599  0.34909  1.0000
  C   C610      1.0  0.40585  0.39062  0.97160  1.0000
  S   S100      1.0  0.44133  0.33473  0.15852  1.0000
  C   C611      1.0  0.25062  0.51972  0.00506  1.0000
  C   C612      1.0  0.41505  0.64852  0.97046  1.0000
  H   H509      1.0  0.39636  0.65167  0.57905  1.0000
  C   C613      1.0  0.47657  0.51045  0.23118  1.0000
  P   P17       1.0  0.27242  0.54321  0.99948  1.0000
  C   C614      1.0  0.29222  0.53964  0.05214  1.0000
  C   C615      1.0  0.28829  0.54178  0.94110  1.0000
  H   H510      1.0  0.24967  0.64198  0.29259  1.0000
  H   H511      1.0  0.47001  0.46100  0.33286  1.0000
  C   C616      1.0  0.26181  0.64799  0.32115  1.0000
  H   H512      1.0  0.35060  0.34170  0.81584  1.0000
  C   C617      1.0  0.42763  0.65212  0.45477  1.0000
  H   H513      1.0  0.45042  0.42592  0.08142  1.0000
  C   C618      1.0  0.32420  0.53666  0.13255  1.0000
  C   C619      1.0  0.45542  0.50893  0.25820  1.0000
  C   C620      1.0  0.30330  0.55056  0.13663  1.0000
  C   C621      1.0  0.28737  0.55208  0.09669  1.0000
  C   C622      1.0  0.42163  0.38259  0.88912  1.0000
  C   C623      1.0  0.38746  0.37452  0.96240  1.0000
  H   H514      1.0  0.34925  0.53219  0.62294  1.0000
  C   C624      1.0  0.46093  0.39225  0.04616  1.0000
  C   C625      1.0  0.27642  0.53547  0.89687  1.0000
  C   C626      1.0  0.40323  0.36631  0.87962  1.0000
  C   C627      1.0  0.37826  0.36000  0.73020  1.0000
  C   C628      1.0  0.36267  0.63452  0.57354  1.0000
  H   H515      1.0  0.48933  0.50082  0.12250  1.0000
  C   C629      1.0  0.25602  0.47485  0.23285  1.0000
  C   C630      1.0  0.42295  0.39463  0.93501  1.0000
  C   C631      1.0  0.31247  0.52444  0.04929  1.0000
  C   C632      1.0  0.36723  0.37480  0.69424  1.0000
  C   C633      1.0  0.45940  0.64354  0.39585  1.0000
  C   C634      1.0  0.30188  0.65652  0.34804  1.0000
  C   C635      1.0  0.48890  0.65409  0.26731  1.0000
  H   H516      1.0  0.37348  0.46508  0.45881  1.0000
  C   C636      1.0  0.36179  0.64986  0.47415  1.0000
  H   H517      1.0  0.29970  0.56071  0.17030  1.0000
  H   H518      1.0  0.27152  0.56332  0.10037  1.0000
  H   H519      1.0  0.37665  0.56312  0.65528  1.0000
  H   H520      1.0  0.39096  0.58625  0.50587  1.0000
  C   C637      1.0  0.46439  0.41611  0.06157  1.0000
  P   P18       1.0  0.28113  0.48468  0.26968  1.0000
  C   C638      1.0  0.48599  0.42722  0.05212  1.0000
  P   P19       1.0  0.40174  0.35071  0.82033  1.0000
  H   H521      1.0  0.27732  0.63400  0.75623  1.0000
  H   H522      1.0  0.31615  0.51394  0.01593  1.0000
  C   C639      1.0  0.34043  0.47080  0.18517  1.0000
  C   C640      1.0  0.31929  0.48103  0.20360  1.0000
  H   H523      1.0  0.34475  0.51235  0.08614  1.0000
  H   H524      1.0  0.47015  0.64904  0.36459  1.0000
  C   C641      1.0  0.28197  0.51744  0.26739  1.0000
  C   C642      1.0  0.26070  0.53112  0.26500  1.0000
  C   C643      1.0  0.44638  0.64971  0.25128  1.0000
  C   C644      1.0  0.28273  0.56837  0.26890  1.0000
  C   C645      1.0  0.30396  0.55491  0.27190  1.0000
  C   C646      1.0  0.30364  0.52958  0.27083  1.0000
  H   H525      1.0  0.34925  0.47879  0.15348  1.0000
  H   H526      1.0  0.31158  0.49676  0.18535  1.0000
  H   H527      1.0  0.29569  0.50712  0.36436  1.0000
  C   C647      1.0  0.31862  0.45041  0.26827  1.0000
  H   H528      1.0  0.35595  0.45678  0.37566  1.0000
  C   C648      1.0  0.38612  0.36239  0.91663  1.0000
  H   H529      1.0  0.28306  0.58804  0.26913  1.0000
  H   H530      1.0  0.32077  0.56409  0.27470  1.0000
  H   H531      1.0  0.32037  0.51964  0.27309  1.0000
  H   H532      1.0  0.47787  0.38206  0.82547  1.0000
  H   H533      1.0  0.47254  0.59568  0.28328  1.0000
  H   H534      1.0  0.34179  0.52860  0.53273  1.0000
  H   H535      1.0  0.41210  0.65215  0.00960  1.0000
  H   H536      1.0  0.39749  0.59009  0.59649  1.0000
  C   C649      1.0  0.40710  0.62664  0.95069  1.0000
  C   C650      1.0  0.40920  0.62192  0.89963  1.0000
  C   C651      1.0  0.41953  0.63898  0.86835  1.0000
  H   H537      1.0  0.27954  0.53008  0.81717  1.0000
  H   H538      1.0  0.27820  0.45314  0.47182  1.0000
  H   H539      1.0  0.32859  0.61905  0.55835  1.0000
  S   S101      1.0  0.36854  0.65304  0.78354  1.0000
  H   H540      1.0  0.25787  0.53063  0.89742  1.0000
  H   H541      1.0  0.39228  0.40372  0.81498  1.0000
  H   H542      1.0  0.24771  0.56103  0.45163  1.0000
  H   H543      1.0  0.35131  0.61049  0.94682  1.0000
  H   H544      1.0  0.37436  0.37121  0.99104  1.0000
  H   H545      1.0  0.26961  0.60939  0.12836  1.0000
  H   H546      1.0  0.39871  0.61361  0.97491  1.0000
  H   H547      1.0  0.40251  0.60522  0.88419  1.0000
  H   H548      1.0  0.42092  0.63551  0.82861  1.0000
  C   C652      1.0  0.28792  0.48977  0.37230  1.0000
  H   H549      1.0  0.47650  0.60845  0.40167  1.0000
  S   S102      1.0  0.26060  0.51863  0.50686  1.0000
  C   C653      1.0  0.29515  0.58728  0.45412  1.0000
  C   C654      1.0  0.29279  0.59818  0.40732  1.0000
  C   C655      1.0  0.31085  0.59537  0.37205  1.0000
  C   C656      1.0  0.33127  0.58167  0.38346  1.0000
  C   C657      1.0  0.33409  0.57120  0.43091  1.0000
  C   C658      1.0  0.31564  0.57371  0.46584  1.0000
  P   P20       1.0  0.36074  0.55392  0.44598  1.0000
  C   C659      1.0  0.36631  0.55666  0.51222  1.0000
  C   C660      1.0  0.35704  0.52282  0.42664  1.0000
  C   C661      1.0  0.34705  0.51789  0.37973  1.0000
  C   C662      1.0  0.34652  0.49410  0.36174  1.0000
  C   C663      1.0  0.35592  0.47509  0.39028  1.0000
  C   C664      1.0  0.36592  0.47982  0.43694  1.0000
  C   C665      1.0  0.36676  0.50358  0.45488  1.0000
  C   C666      1.0  0.38187  0.57419  0.53077  1.0000
  C   C667      1.0  0.38562  0.57648  0.58220  1.0000
  C   C668      1.0  0.37389  0.56133  0.61540  1.0000
  C   C669      1.0  0.35836  0.54395  0.59722  1.0000
  C   C670      1.0  0.35434  0.54181  0.54598  1.0000
  C   C671      1.0  0.38568  0.56558  0.41183  1.0000
  C   C672      1.0  0.40307  0.54959  0.39249  1.0000
  C   C673      1.0  0.42197  0.55845  0.36476  1.0000
  C   C674      1.0  0.47186  0.47500  0.30482  1.0000
  C   C675      1.0  0.40659  0.59937  0.37542  1.0000
  C   C676      1.0  0.38773  0.59061  0.40356  1.0000
  H   H550      1.0  0.28108  0.58932  0.48144  1.0000
  H   H551      1.0  0.27694  0.60878  0.39848  1.0000
  H   H552      1.0  0.30909  0.60382  0.33577  1.0000
  H   H553      1.0  0.34486  0.57932  0.35521  1.0000
  H   H554      1.0  0.31686  0.56528  0.50220  1.0000
  H   H555      1.0  0.34057  0.53249  0.35613  1.0000
  H   H556      1.0  0.33962  0.49038  0.32490  1.0000
  C   C677      1.0  0.25927  0.57334  0.99943  1.0000
  H   H557      1.0  0.32163  0.54184  0.81432  1.0000
  S   S103      1.0  0.29604  0.64046  0.25085  1.0000
  H   H558      1.0  0.32071  0.65721  0.34045  1.0000
  H   H559      1.0  0.47560  0.36110  0.00881  1.0000
  C   C678      1.0  0.36526  0.39981  0.70185  1.0000
  H   H560      1.0  0.40683  0.39993  0.00719  1.0000
  H   H561      1.0  0.43489  0.38602  0.86100  1.0000
  C   C679      1.0  0.28849  0.53536  0.85132  1.0000
  H   H562      1.0  0.48266  0.37807  0.91660  1.0000
  H   H563      1.0  0.47807  0.52464  0.20368  1.0000
  H   H564      1.0  0.26291  0.58602  0.73733  1.0000
  C   C680      1.0  0.25310  0.61983  0.12855  1.0000
  C   C681      1.0  0.49102  0.62937  0.27894  1.0000
  H   H565      1.0  0.36085  0.65560  0.43569  1.0000
  H   H566      1.0  0.25756  0.57228  0.65051  1.0000
  H   H567      1.0  0.48675  0.52999  0.05267  1.0000
  C   C682      1.0  0.44821  0.33403  0.83637  1.0000
  H   H568      1.0  0.44342  0.33263  0.87541  1.0000
  C   C683      1.0  0.46091  0.33598  0.73576  1.0000
  H   H569      1.0  0.46585  0.33649  0.69674  1.0000
  H   H570      1.0  0.48873  0.44567  0.06456  1.0000
  H   H571      1.0  0.47352  0.65543  0.93305  1.0000
  H   H572      1.0  0.28271  0.65579  0.89155  1.0000
  C   C684      1.0  0.38126  0.65570  0.50470  1.0000
  Fe  Fe53      1.0  0.35118  0.84622  0.94931  1.0000
  S   S104      1.0  0.31963  0.82956  0.98691  1.0000
  S   S105      1.0  0.37338  0.82489  0.89333  1.0000
  Fe  Fe54      1.0  0.34122  0.89535  0.99648  1.0000
  S   S106      1.0  0.30942  0.88273  0.03806  1.0000
  S   S107      1.0  0.35645  0.93267  0.99981  1.0000
  Fe  Fe55      1.0  0.33186  0.84964  0.05541  1.0000
  S   S108      1.0  0.33109  0.83285  0.13300  1.0000
  Fe  Fe56      1.0  0.30001  0.86396  0.96603  1.0000
  S   S109      1.0  0.26134  0.86715  0.94187  1.0000
  S   S110      1.0  0.36465  0.86380  0.01911  1.0000
  S   S111      1.0  0.33047  0.87907  0.92330  1.0000
  Fe  Fe57      1.0  0.40850  0.86055  0.36704  1.0000
  S   S112      1.0  0.37384  0.85717  0.40671  1.0000
  S   S113      1.0  0.41391  0.86003  0.28361  1.0000
  Fe  Fe58      1.0  0.43661  0.86381  0.46328  1.0000
  S   S114      1.0  0.40404  0.86041  0.51135  1.0000
  S   S115      1.0  0.47226  0.86665  0.50139  1.0000
  Fe  Fe59      1.0  0.39345  0.83126  0.45761  1.0000
  S   S116      1.0  0.37710  0.79460  0.47208  1.0000
  Fe  Fe60      1.0  0.38734  0.88674  0.45686  1.0000
  S   S117      1.0  0.36077  0.91583  0.48093  1.0000
  S   S118      1.0  0.42738  0.83251  0.41390  1.0000
  S   S119      1.0  0.42063  0.89230  0.41296  1.0000
  S   S120      1.0  0.38627  0.70964  0.78366  1.0000
  C   C685      1.0  0.25197  0.85727  0.35771  1.0000
  Fe  Fe61      1.0  0.36178  0.71639  0.71858  1.0000
  S   S121      1.0  0.36105  0.75557  0.69219  1.0000
  C   C686      1.0  0.24677  0.95332  0.81183  1.0000
  C   C687      1.0  0.43547  0.69643  0.03100  1.0000
  H   H573      1.0  0.24286  0.93306  0.63972  1.0000
  C   C688      1.0  0.35413  0.78327  0.29210  1.0000
  C   C689      1.0  0.31650  0.86639  0.34656  1.0000
  H   H574      1.0  0.38561  0.70481  0.55777  1.0000
  C   C690      1.0  0.45611  0.68193  0.73431  1.0000
  C   C691      1.0  0.45500  0.70323  0.76294  1.0000
  H   H575      1.0  0.43959  0.70707  0.78573  1.0000
  C   C692      1.0  0.37376  0.78339  0.53344  1.0000
  C   C693      1.0  0.38094  0.79679  0.57492  1.0000
  C   C694      1.0  0.37739  0.78773  0.62333  1.0000
  C   C695      1.0  0.36710  0.76502  0.63067  1.0000
  C   C696      1.0  0.36047  0.75130  0.58916  1.0000
  C   C697      1.0  0.36374  0.76050  0.54072  1.0000
  H   H576      1.0  0.38874  0.81438  0.56982  1.0000
  H   H577      1.0  0.38241  0.79845  0.65536  1.0000
  H   H578      1.0  0.35223  0.73393  0.59448  1.0000
  H   H579      1.0  0.35818  0.74995  0.50887  1.0000
  C   C698      1.0  0.39017  0.95593  0.49034  1.0000
  C   C699      1.0  0.36912  0.94450  0.50437  1.0000
  C   C700      1.0  0.35337  0.95658  0.53664  1.0000
  C   C701      1.0  0.31814  0.93910  0.87431  1.0000
  H   H580      1.0  0.40234  0.94688  0.46504  1.0000
  H   H581      1.0  0.33720  0.94790  0.54785  1.0000
  C   C702      1.0  0.33908  0.95799  0.01811  1.0000
  C   C703      1.0  0.31514  0.95647  0.03227  1.0000
  H   H582      1.0  0.30668  0.93905  0.03317  1.0000
  C   C704      1.0  0.27496  0.81304  0.20610  1.0000
  H   H583      1.0  0.30348  0.70011  0.26195  1.0000
  H   H584      1.0  0.33487  0.97756  0.44262  1.0000
  C   C705      1.0  0.27695  0.69135  0.86047  1.0000
  H   H585      1.0  0.27890  0.84681  0.84824  1.0000
  H   H586      1.0  0.25111  0.80485  0.59207  1.0000
  C   C706      1.0  0.26254  0.85668  0.84070  1.0000
  H   H587      1.0  0.25115  0.88909  0.63699  1.0000
  C   C707      1.0  0.35432  0.84008  0.17468  1.0000
  C   C708      1.0  0.37632  0.84775  0.15722  1.0000
  C   C709      1.0  0.39459  0.85321  0.19105  1.0000
  C   C710      1.0  0.39088  0.85155  0.24263  1.0000
  C   C711      1.0  0.36901  0.84356  0.26023  1.0000
  C   C712      1.0  0.35090  0.83756  0.22628  1.0000
  H   H588      1.0  0.37934  0.84939  0.11765  1.0000
  H   H589      1.0  0.41151  0.85925  0.17713  1.0000
  H   H590      1.0  0.36603  0.84209  0.29988  1.0000
  H   H591      1.0  0.33406  0.83132  0.24004  1.0000
  C   C713      1.0  0.40468  0.82452  0.89868  1.0000
  C   C714      1.0  0.41611  0.83691  0.93710  1.0000
  C   C715      1.0  0.44096  0.83542  0.94182  1.0000
  H   H592      1.0  0.42058  0.73843  0.11962  1.0000
  C   C716      1.0  0.41840  0.81115  0.86426  1.0000
  H   H593      1.0  0.40586  0.84743  0.96357  1.0000
  H   H594      1.0  0.44963  0.84481  0.97210  1.0000
  H   H595      1.0  0.40975  0.80218  0.83348  1.0000
  H   H596      1.0  0.45519  0.67670  0.51821  1.0000
  H   H597      1.0  0.35455  0.80069  0.36408  1.0000
  H   H598      1.0  0.41733  0.96786  0.18502  1.0000
  C   C717      1.0  0.27060  0.92967  0.17533  1.0000
  H   H599      1.0  0.27010  0.70773  0.09104  1.0000
  H   H600      1.0  0.24498  0.93540  0.11695  1.0000
  C   C718      1.0  0.25157  0.85267  0.40901  1.0000
  C   C719      1.0  0.45646  0.75082  0.34955  1.0000
  C   C720      1.0  0.25158  0.93304  0.97544  1.0000
  H   H601      1.0  0.39007  0.71256  0.96939  1.0000
  C   C721      1.0  0.48483  0.94267  0.60318  1.0000
  H   H602      1.0  0.32306  0.77848  0.11952  1.0000
  P   P21       1.0  0.27250  0.79123  0.29991  1.0000
  C   C722      1.0  0.26910  0.67637  0.62791  1.0000
  C   C723      1.0  0.26862  0.66243  0.40546  1.0000
  C   C724      1.0  0.31031  0.71005  0.18564  1.0000
  C   C725      1.0  0.34865  0.67708  0.99259  1.0000
  C   C726      1.0  0.42671  0.72138  0.10380  1.0000
  C   C727      1.0  0.26240  0.69943  0.16832  1.0000
  C   C728      1.0  0.43470  0.72969  0.89209  1.0000
  C   C729      1.0  0.47620  0.67692  0.70533  1.0000
  C   C730      1.0  0.24313  0.95641  0.96313  1.0000
  H   H603      1.0  0.27332  0.68464  0.82323  1.0000
  H   H604      1.0  0.29119  0.82125  0.21908  1.0000
  C   C731      1.0  0.34716  0.97921  0.41188  1.0000
  C   C732      1.0  0.26081  0.72097  0.34171  1.0000
  H   H605      1.0  0.32876  0.75390  0.40156  1.0000
  C   C733      1.0  0.26729  0.94169  0.58026  1.0000
  H   H606      1.0  0.31104  0.80453  0.36939  1.0000
  H   H607      1.0  0.29461  0.94377  0.52353  1.0000
  H   H608      1.0  0.47967  0.70515  0.44173  1.0000
  H   H609      1.0  0.32896  0.71345  0.19211  1.0000
  H   H610      1.0  0.34948  0.77681  0.04573  1.0000
  C   C734      1.0  0.27189  0.81431  0.65598  1.0000
  C   C735      1.0  0.44207  0.65938  0.41503  1.0000
  C   C736      1.0  0.42344  0.71743  0.93110  1.0000
  C   C737      1.0  0.38736  0.74103  0.91512  1.0000
  H   H611      1.0  0.31209  0.71729  0.10675  1.0000
  P   P22       1.0  0.25412  0.97171  0.90845  1.0000
  H   H612      1.0  0.47574  0.77417  0.00948  1.0000
  C   C738      1.0  0.28949  0.68762  0.61071  1.0000
  H   H613      1.0  0.42223  0.73359  0.02861  1.0000
  H   H614      1.0  0.30201  0.75078  0.64431  1.0000
  P   P23       1.0  0.40583  0.67296  0.48071  1.0000
  H   H615      1.0  0.24319  0.76459  0.46654  1.0000
  C   C739      1.0  0.25561  0.77213  0.92568  1.0000
  C   C740      1.0  0.44241  0.68059  0.11459  1.0000
  H   H616      1.0  0.40305  0.72463  0.63168  1.0000
  H   H617      1.0  0.32255  0.84772  0.34368  1.0000
  C   C741      1.0  0.37992  0.98310  0.33380  1.0000
  C   C742      1.0  0.39517  0.69302  0.43165  1.0000
  C   C743      1.0  0.39058  0.68367  0.38377  1.0000
  C   C744      1.0  0.38227  0.69887  0.34560  1.0000
  C   C745      1.0  0.37840  0.72355  0.35484  1.0000
  C   C746      1.0  0.38324  0.73311  0.40201  1.0000
  C   C747      1.0  0.39165  0.71796  0.44029  1.0000
  C   C748      1.0  0.26620  0.72398  0.59067  1.0000
  Fe  Fe62      1.0  0.35660  0.68854  0.81717  1.0000
  P   P24       1.0  0.39909  0.98637  0.28054  1.0000
  C   C749      1.0  0.29593  0.70274  0.22506  1.0000
  H   H618      1.0  0.27727  0.94790  0.17199  1.0000
  P   P25       1.0  0.48075  0.75275  0.39355  1.0000
  C   C750      1.0  0.44354  0.67776  0.06278  1.0000
  H   H619      1.0  0.37900  0.69144  0.30874  1.0000
  H   H620      1.0  0.37185  0.73528  0.32531  1.0000
  H   H621      1.0  0.38050  0.75231  0.40905  1.0000
  H   H622      1.0  0.39534  0.72590  0.47631  1.0000
  C   C751      1.0  0.31528  0.77635  0.25634  1.0000
  C   C752      1.0  0.34003  0.77443  0.25336  1.0000
  H   H623      1.0  0.47620  0.81221  0.65057  1.0000
  Fe  Fe63      1.0  0.39603  0.67514  0.74471  1.0000
  S   S122      1.0  0.25813  0.67185  0.46435  1.0000
  H   H624      1.0  0.36878  0.74483  0.92276  1.0000
  C   C753      1.0  0.29184  0.76845  0.07811  1.0000
  H   H625      1.0  0.42002  0.76747  0.52411  1.0000
  H   H626      1.0  0.34828  0.76664  0.22043  1.0000
  H   H627      1.0  0.37327  0.78234  0.28928  1.0000
  H   H628      1.0  0.34568  0.94145  0.39193  1.0000
  H   H629      1.0  0.47188  0.69589  0.59332  1.0000
  H   H630      1.0  0.26555  0.95522  0.80540  1.0000
  H   H631      1.0  0.43189  0.80301  0.12848  1.0000
  C   C754      1.0  0.42527  0.77091  0.30109  1.0000
  C   C755      1.0  0.42009  0.74897  0.27772  1.0000
  C   C756      1.0  0.25248  0.79570  0.94491  1.0000
  H   H632      1.0  0.41542  0.78732  0.29134  1.0000
  H   H633      1.0  0.40617  0.74820  0.24977  1.0000
  H   H634      1.0  0.49088  0.83296  0.57495  1.0000
  C   C757      1.0  0.43280  0.72790  0.29066  1.0000
  S   S123      1.0  0.33103  0.69792  0.75512  1.0000
  C   C758      1.0  0.44329  0.80945  0.86923  1.0000
  C   C759      1.0  0.28556  0.96596  0.89926  1.0000
  H   H635      1.0  0.43997  0.67721  0.39854  1.0000
  C   C760      1.0  0.33086  0.77256  0.04177  1.0000
  S   S124      1.0  0.34737  0.69607  0.89809  1.0000
  H   H636      1.0  0.45008  0.90003  0.22715  1.0000
  C   C761      1.0  0.45460  0.82151  0.90828  1.0000
  P   P26       1.0  0.43832  0.69301  0.96414  1.0000
  H   H637      1.0  0.30416  0.71955  0.57888  1.0000
  C   C762      1.0  0.27064  0.89009  0.21445  1.0000
  C   C763      1.0  0.27987  0.91355  0.21127  1.0000
  P   P27       1.0  0.30426  0.92286  0.25051  1.0000
  C   C764      1.0  0.30626  0.90472  0.30659  1.0000
  C   C765      1.0  0.33182  0.91898  0.21690  1.0000
  C   C766      1.0  0.35300  0.91364  0.24293  1.0000
  C   C767      1.0  0.37424  0.90988  0.21706  1.0000
  C   C768      1.0  0.37455  0.91135  0.16506  1.0000
  C   C769      1.0  0.35364  0.91684  0.13898  1.0000
  C   C770      1.0  0.33236  0.92078  0.16465  1.0000
  C   C771      1.0  0.30202  0.91501  0.35378  1.0000
  C   C772      1.0  0.30499  0.90102  0.39691  1.0000
  C   C773      1.0  0.31200  0.87666  0.39330  1.0000
  C   C774      1.0  0.31386  0.88039  0.30344  1.0000
  C   C775      1.0  0.29974  0.95423  0.26793  1.0000
  C   C776      1.0  0.27675  0.96331  0.27726  1.0000
  H   H638      1.0  0.43899  0.93024  0.16206  1.0000
  H   H639      1.0  0.44590  0.71941  0.65058  1.0000
  H   H640      1.0  0.47301  0.73091  0.97574  1.0000
  C   C777      1.0  0.31916  0.96941  0.27503  1.0000
  H   H641      1.0  0.43100  0.75705  0.83503  1.0000
  H   H642      1.0  0.27726  0.87719  0.24146  1.0000
  H   H643      1.0  0.35312  0.91189  0.28312  1.0000
  H   H644      1.0  0.39035  0.90515  0.23728  1.0000
  H   H645      1.0  0.39089  0.90783  0.14484  1.0000
  H   H646      1.0  0.35384  0.91766  0.09865  1.0000
  H   H647      1.0  0.31643  0.92483  0.14330  1.0000
  H   H648      1.0  0.29686  0.93391  0.35770  1.0000
  H   H649      1.0  0.30229  0.90924  0.43318  1.0000
  H   H650      1.0  0.31805  0.87238  0.26752  1.0000
  C   C778      1.0  0.47213  0.95195  0.64420  1.0000
  H   H651      1.0  0.33698  0.96285  0.26779  1.0000
  H   H652      1.0  0.31437  0.86585  0.42669  1.0000
  H   H653      1.0  0.34771  0.69568  0.00532  1.0000
  H   H654      1.0  0.40155  0.78823  0.98518  1.0000
  C   C779      1.0  0.43845  0.76307  0.51640  1.0000
  P   P28       1.0  0.28472  0.75754  0.92764  1.0000
  H   H655      1.0  0.46495  0.68349  0.24677  1.0000
  C   C780      1.0  0.28262  0.72518  0.91738  1.0000
  C   C781      1.0  0.28775  0.70861  0.95593  1.0000
  C   C782      1.0  0.28752  0.68365  0.94667  1.0000
  C   C783      1.0  0.28216  0.67505  0.89899  1.0000
  H   H656      1.0  0.44869  0.76324  0.59388  1.0000
  C   C784      1.0  0.27719  0.71632  0.86955  1.0000
  C   C785      1.0  0.45658  0.78786  0.07407  1.0000
  C   C786      1.0  0.42751  0.71847  0.05197  1.0000
  C   C787      1.0  0.44074  0.91667  0.23731  1.0000
  C   C788      1.0  0.40459  0.70322  0.56426  1.0000
  C   C789      1.0  0.30386  0.77040  0.88064  1.0000
  C   C790      1.0  0.30344  0.79547  0.87115  1.0000
  C   C791      1.0  0.31929  0.80543  0.83704  1.0000
  C   C792      1.0  0.33564  0.79050  0.81201  1.0000
  C   C793      1.0  0.33615  0.76559  0.82102  1.0000
  C   C794      1.0  0.32050  0.75561  0.85538  1.0000
  S   S125      1.0  0.37375  0.68311  0.67688  1.0000
  H   H657      1.0  0.43604  0.67360  0.86328  1.0000
  H   H658      1.0  0.29277  0.71476  0.99271  1.0000
  H   H659      1.0  0.46635  0.88416  0.60792  1.0000
  H   H660      1.0  0.43327  0.70448  0.17523  1.0000
  C   C795      1.0  0.48713  0.75584  0.13569  1.0000
  C   C796      1.0  0.25801  0.82973  0.42712  1.0000
  C   C797      1.0  0.43421  0.79604  0.09117  1.0000
  H   H661      1.0  0.44075  0.77398  0.95443  1.0000
  H   H662      1.0  0.41846  0.94553  0.33946  1.0000
  H   H663      1.0  0.29136  0.80752  0.89071  1.0000
  H   H664      1.0  0.31944  0.82485  0.83119  1.0000
  H   H665      1.0  0.34830  0.79824  0.78642  1.0000
  H   H666      1.0  0.34899  0.75403  0.80196  1.0000
  H   H667      1.0  0.32177  0.73638  0.86258  1.0000
  C   C798      1.0  0.33919  0.86104  0.54169  1.0000
  C   C799      1.0  0.33243  0.83724  0.55100  1.0000
  C   C800      1.0  0.33324  0.82815  0.59963  1.0000
  C   C801      1.0  0.34171  0.84254  0.63862  1.0000
  C   C802      1.0  0.34926  0.86621  0.62914  1.0000
  C   C803      1.0  0.34708  0.87565  0.58080  1.0000
  P   P29       1.0  0.36035  0.88448  0.67965  1.0000
  C   C804      1.0  0.33454  0.89230  0.71629  1.0000
  C   C805      1.0  0.38341  0.86804  0.71300  1.0000
  C   C806      1.0  0.39003  0.87523  0.76131  1.0000
  C   C807      1.0  0.40917  0.86371  0.78557  1.0000
  C   C808      1.0  0.42220  0.84545  0.76130  1.0000
  C   C809      1.0  0.41590  0.83837  0.71305  1.0000
  C   C810      1.0  0.39669  0.84972  0.68880  1.0000
  C   C811      1.0  0.31748  0.90870  0.69686  1.0000
  C   C812      1.0  0.29670  0.91401  0.72347  1.0000
  C   C813      1.0  0.29267  0.90277  0.76927  1.0000
  C   C814      1.0  0.30948  0.88630  0.78853  1.0000
  C   C815      1.0  0.33020  0.88080  0.76197  1.0000
  C   C816      1.0  0.37520  0.91121  0.65785  1.0000
  C   C817      1.0  0.39232  0.90911  0.62004  1.0000
  C   C818      1.0  0.37151  0.93373  0.68139  1.0000
  H   H668      1.0  0.33875  0.86815  0.50405  1.0000
  H   H669      1.0  0.32696  0.82574  0.52047  1.0000
  H   H670      1.0  0.32820  0.80960  0.60688  1.0000
  H   H671      1.0  0.34282  0.83500  0.67594  1.0000
  H   H672      1.0  0.35180  0.89416  0.57304  1.0000
  H   H673      1.0  0.38059  0.88983  0.78019  1.0000
  H   H674      1.0  0.41396  0.86891  0.82331  1.0000
  H   H675      1.0  0.43722  0.83681  0.77994  1.0000
  H   H676      1.0  0.42600  0.82415  0.69438  1.0000
  H   H677      1.0  0.39257  0.84442  0.65088  1.0000
  H   H678      1.0  0.32013  0.91710  0.66081  1.0000
  H   H679      1.0  0.28354  0.92654  0.70826  1.0000
  H   H680      1.0  0.27633  0.90639  0.78954  1.0000
  H   H681      1.0  0.30632  0.87757  0.82397  1.0000
  H   H682      1.0  0.34249  0.86731  0.77696  1.0000
  H   H683      1.0  0.39602  0.89179  0.60244  1.0000
  H   H684      1.0  0.35921  0.93564  0.71210  1.0000
  C   C819      1.0  0.41908  0.68949  0.53186  1.0000
  C   C820      1.0  0.36975  0.96071  0.34469  1.0000
  C   C821      1.0  0.31536  0.77431  0.46440  1.0000
  H   H685      1.0  0.27341  0.72028  0.48462  1.0000
  C   C822      1.0  0.41436  0.71436  0.60634  1.0000
  C   C823      1.0  0.26484  0.79869  0.61770  1.0000
  C   C824      1.0  0.28486  0.75491  0.51316  1.0000
  C   C825      1.0  0.29979  0.77458  0.50498  1.0000
  P   P30       1.0  0.26493  0.75452  0.56570  1.0000
  H   H686      1.0  0.26142  0.69098  0.24715  1.0000
  C   C826      1.0  0.45091  0.72874  0.32643  1.0000
  H   H687      1.0  0.26722  0.80527  0.96142  1.0000
  H   H688      1.0  0.46055  0.71214  0.33540  1.0000
  H   H689      1.0  0.45144  0.78709  0.20381  1.0000
  H   H690      1.0  0.46726  0.93240  0.41288  1.0000
  C   C827      1.0  0.27510  0.77531  0.61345  1.0000
  C   C828      1.0  0.32156  0.76721  0.99461  1.0000
  H   H691      1.0  0.36828  0.98189  0.00610  1.0000
  C   C829      1.0  0.28961  0.80697  0.68966  1.0000
  C   C830      1.0  0.30042  0.78410  0.68482  1.0000
  C   C831      1.0  0.29329  0.76836  0.64689  1.0000
  H   H692      1.0  0.32724  0.78926  0.45877  1.0000
  C   C832      1.0  0.44339  0.77185  0.33681  1.0000
  H   H693      1.0  0.29971  0.78986  0.53027  1.0000
  C   C833      1.0  0.29386  0.94325  0.88220  1.0000
  H   H694      1.0  0.44594  0.81660  0.27285  1.0000
  C   C834      1.0  0.34983  0.98060  0.01687  1.0000
  Fe  Fe64      1.0  0.34523  0.66371  0.71870  1.0000
  H   H695      1.0  0.37412  0.94479  0.32283  1.0000
  H   H696      1.0  0.33329  0.76711  0.96266  1.0000
  H   H697      1.0  0.30639  0.67788  0.61140  1.0000
  H   H698      1.0  0.29491  0.81895  0.71964  1.0000
  H   H699      1.0  0.31427  0.77841  0.71075  1.0000
  C   C835      1.0  0.28247  0.76315  0.03102  1.0000
  C   C836      1.0  0.43854  0.71149  0.61696  1.0000
  H   H700      1.0  0.26368  0.75959  0.02741  1.0000
  C   C837      1.0  0.28516  0.73542  0.47943  1.0000
  H   H701      1.0  0.28162  0.92869  0.87522  1.0000
  C   C838      1.0  0.25885  0.76404  0.32294  1.0000
  C   C839      1.0  0.25293  0.85711  0.79209  1.0000
  C   C840      1.0  0.41503  0.95887  0.26360  1.0000
  C   C841      1.0  0.42175  0.95475  0.21382  1.0000
  C   C842      1.0  0.43429  0.93358  0.20069  1.0000
  H   H702      1.0  0.33174  0.97483  0.70323  1.0000
  C   C843      1.0  0.43506  0.92115  0.28720  1.0000
  C   C844      1.0  0.42241  0.94225  0.30048  1.0000
  H   H703      1.0  0.37368  0.96200  0.19843  1.0000
  C   C845      1.0  0.43881  0.77955  0.99300  1.0000
  C   C846      1.0  0.46659  0.66427  0.25410  1.0000
  C   C847      1.0  0.31879  0.79599  0.33689  1.0000
  H   H704      1.0  0.47714  0.66048  0.68333  1.0000
  H   H705      1.0  0.35326  0.95364  0.88073  1.0000
  C   C848      1.0  0.45317  0.69818  0.58462  1.0000
  C   C849      1.0  0.31597  0.77344  0.08339  1.0000
  C   C850      1.0  0.27762  0.89164  0.57926  1.0000
  C   C851      1.0  0.35335  0.95882  0.38344  1.0000
  H   H706      1.0  0.45370  0.79887  0.84297  1.0000
  C   C852      1.0  0.34354  0.79382  0.33406  1.0000
  H   H707      1.0  0.32452  0.92159  0.86154  1.0000
  C   C853      1.0  0.40492  0.92938  0.60476  1.0000
  C   C854      1.0  0.38423  0.95397  0.66609  1.0000
  C   C855      1.0  0.45905  0.81967  0.24430  1.0000
  H   H708      1.0  0.38898  0.76719  0.85604  1.0000
  H   H709      1.0  0.44029  0.90805  0.31544  1.0000
  C   C856      1.0  0.40093  0.95178  0.62788  1.0000
  H   H710      1.0  0.30150  0.71954  0.41455  1.0000
  C   C857      1.0  0.45865  0.77971  0.02452  1.0000
  H   H711      1.0  0.29255  0.67102  0.97591  1.0000
  C   C858      1.0  0.41443  0.79601  0.05934  1.0000
  C   C859      1.0  0.44355  0.68731  0.54206  1.0000
  C   C860      1.0  0.30446  0.78746  0.29787  1.0000
  C   C861      1.0  0.28459  0.93208  0.54774  1.0000
  H   H712      1.0  0.41785  0.92774  0.57501  1.0000
  C   C862      1.0  0.44605  0.76027  0.46708  1.0000
  C   C863      1.0  0.26459  0.81558  0.34220  1.0000
  H   H713      1.0  0.28171  0.87236  0.57924  1.0000
  C   C864      1.0  0.47003  0.75485  0.45691  1.0000
  H   H714      1.0  0.39740  0.80302  0.07226  1.0000
  H   H715      1.0  0.28892  0.74027  0.30690  1.0000
  H   H716      1.0  0.45277  0.72512  0.88150  1.0000
  H   H717      1.0  0.26224  0.84786  0.76222  1.0000
  C   C865      1.0  0.30201  0.97779  0.04415  1.0000
  H   H718      1.0  0.28346  0.97673  0.05420  1.0000
  H   H719      1.0  0.43318  0.76272  0.43737  1.0000
  C   C866      1.0  0.25558  0.92601  0.61290  1.0000
  C   C867      1.0  0.35875  0.97948  0.55592  1.0000
  C   C868      1.0  0.27204  0.69749  0.21651  1.0000
  C   C869      1.0  0.47421  0.71929  0.76289  1.0000
  C   C870      1.0  0.45464  0.76066  0.55577  1.0000
  C   C871      1.0  0.41671  0.78766  0.01034  1.0000
  H   H720      1.0  0.26140  0.95214  0.27109  1.0000
  C   C872      1.0  0.48316  0.93961  0.42968  1.0000
  H   H721      1.0  0.42860  0.71081  0.27302  1.0000
  C   C873      1.0  0.39875  0.75350  0.87712  1.0000
  C   C874      1.0  0.31619  0.75442  0.43203  1.0000
  C   C875      1.0  0.45548  0.91239  0.65920  1.0000
  C   C876      1.0  0.46792  0.90308  0.61823  1.0000
  H   H722      1.0  0.24573  0.90076  0.01858  1.0000
  C   C877      1.0  0.42237  0.74775  0.86538  1.0000
  H   H723      1.0  0.46766  0.94255  0.50242  1.0000
  C   C878      1.0  0.25235  0.88301  0.18246  1.0000
  H   H724      1.0  0.44733  0.78905  0.35435  1.0000
  H   H725      1.0  0.34692  0.98812  0.58245  1.0000
  C   C879      1.0  0.25059  0.86842  0.87970  1.0000
  C   C880      1.0  0.29720  0.76296  0.98877  1.0000
  C   C881      1.0  0.45754  0.93682  0.67209  1.0000
  H   H726      1.0  0.27042  0.70381  0.34124  1.0000
  H   H727      1.0  0.44418  0.90069  0.68083  1.0000
  C   C882      1.0  0.46997  0.69332  0.95432  1.0000
  C   C883      1.0  0.39952  0.72281  0.94154  1.0000
  H   H728      1.0  0.26328  0.83197  0.66014  1.0000
  H   H729      1.0  0.44784  0.94405  0.70380  1.0000
  C   C884      1.0  0.33437  0.95729  0.88449  1.0000
  C   C885      1.0  0.26047  0.90107  0.61187  1.0000
  C   C886      1.0  0.30098  0.73505  0.43940  1.0000
  C   C887      1.0  0.28809  0.71127  0.59222  1.0000
  H   H730      1.0  0.27377  0.72874  0.83894  1.0000
  C   C888      1.0  0.24232  0.92297  0.41909  1.0000
  C   C889      1.0  0.25846  0.83879  0.32434  1.0000
  H   H731      1.0  0.26680  0.92499  0.95697  1.0000
  C   C890      1.0  0.47245  0.84068  0.24642  1.0000
  C   C891      1.0  0.27121  0.74172  0.32215  1.0000
  H   H732      1.0  0.30460  0.76960  0.22578  1.0000
  H   H733      1.0  0.26909  0.79347  0.40851  1.0000
  C   C892      1.0  0.48262  0.67217  0.94052  1.0000
  C   C893      1.0  0.39534  0.97930  0.50896  1.0000
  C   C894      1.0  0.30082  0.71211  0.13754  1.0000
  C   C895      1.0  0.28973  0.90716  0.54738  1.0000
  H   H734      1.0  0.30347  0.89997  0.52305  1.0000
  C   C896      1.0  0.27698  0.70673  0.12881  1.0000
  C   C897      1.0  0.24605  0.80799  0.13992  1.0000
  H   H735      1.0  0.38128  0.97145  0.68375  1.0000
  P   P31       1.0  0.48229  0.78686  0.11520  1.0000
  H   H736      1.0  0.46975  0.85347  0.27674  1.0000
  C   C898      1.0  0.29306  0.66340  0.39517  1.0000
  C   C899      1.0  0.46212  0.80321  0.20497  1.0000
  C   C900      1.0  0.26459  0.81128  0.39392  1.0000
  C   C901      1.0  0.47859  0.80780  0.16699  1.0000
  C   C902      1.0  0.48246  0.71447  0.96497  1.0000
  C   C903      1.0  0.34898  0.67209  0.94122  1.0000
  H   H737      1.0  0.25113  0.92619  0.34126  1.0000
  C   C904      1.0  0.36901  0.98108  0.19791  1.0000
  H   H738      1.0  0.41070  0.96752  0.61594  1.0000
  H   H739      1.0  0.47349  0.73561  0.78529  1.0000
  C   C905      1.0  0.48358  0.94507  0.48065  1.0000
  H   H740      1.0  0.27723  0.82990  0.13374  1.0000
  C   C906      1.0  0.26193  0.79776  0.23737  1.0000
  H   H741      1.0  0.30517  0.66945  0.42385  1.0000
  C   C907      1.0  0.47843  0.75488  0.54602  1.0000
  H   H742      1.0  0.28034  0.76912  0.11041  1.0000
  H   H743      1.0  0.48007  0.87587  0.39543  1.0000
  C   C908      1.0  0.26708  0.81802  0.15756  1.0000
  C   C909      1.0  0.25241  0.92251  0.14338  1.0000
  H   H744      1.0  0.49122  0.76428  0.21413  1.0000
  C   C910      1.0  0.43397  0.70237  0.13508  1.0000
  S   S126      1.0  0.41814  0.66318  0.23932  1.0000
  S   S127      1.0  0.48556  0.81927  0.91776  1.0000
  H   H745      1.0  0.45075  0.66099  0.04755  1.0000
  C   C911      1.0  0.32632  0.97982  0.90186  1.0000
  H   H746      1.0  0.34408  0.97682  0.13715  1.0000
  H   H747      1.0  0.25690  0.82600  0.46670  1.0000
  C   C912      1.0  0.48898  0.84533  0.20914  1.0000
  C   C913      1.0  0.24337  0.89914  0.14670  1.0000
  H   H748      1.0  0.24485  0.86513  0.18558  1.0000
  H   H749      1.0  0.48979  0.81992  0.03040  1.0000
  H   H750      1.0  0.25456  0.90800  0.42573  1.0000
  H   H751      1.0  0.25370  0.97433  0.48064  1.0000
  H   H752      1.0  0.47359  0.97076  0.65504  1.0000
  H   H753      1.0  0.25772  0.84247  0.28476  1.0000
  H   H754      1.0  0.48683  0.74106  0.06088  1.0000
  C   C914      1.0  0.48260  0.91811  0.59048  1.0000
  C   C915      1.0  0.49128  0.75024  0.18617  1.0000
  C   C916      1.0  0.31294  0.97888  0.69877  1.0000
  C   C917      1.0  0.24571  0.71245  0.60775  1.0000
  C   C918      1.0  0.24726  0.68878  0.62650  1.0000
  C   C919      1.0  0.42620  0.66538  0.93954  1.0000
  C   C920      1.0  0.30184  0.97496  0.65276  1.0000
  H   H755      1.0  0.39346  0.66458  0.37573  1.0000
  H   H756      1.0  0.44817  0.66593  0.13902  1.0000
  C   C921      1.0  0.48610  0.75191  0.49678  1.0000
  C   C922      1.0  0.27329  0.98712  0.29390  1.0000
  S   S128      1.0  0.43322  0.66069  0.73442  1.0000
  C   C923      1.0  0.48889  0.73719  0.10011  1.0000
  C   C924      1.0  0.42802  0.66062  0.88816  1.0000
  P   P32       1.0  0.26338  0.97409  0.58729  1.0000
  C   C925      1.0  0.35190  0.98932  0.16358  1.0000
  H   H757      1.0  0.35016  0.66201  0.06697  1.0000
  C   C926      1.0  0.27758  0.98057  0.64631  1.0000
  H   H758      1.0  0.24508  0.86645  0.43457  1.0000
  C   C927      1.0  0.30207  0.98413  0.90957  1.0000
  H   H759      1.0  0.24603  0.87476  0.34360  1.0000
  H   H760      1.0  0.41181  0.98784  0.49905  1.0000
  H   H761      1.0  0.49093  0.75301  0.57668  1.0000
  H   H762      1.0  0.31219  0.96751  0.62216  1.0000
  C   C928      1.0  0.26826  0.98644  0.48730  1.0000
  C   C929      1.0  0.49200  0.82907  0.16949  1.0000
  H   H763      1.0  0.30842  0.99092  0.77478  1.0000
  C   C930      1.0  0.26440  0.98928  0.68725  1.0000
  C   C931      1.0  0.29982  0.98801  0.73900  1.0000
  C   C932      1.0  0.27701  0.98989  0.53590  1.0000
  C   C933      1.0  0.37968  0.99103  0.54229  1.0000
  C   C934      1.0  0.34993  0.65805  0.02750  1.0000
  Fe  Fe65      1.0  0.71352  0.16486  0.98232  1.0000
  S   S129      1.0  0.68841  0.13761  0.95042  1.0000
  H   H764      1.0  0.52508  0.15822  0.85230  1.0000
  Fe  Fe66      1.0  0.67773  0.18006  0.06432  1.0000
  S   S130      1.0  0.65012  0.15436  0.03795  1.0000
  S   S131      1.0  0.67088  0.20341  0.13240  1.0000
  Fe  Fe67      1.0  0.68061  0.12796  0.03004  1.0000
  S   S132      1.0  0.67632  0.09126  0.06505  1.0000
  Fe  Fe68      1.0  0.66004  0.16655  0.96133  1.0000
  S   S133      1.0  0.63220  0.17324  0.90151  1.0000
  S   S134      1.0  0.70770  0.15291  0.06161  1.0000
  S   S135      1.0  0.68561  0.19474  0.98787  1.0000
  Fe  Fe69      1.0  0.57417  0.15863  0.43794  1.0000
  S   S136      1.0  0.58815  0.16255  0.51605  1.0000
  S   S137      1.0  0.53492  0.16443  0.42306  1.0000
  Fe  Fe70      1.0  0.62424  0.15611  0.39291  1.0000
  S   S138      1.0  0.64178  0.16117  0.46732  1.0000
  S   S139      1.0  0.64584  0.14387  0.32644  1.0000
  Fe  Fe71      1.0  0.61517  0.13407  0.49362  1.0000
  S   S140      1.0  0.62869  0.10215  0.53889  1.0000
  Fe  Fe72      1.0  0.61317  0.18918  0.48245  1.0000
  S   S141      1.0  0.61401  0.22816  0.50917  1.0000
  S   S142      1.0  0.59889  0.12780  0.41856  1.0000
  S   S143      1.0  0.59797  0.18645  0.40499  1.0000
  H   H765      1.0  0.57325  0.20723  0.01922  1.0000
  S   S144      1.0  0.67524  0.27005  0.68797  1.0000
  H   H766      1.0  0.61348  0.19175  0.99593  1.0000
  C   C935      1.0  0.53594  0.29063  0.75227  1.0000
  C   C936      1.0  0.61941  0.31553  0.22854  1.0000
  C   C937      1.0  0.55220  0.29532  0.71408  1.0000
  C   C938      1.0  0.55104  0.21827  0.55628  1.0000
  H   H767      1.0  0.55094  0.28573  0.67899  1.0000
  C   C939      1.0  0.62979  0.23859  0.56177  1.0000
  C   C940      1.0  0.62663  0.26286  0.57642  1.0000
  C   C941      1.0  0.63998  0.27249  0.61592  1.0000
  C   C942      1.0  0.65674  0.25793  0.64098  1.0000
  C   C943      1.0  0.65946  0.23344  0.62715  1.0000
  C   C944      1.0  0.64598  0.22375  0.58776  1.0000
  H   H768      1.0  0.61409  0.27441  0.55658  1.0000
  H   H769      1.0  0.63770  0.29131  0.62617  1.0000
  H   H770      1.0  0.67230  0.22204  0.64635  1.0000
  H   H771      1.0  0.64851  0.20503  0.57674  1.0000
  C   C945      1.0  0.51661  0.13898  0.42594  1.0000
  H   H772      1.0  0.49918  0.09706  0.77112  1.0000
  C   C946      1.0  0.52566  0.11559  0.41740  1.0000
  C   C947      1.0  0.53410  0.25820  0.57095  1.0000
  H   H773      1.0  0.54428  0.11285  0.40877  1.0000
  C   C948      1.0  0.59444  0.02984  0.49771  1.0000
  C   C949      1.0  0.58318  0.05194  0.48537  1.0000
  C   C950      1.0  0.59385  0.07406  0.49705  1.0000
  C   C951      1.0  0.61559  0.07434  0.52237  1.0000
  C   C952      1.0  0.62681  0.05224  0.53518  1.0000
  C   C953      1.0  0.61643  0.03002  0.52224  1.0000
  H   H774      1.0  0.56604  0.05198  0.46701  1.0000
  H   H775      1.0  0.58480  0.09091  0.48790  1.0000
  H   H776      1.0  0.64359  0.05227  0.55494  1.0000
  H   H777      1.0  0.62515  0.01306  0.53226  1.0000
  C   C954      1.0  0.69961  0.07079  0.05130  1.0000
  C   C955      1.0  0.70420  0.05097  0.08288  1.0000
  C   C956      1.0  0.72346  0.03508  0.07327  1.0000
  C   C957      1.0  0.54513  0.24598  0.33367  1.0000
  H   H778      1.0  0.73061  0.17531  0.56462  1.0000
  C   C958      1.0  0.71376  0.07424  0.00930  1.0000
  H   H779      1.0  0.69310  0.04813  0.11511  1.0000
  C   C959      1.0  0.51049  0.09565  0.41953  1.0000
  H   H780      1.0  0.71020  0.08937  0.98461  1.0000
  C   C960      1.0  0.71133  0.10742  0.17358  1.0000
  H   H781      1.0  0.58602  0.07820  0.14879  1.0000
  H   H782      1.0  0.70311  0.99879  0.44022  1.0000
  C   C961      1.0  0.66332  0.18709  0.18641  1.0000
  C   C962      1.0  0.66268  0.19882  0.23292  1.0000
  C   C963      1.0  0.65622  0.18615  0.27625  1.0000
  C   C964      1.0  0.65055  0.16164  0.27304  1.0000
  C   C965      1.0  0.65090  0.15009  0.22653  1.0000
  C   C966      1.0  0.65736  0.16267  0.18336  1.0000
  H   H783      1.0  0.66706  0.21776  0.23530  1.0000
  H   H784      1.0  0.65619  0.19514  0.31211  1.0000
  H   H785      1.0  0.64645  0.13119  0.22409  1.0000
  H   H786      1.0  0.65792  0.15337  0.14787  1.0000
  C   C967      1.0  0.55792  0.20105  0.94659  1.0000
  C   C968      1.0  0.56230  0.19251  0.89835  1.0000
  C   C969      1.0  0.58504  0.18384  0.88528  1.0000
  C   C970      1.0  0.60367  0.18358  0.92017  1.0000
  C   C971      1.0  0.59928  0.19189  0.96868  1.0000
  C   C972      1.0  0.57648  0.20066  0.98178  1.0000
  H   H787      1.0  0.54821  0.19287  0.87090  1.0000
  H   H788      1.0  0.58816  0.17721  0.84806  1.0000
  H   H789      1.0  0.65156  0.00749  0.36502  1.0000
  H   H790      1.0  0.66357  0.02312  0.44689  1.0000
  C   C973      1.0  0.54092  0.16279  0.06550  1.0000
  C   C974      1.0  0.53967  0.16701  0.11695  1.0000
  C   C975      1.0  0.55921  0.16126  0.14781  1.0000
  P   P33       1.0  0.55908  0.16760  0.21406  1.0000
  C   C976      1.0  0.53125  0.17960  0.23812  1.0000
  C   C977      1.0  0.56589  0.13896  0.24367  1.0000
  C   C978      1.0  0.54996  0.11978  0.23890  1.0000
  C   C979      1.0  0.55480  0.09753  0.26221  1.0000
  C   C980      1.0  0.57574  0.09419  0.28966  1.0000
  C   C981      1.0  0.59191  0.11300  0.29331  1.0000
  C   C982      1.0  0.58703  0.13535  0.27060  1.0000
  C   C983      1.0  0.58048  0.19052  0.22931  1.0000
  C   C984      1.0  0.59556  0.20015  0.19295  1.0000
  C   C985      1.0  0.61115  0.21865  0.20545  1.0000
  C   C986      1.0  0.61173  0.22782  0.25397  1.0000
  C   C987      1.0  0.59672  0.21848  0.29023  1.0000
  C   C988      1.0  0.58123  0.19982  0.27806  1.0000
  H   H791      1.0  0.52613  0.16794  0.04140  1.0000
  H   H792      1.0  0.52344  0.17465  0.13199  1.0000
  H   H793      1.0  0.53366  0.12217  0.21772  1.0000
  H   H794      1.0  0.54227  0.08291  0.25931  1.0000
  H   H795      1.0  0.57948  0.07706  0.30810  1.0000
  H   H796      1.0  0.60818  0.11040  0.31433  1.0000
  H   H797      1.0  0.59978  0.14969  0.27425  1.0000
  C   C989      1.0  0.64874  0.00631  0.25211  1.0000
  H   H798      1.0  0.62429  0.24170  0.26361  1.0000
  H   H799      1.0  0.59733  0.22543  0.32803  1.0000
  H   H800      1.0  0.56990  0.19251  0.30676  1.0000
  C   C990      1.0  0.53730  0.12755  0.55591  1.0000
  C   C991      1.0  0.54152  0.10276  0.54868  1.0000
  C   C992      1.0  0.55345  0.08919  0.58526  1.0000
  C   C993      1.0  0.56123  0.10041  0.62899  1.0000
  C   C994      1.0  0.55704  0.12535  0.63654  1.0000
  C   C995      1.0  0.54476  0.13877  0.59994  1.0000
  P   P34       1.0  0.56655  0.13961  0.69376  1.0000
  C   C996      1.0  0.54524  0.13396  0.74265  1.0000
  C   C997      1.0  0.59539  0.12679  0.70981  1.0000
  C   C998      1.0  0.60133  0.12136  0.75958  1.0000
  C   C999      1.0  0.62341  0.11067  0.77119  1.0000
  C   C1000     1.0  0.63960  0.10510  0.73323  1.0000
  C   C1001     1.0  0.63385  0.11051  0.68366  1.0000
  C   C1002     1.0  0.61191  0.12139  0.67198  1.0000
  C   C1003     1.0  0.54396  0.14930  0.78453  1.0000
  C   C1004     1.0  0.63812  0.30641  0.25774  1.0000
  C   C1005     1.0  0.57010  0.31245  0.72113  1.0000
  H   H801      1.0  0.62067  0.10277  0.12443  1.0000
  C   C1006     1.0  0.52925  0.11479  0.73861  1.0000
  C   C1007     1.0  0.56877  0.17204  0.68436  1.0000
  C   C1008     1.0  0.54902  0.18740  0.69334  1.0000
  C   C1009     1.0  0.55093  0.21255  0.68887  1.0000
  C   C1010     1.0  0.57250  0.22258  0.67491  1.0000
  C   C1011     1.0  0.59198  0.20744  0.66415  1.0000
  C   C1012     1.0  0.59011  0.18226  0.66840  1.0000
  C   C1013     1.0  0.57955  0.15028  0.12661  1.0000
  H   H802      1.0  0.53574  0.09406  0.51458  1.0000
  H   H803      1.0  0.55703  0.07002  0.57924  1.0000
  H   H804      1.0  0.57061  0.08961  0.65675  1.0000
  H   H805      1.0  0.54100  0.15786  0.60522  1.0000
  H   H806      1.0  0.58905  0.12533  0.78959  1.0000
  H   H807      1.0  0.62796  0.10666  0.80972  1.0000
  H   H808      1.0  0.65661  0.09662  0.74221  1.0000
  H   H809      1.0  0.64622  0.10597  0.65396  1.0000
  H   H810      1.0  0.60772  0.12518  0.63318  1.0000
  H   H811      1.0  0.55622  0.16405  0.78889  1.0000
  C   C1014     1.0  0.52274  0.29138  0.01023  1.0000
  C   C1015     1.0  0.54052  0.25854  0.16967  1.0000
  C   C1016     1.0  0.66464  0.00976  0.21241  1.0000
  H   H812      1.0  0.52986  0.10253  0.70714  1.0000
  H   H813      1.0  0.53215  0.18003  0.70431  1.0000
  H   H814      1.0  0.53569  0.22431  0.69639  1.0000
  H   H815      1.0  0.57403  0.24209  0.67182  1.0000
  H   H816      1.0  0.60864  0.21528  0.65309  1.0000
  H   H817      1.0  0.60550  0.17098  0.66007  1.0000
  C   C1017     1.0  0.66776  0.25932  0.46638  1.0000
  C   C1018     1.0  0.68105  0.24637  0.50189  1.0000
  C   C1019     1.0  0.69455  0.25875  0.53720  1.0000
  C   C1020     1.0  0.69510  0.28407  0.53659  1.0000
  C   C1021     1.0  0.68245  0.29720  0.49997  1.0000
  C   C1022     1.0  0.66838  0.28465  0.46544  1.0000
  C   C1023     1.0  0.69459  0.16279  0.56136  1.0000
  H   H818      1.0  0.70820  0.15192  0.26060  1.0000
  H   H819      1.0  0.63634  0.30969  0.00804  1.0000
  H   H820      1.0  0.65639  0.24967  0.44073  1.0000
  H   H821      1.0  0.68006  0.22678  0.50341  1.0000
  C   C1024     1.0  0.60985  0.28680  0.31178  1.0000
  H   H822      1.0  0.66703  0.02735  0.19593  1.0000
  H   H823      1.0  0.65759  0.29444  0.43838  1.0000
  C   C1025     1.0  0.72022  0.00369  0.42509  1.0000
  C   C1026     1.0  0.73137  0.25997  0.08339  1.0000
  C   C1027     1.0  0.59087  0.00272  0.26447  1.0000
  H   H824      1.0  0.64789  0.28499  0.32195  1.0000
  H   H825      1.0  0.72724  0.02000  0.09802  1.0000
  C   C1028     1.0  0.72754  0.19300  0.79638  1.0000
  H   H826      1.0  0.57496  0.28716  0.40401  1.0000
  C   C1029     1.0  0.69576  0.11992  0.41923  1.0000
  C   C1030     1.0  0.59160  0.02685  0.34011  1.0000
  C   C1031     1.0  0.55392  0.24314  0.56298  1.0000
  C   C1032     1.0  0.60286  0.07569  0.16794  1.0000
  C   C1033     1.0  0.70486  0.23176  0.30759  1.0000
  C   C1034     1.0  0.71247  0.23684  0.25919  1.0000
  C   C1035     1.0  0.73773  0.03872  0.03144  1.0000
  Fe  Fe73      1.0  0.50286  0.22401  0.90389  1.0000
  H   H827      1.0  0.59657  0.13799  0.05890  1.0000
  C   C1036     1.0  0.68918  0.25897  0.06603  1.0000
  C   C1037     1.0  0.62871  0.32077  0.97854  1.0000
  C   C1038     1.0  0.59592  0.31040  0.24092  1.0000
  H   H828      1.0  0.69422  0.24499  0.32789  1.0000
  H   H829      1.0  0.70774  0.25402  0.24188  1.0000
  C   C1039     1.0  0.51144  0.24831  0.57329  1.0000
  C   C1040     1.0  0.52639  0.14607  0.82059  1.0000
  C   C1041     1.0  0.72902  0.08540  0.38458  1.0000
  C   C1042     1.0  0.58065  0.14595  0.07525  1.0000
  C   C1043     1.0  0.55330  0.26560  0.21195  1.0000
  H   H830      1.0  0.50850  0.26380  0.12639  1.0000
  H   H831      1.0  0.69505  0.13329  0.34385  1.0000
  C   C1044     1.0  0.52842  0.20826  0.55888  1.0000
  C   C1045     1.0  0.53768  0.30305  0.79762  1.0000
  C   C1046     1.0  0.71585  0.10737  0.75399  1.0000
  C   C1047     1.0  0.73241  0.05787  0.99875  1.0000
  C   C1048     1.0  0.56137  0.15230  0.04469  1.0000
  S   S145      1.0  0.57959  0.00264  0.48464  1.0000
  C   C1049     1.0  0.61592  0.23800  0.06124  1.0000
  C   C1050     1.0  0.59700  0.24919  0.08653  1.0000
  C   C1051     1.0  0.58484  0.26888  0.06507  1.0000
  C   C1052     1.0  0.59149  0.27732  0.01814  1.0000
  C   C1053     1.0  0.61038  0.26613  0.99228  1.0000
  C   C1054     1.0  0.62260  0.24639  0.01418  1.0000
  P   P35       1.0  0.61811  0.27732  0.93127  1.0000
  C   C1055     1.0  0.61874  0.31001  0.93597  1.0000
  C   C1056     1.0  0.64662  0.26543  0.91117  1.0000
  C   C1057     1.0  0.66622  0.28059  0.90604  1.0000
  C   C1058     1.0  0.68788  0.27123  0.88842  1.0000
  C   C1059     1.0  0.69012  0.24670  0.87575  1.0000
  C   C1060     1.0  0.67064  0.23153  0.88047  1.0000
  C   C1061     1.0  0.64893  0.24088  0.89772  1.0000
  C   C1062     1.0  0.72477  0.19252  0.30363  1.0000
  C   C1063     1.0  0.71222  0.13052  0.73377  1.0000
  S   S146      1.0  0.50203  0.21394  0.82270  1.0000
  H   H832      1.0  0.56209  0.02219  0.38992  1.0000
  H   H833      1.0  0.52888  0.20875  0.18443  1.0000
  C   C1064     1.0  0.59689  0.26751  0.88522  1.0000
  C   C1065     1.0  0.57586  0.25612  0.89910  1.0000
  C   C1066     1.0  0.56030  0.24772  0.86252  1.0000
  C   C1067     1.0  0.56576  0.25007  0.81211  1.0000
  C   C1068     1.0  0.58648  0.26166  0.79797  1.0000
  C   C1069     1.0  0.60204  0.27016  0.83439  1.0000
  H   H834      1.0  0.62538  0.22265  0.07779  1.0000
  H   H835      1.0  0.59168  0.24259  0.12264  1.0000
  H   H836      1.0  0.57022  0.27764  0.08464  1.0000
  H   H837      1.0  0.58186  0.29256  0.00185  1.0000
  H   H838      1.0  0.63718  0.23730  0.99526  1.0000
  H   H839      1.0  0.66485  0.29973  0.91471  1.0000
  H   H840      1.0  0.70279  0.28318  0.88391  1.0000
  H   H841      1.0  0.70684  0.23948  0.86184  1.0000
  H   H842      1.0  0.67222  0.21251  0.87041  1.0000
  H   H843      1.0  0.63392  0.22890  0.90038  1.0000
  H   H844      1.0  0.60155  0.31731  0.86475  1.0000
  H   H845      1.0  0.73570  0.14303  0.87434  1.0000
  C   C1070     1.0  0.70549  0.10277  0.45213  1.0000
  H   H846      1.0  0.53366  0.21122  0.36079  1.0000
  H   H847      1.0  0.49253  0.22722  0.22050  1.0000
  H   H848      1.0  0.57150  0.25319  0.93785  1.0000
  H   H849      1.0  0.54417  0.23890  0.87334  1.0000
  H   H850      1.0  0.55378  0.24312  0.78405  1.0000
  H   H851      1.0  0.59060  0.26390  0.75881  1.0000
  H   H852      1.0  0.61825  0.27854  0.82293  1.0000
  C   C1071     1.0  0.65182  0.07683  0.38874  1.0000
  C   C1072     1.0  0.65880  0.06069  0.42638  1.0000
  C   C1073     1.0  0.65895  0.03575  0.41727  1.0000
  C   C1074     1.0  0.65215  0.02691  0.37055  1.0000
  C   C1075     1.0  0.64487  0.04298  0.33260  1.0000
  C   C1076     1.0  0.64478  0.06805  0.34215  1.0000
  P   P36       1.0  0.63092  0.03122  0.27699  1.0000
  H   H853      1.0  0.70513  0.29327  0.56521  1.0000
  H   H854      1.0  0.53630  0.27754  0.57579  1.0000
  C   C1077     1.0  0.71095  0.20958  0.32973  1.0000
  H   H855      1.0  0.62345  0.22535  0.17784  1.0000
  C   C1078     1.0  0.52136  0.17017  0.28203  1.0000
  C   C1079     1.0  0.52094  0.20053  0.21680  1.0000
  C   C1080     1.0  0.52265  0.29560  0.23103  1.0000
  H   H856      1.0  0.71519  0.30206  0.99569  1.0000
  H   H857      1.0  0.52966  0.15503  0.30156  1.0000
  H   H858      1.0  0.52530  0.29950  0.82729  1.0000
  C   C1081     1.0  0.62722  0.05463  0.23006  1.0000
  C   C1082     1.0  0.64643  0.06922  0.21699  1.0000
  C   C1083     1.0  0.64397  0.08641  0.17895  1.0000
  C   C1084     1.0  0.60533  0.05814  0.20539  1.0000
  H   H859      1.0  0.65110  0.09615  0.39614  1.0000
  H   H860      1.0  0.66345  0.06751  0.46300  1.0000
  C   C1085     1.0  0.71505  0.19780  0.75201  1.0000
  S   S147      1.0  0.64982  0.31259  0.79187  1.0000
  H   H861      1.0  0.63860  0.08092  0.31448  1.0000
  H   H862      1.0  0.58164  0.31827  0.21859  1.0000
  H   H863      1.0  0.56648  0.20681  0.54951  1.0000
  H   H864      1.0  0.60001  0.03961  0.36497  1.0000
  H   H865      1.0  0.56240  0.14939  0.00470  1.0000
  H   H866      1.0  0.52646  0.18900  0.55290  1.0000
  C   C1086     1.0  0.71955  0.21926  0.72574  1.0000
  H   H867      1.0  0.52819  0.13809  0.52739  1.0000
  C   C1087     1.0  0.71928  0.10287  0.35195  1.0000
  H   H868      1.0  0.66347  0.06697  0.23553  1.0000
  H   H869      1.0  0.65896  0.09713  0.16777  1.0000
  H   H870      1.0  0.59015  0.04732  0.21461  1.0000
  C   C1088     1.0  0.56401  0.25224  0.42936  1.0000
  C   C1089     1.0  0.55226  0.23092  0.41742  1.0000
  H   H871      1.0  0.59888  0.99681  0.22971  1.0000
  H   H872      1.0  0.59479  0.14549  0.14972  1.0000
  C   C1090     1.0  0.55716  0.26742  0.34529  1.0000
  C   C1091     1.0  0.56613  0.27057  0.39378  1.0000
  S   S148      1.0  0.51342  0.26945  0.74196  1.0000
  C   C1092     1.0  0.53286  0.30023  0.96656  1.0000
  H   H873      1.0  0.57166  0.25447  0.46617  1.0000
  H   H874      1.0  0.55072  0.21664  0.44499  1.0000
  C   C1093     1.0  0.70349  0.12060  0.21505  1.0000
  C   C1094     1.0  0.50852  0.22312  0.56897  1.0000
  C   C1095     1.0  0.71376  0.17721  0.63663  1.0000
  H   H875      1.0  0.70166  0.31078  0.40470  1.0000
  H   H876      1.0  0.73187  0.22421  0.19564  1.0000
  C   C1096     1.0  0.67402  0.15825  0.58852  1.0000
  C   C1097     1.0  0.52531  0.31759  0.35122  1.0000
  C   C1098     1.0  0.73646  0.23546  0.74342  1.0000
  H   H877      1.0  0.49367  0.17353  0.33688  1.0000
  C   C1099     1.0  0.69289  0.17337  0.66389  1.0000
  C   C1100     1.0  0.67312  0.16361  0.63944  1.0000
  P   P37       1.0  0.69245  0.17726  0.73084  1.0000
  C   C1101     1.0  0.69749  0.14759  0.75809  1.0000
  H   H878      1.0  0.72971  0.07255  0.46099  1.0000
  H   H879      1.0  0.51547  0.31030  0.25345  1.0000
  P   P38       1.0  0.56024  0.29143  0.29991  1.0000
  C   C1102     1.0  0.68690  0.14130  0.80359  1.0000
  C   C1103     1.0  0.69026  0.11798  0.82318  1.0000
  H   H880      1.0  0.72122  0.13509  0.69951  1.0000
  Fe  Fe74      1.0  0.66785  0.30806  0.71781  1.0000
  C   C1104     1.0  0.72610  0.21972  0.23282  1.0000
  C   C1105     1.0  0.66372  0.18953  0.74845  1.0000
  C   C1106     1.0  0.64443  0.17406  0.75403  1.0000
  C   C1107     1.0  0.62235  0.18324  0.76902  1.0000
  C   C1108     1.0  0.61918  0.20798  0.77794  1.0000
  C   C1109     1.0  0.63806  0.22367  0.77095  1.0000
  C   C1110     1.0  0.66027  0.21450  0.75659  1.0000
  H   H881      1.0  0.65879  0.15028  0.57034  1.0000
  H   H882      1.0  0.60671  0.27562  0.34405  1.0000
  H   H883      1.0  0.59562  0.19348  0.15504  1.0000
  H   H884      1.0  0.70961  0.22381  0.69224  1.0000
  H   H885      1.0  0.65708  0.15967  0.65965  1.0000
  H   H886      1.0  0.72206  0.03328  0.29506  1.0000
  H   H887      1.0  0.63561  0.31077  0.52145  1.0000
  H   H888      1.0  0.67602  0.15431  0.82406  1.0000
  H   H889      1.0  0.68167  0.11299  0.85766  1.0000
  S   S149      1.0  0.49946  0.26407  0.88954  1.0000
  C   C1111     1.0  0.60232  0.01965  0.29501  1.0000
  H   H890      1.0  0.58242  0.31625  0.69137  1.0000
  H   H891      1.0  0.64652  0.15484  0.74755  1.0000
  H   H892      1.0  0.60774  0.17112  0.77412  1.0000
  H   H893      1.0  0.60210  0.21481  0.79039  1.0000
  H   H894      1.0  0.63576  0.24295  0.77704  1.0000
  H   H895      1.0  0.67456  0.22709  0.75224  1.0000
  C   C1112     1.0  0.54764  0.31851  0.32808  1.0000
  S   S150      1.0  0.52956  0.21246  0.96381  1.0000
  H   H896      1.0  0.71950  0.03089  0.20323  1.0000
  C   C1113     1.0  0.62225  0.08965  0.15442  1.0000
  C   C1114     1.0  0.70273  0.12004  0.36930  1.0000
  H   H897      1.0  0.54747  0.24433  0.14558  1.0000
  H   H898      1.0  0.72392  0.17700  0.81803  1.0000
  C   C1115     1.0  0.71515  0.14166  0.22945  1.0000
  H   H899      1.0  0.68257  0.13296  0.43214  1.0000
  H   H900      1.0  0.69987  0.10260  0.49079  1.0000
  C   C1116     1.0  0.50334  0.00686  0.61573  1.0000
  C   C1117     1.0  0.69156  0.27778  0.03163  1.0000
  H   H901      1.0  0.57156  0.25068  0.56180  1.0000
  H   H902      1.0  0.67614  0.28460  0.01149  1.0000
  H   H903      1.0  0.67198  0.25106  0.07251  1.0000
  H   H904      1.0  0.68814  0.11470  0.23567  1.0000
  C   C1118     1.0  0.56995  0.01703  0.35450  1.0000
  C   C1119     1.0  0.73115  0.04387  0.22066  1.0000
  H   H905      1.0  0.70941  0.04025  0.40941  1.0000
  C   C1120     1.0  0.54427  0.28391  0.24346  1.0000
  H   H906      1.0  0.57005  0.25656  0.22059  1.0000
  C   C1121     1.0  0.54271  0.22786  0.36973  1.0000
  H   H907      1.0  0.72433  0.10335  0.31308  1.0000
  C   C1122     1.0  0.72394  0.02722  0.40773  1.0000
  C   C1123     1.0  0.71387  0.28769  0.02287  1.0000
  C   C1124     1.0  0.70483  0.10108  0.79862  1.0000
  H   H908      1.0  0.72753  0.09441  0.73541  1.0000
  C   C1125     1.0  0.55887  0.99995  0.32429  1.0000
  C   C1126     1.0  0.63335  0.29197  0.29922  1.0000
  H   H909      1.0  0.70778  0.08319  0.81449  1.0000
  H   H910      1.0  0.70503  0.20558  0.36720  1.0000
  H   H911      1.0  0.51752  0.07757  0.41262  1.0000
  H   H912      1.0  0.70734  0.23554  0.11843  1.0000
  H   H913      1.0  0.70397  0.24876  0.56619  1.0000
  C   C1127     1.0  0.70909  0.25017  0.09195  1.0000
  H   H914      1.0  0.54004  0.28775  0.93906  1.0000
  H   H915      1.0  0.72974  0.17560  0.32170  1.0000
  H   H916      1.0  0.51417  0.99856  0.64475  1.0000
  C   C1128     1.0  0.59090  0.29618  0.28290  1.0000
  H   H917      1.0  0.53755  0.24307  0.29712  1.0000
  C   C1129     1.0  0.51018  0.12737  0.81553  1.0000
  H   H918      1.0  0.72967  0.18354  0.65495  1.0000
  C   C1130     1.0  0.51177  0.11158  0.77487  1.0000
  H   H919      1.0  0.51563  0.30081  0.35226  1.0000
  C   C1131     1.0  0.51862  0.26963  0.15863  1.0000
  H   H920      1.0  0.70207  0.09135  0.16178  1.0000
  C   C1132     1.0  0.73234  0.19736  0.25478  1.0000
  H   H921      1.0  0.69524  0.15863  0.52186  1.0000
  C   C1133     1.0  0.73281  0.04516  0.27267  1.0000
  C   C1134     1.0  0.72219  0.08564  0.43499  1.0000
  C   C1135     1.0  0.50984  0.28835  0.18896  1.0000
  C   C1136     1.0  0.71446  0.17225  0.58542  1.0000
  H   H922      1.0  0.52178  0.27196  0.01617  1.0000
  H   H923      1.0  0.73032  0.18923  0.12706  1.0000
  C   C1137     1.0  0.73399  0.27882  0.04877  1.0000
  H   H924      1.0  0.54715  0.99182  0.56639  1.0000
  H   H925      1.0  0.70123  0.99266  0.32819  1.0000
  C   C1138     1.0  0.55509  0.32067  0.80404  1.0000
  H   H926      1.0  0.50564  0.30097  0.07947  1.0000
  H   H927      1.0  0.73948  0.25218  0.72336  1.0000
  Fe  Fe75      1.0  0.49518  0.25361  0.80927  1.0000
  H   H928      1.0  0.50304  0.04197  0.65117  1.0000
  C   C1139     1.0  0.50094  0.18086  0.30270  1.0000
  H   H929      1.0  0.65628  0.31078  0.24838  1.0000
  C   C1140     1.0  0.50047  0.21116  0.23744  1.0000
  C   C1141     1.0  0.49704  0.03146  0.61955  1.0000
  C   C1142     1.0  0.51370  0.30760  0.04579  1.0000
  H   H930      1.0  0.49628  0.12523  0.84303  1.0000
  C   C1143     1.0  0.56929  0.99285  0.27920  1.0000
  H   H931      1.0  0.49633  0.26038  0.57900  1.0000
  C   C1144     1.0  0.73123  0.11488  0.14723  1.0000
  C   C1145     1.0  0.73523  0.14930  0.20324  1.0000
  C   C1146     1.0  0.49589  0.99320  0.57444  1.0000
  H   H932      1.0  0.73719  0.10464  0.11491  1.0000
  H   H933      1.0  0.69025  0.99295  0.16289  1.0000
  C   C1147     1.0  0.49245  0.14233  0.43699  1.0000
  H   H934      1.0  0.49304  0.29738  0.18005  1.0000
  H   H935      1.0  0.49466  0.32110  0.75939  1.0000
  H   H936      1.0  0.54241  0.99196  0.33631  1.0000
  Fe  Fe76      1.0  0.58888  0.59974  0.20187  1.0000
  S   S151      1.0  0.58321  0.59620  0.28414  1.0000
  S   S152      1.0  0.59692  0.56680  0.15393  1.0000
  Fe  Fe77      1.0  0.55288  0.62289  0.27219  1.0000
  S   S153      1.0  0.51692  0.61725  0.30793  1.0000
  C   C1148     1.0  0.74053  0.53324  0.97565  1.0000
  S   S154      1.0  0.55629  0.62321  0.18909  1.0000
  Fe  Fe78      1.0  0.67696  0.34058  0.80916  1.0000
  S   S155      1.0  0.65527  0.37141  0.77753  1.0000
  S   S156      1.0  0.69434  0.34095  0.88573  1.0000
  H   H937      1.0  0.62052  0.38023  0.94842  1.0000
  S   S157      1.0  0.64577  0.33678  0.67942  1.0000
  Fe  Fe79      1.0  0.67368  0.36277  0.70554  1.0000
  S   S158      1.0  0.68983  0.39061  0.65397  1.0000
  Fe  Fe80      1.0  0.62952  0.34283  0.75479  1.0000
  H   H938      1.0  0.56397  0.64425  0.74126  1.0000
  C   C1149     1.0  0.71960  0.49748  0.06338  1.0000
  Fe  Fe81      1.0  0.65561  0.41650  0.11369  1.0000
  S   S159      1.0  0.65301  0.37915  0.14473  1.0000
  S   S160      1.0  0.66001  0.42502  0.03208  1.0000
  Fe  Fe82      1.0  0.64911  0.43989  0.21488  1.0000
  S   S161      1.0  0.64677  0.40396  0.25486  1.0000
  S   S162      1.0  0.64627  0.47512  0.25797  1.0000
  Fe  Fe83      1.0  0.67729  0.39237  0.20561  1.0000
  S   S163      1.0  0.70788  0.36571  0.21917  1.0000
  Fe  Fe84      1.0  0.62288  0.39393  0.19098  1.0000
  S   S164      1.0  0.58944  0.37176  0.19492  1.0000
  S   S165      1.0  0.68170  0.42910  0.17105  1.0000
  S   S166      1.0  0.62331  0.43040  0.15448  1.0000
  Fe  Fe85      1.0  0.70166  0.57099  0.59924  1.0000
  S   S167      1.0  0.69771  0.56721  0.68299  1.0000
  S   S168      1.0  0.66854  0.58505  0.55607  1.0000
  Fe  Fe86      1.0  0.71224  0.52935  0.67251  1.0000
  S   S169      1.0  0.69496  0.50080  0.71998  1.0000
  S   S170      1.0  0.71440  0.53224  0.58896  1.0000
  C   C1150     1.0  0.52167  0.40128  0.26999  1.0000
  C   C1151     1.0  0.52120  0.38014  0.24113  1.0000
  C   C1152     1.0  0.54207  0.37141  0.21802  1.0000
  C   C1153     1.0  0.56346  0.38394  0.22286  1.0000
  C   C1154     1.0  0.56383  0.40540  0.25073  1.0000
  C   C1155     1.0  0.54304  0.41390  0.27461  1.0000
  H   H939      1.0  0.50487  0.37021  0.23767  1.0000
  H   H940      1.0  0.54166  0.35479  0.19662  1.0000
  H   H941      1.0  0.58019  0.41524  0.25444  1.0000
  H   H942      1.0  0.54348  0.43030  0.29672  1.0000
  C   C1156     1.0  0.68484  0.36431  0.92654  1.0000
  C   C1157     1.0  0.67380  0.38539  0.90816  1.0000
  C   C1158     1.0  0.66628  0.40383  0.94092  1.0000
  C   C1159     1.0  0.66959  0.40131  0.99248  1.0000
  C   C1160     1.0  0.68096  0.38039  0.01111  1.0000
  C   C1161     1.0  0.68873  0.36201  0.97812  1.0000
  H   H943      1.0  0.67137  0.38778  0.86863  1.0000
  H   H944      1.0  0.65789  0.42013  0.92619  1.0000
  H   H945      1.0  0.68401  0.37847  0.05077  1.0000
  H   H946      1.0  0.69757  0.34593  0.99266  1.0000
  C   C1162     1.0  0.69263  0.42088  0.67424  1.0000
  C   C1163     1.0  0.70542  0.43729  0.64519  1.0000
  C   C1164     1.0  0.70671  0.46184  0.65911  1.0000
  C   C1165     1.0  0.69532  0.47001  0.70242  1.0000
  C   C1166     1.0  0.68321  0.45345  0.73226  1.0000
  C   C1167     1.0  0.68173  0.42903  0.71806  1.0000
  H   H947      1.0  0.71426  0.43107  0.61168  1.0000
  H   H948      1.0  0.71623  0.47445  0.63604  1.0000
  H   H949      1.0  0.67440  0.45967  0.76585  1.0000
  H   H950      1.0  0.67176  0.41667  0.74060  1.0000
  C   C1168     1.0  0.63059  0.60458  0.43127  1.0000
  C   C1169     1.0  0.63741  0.59546  0.47861  1.0000
  C   C1170     1.0  0.66147  0.59384  0.49325  1.0000
  C   C1171     1.0  0.67874  0.60082  0.45888  1.0000
  C   C1172     1.0  0.67192  0.61005  0.41151  1.0000
  H   H951      1.0  0.65800  0.38762  0.36694  1.0000
  H   H952      1.0  0.62385  0.58998  0.50441  1.0000
  H   H953      1.0  0.69729  0.59992  0.46942  1.0000
  H   H954      1.0  0.62386  0.60365  0.85541  1.0000
  H   H955      1.0  0.66238  0.60268  0.25242  1.0000
  C   C1173     1.0  0.51823  0.54904  0.07439  1.0000
  C   C1174     1.0  0.61058  0.54146  0.18346  1.0000
  C   C1175     1.0  0.62038  0.54315  0.23139  1.0000
  C   C1176     1.0  0.63139  0.52273  0.25373  1.0000
  C   C1177     1.0  0.63257  0.50045  0.22848  1.0000
  C   C1178     1.0  0.62284  0.49880  0.18049  1.0000
  C   C1179     1.0  0.61196  0.51922  0.15806  1.0000
  H   H956      1.0  0.61963  0.56023  0.25110  1.0000
  H   H957      1.0  0.63886  0.52416  0.29082  1.0000
  H   H958      1.0  0.62379  0.48188  0.16039  1.0000
  H   H959      1.0  0.60452  0.51779  0.12091  1.0000
  Fe  Fe87      1.0  0.58002  0.65506  0.20097  1.0000
  H   H960      1.0  0.57692  0.34204  0.30968  1.0000
  H   H961      1.0  0.52881  0.53839  0.26427  1.0000
  C   C1180     1.0  0.71998  0.46045  0.29542  1.0000
  H   H962      1.0  0.63993  0.47485  0.68095  1.0000
  H   H963      1.0  0.60275  0.58269  0.58375  1.0000
  H   H964      1.0  0.61198  0.60630  0.42146  1.0000
  C   C1181     1.0  0.64777  0.61249  0.39768  1.0000
  H   H965      1.0  0.67527  0.36277  0.29858  1.0000
  H   H966      1.0  0.55878  0.37835  0.34744  1.0000
  C   C1182     1.0  0.71618  0.50081  0.26059  1.0000
  C   C1183     1.0  0.54335  0.52595  0.27318  1.0000
  H   H967      1.0  0.73082  0.33600  0.45727  1.0000
  C   C1184     1.0  0.60984  0.35016  0.90284  1.0000
  H   H968      1.0  0.60283  0.56554  0.66913  1.0000
  C   C1185     1.0  0.73970  0.37517  0.80545  1.0000
  H   H969      1.0  0.61653  0.59030  0.74055  1.0000
  C   C1186     1.0  0.53690  0.55037  0.10873  1.0000
  H   H970      1.0  0.70920  0.39808  0.79039  1.0000
  H   H971      1.0  0.59326  0.60137  0.06215  1.0000
  C   C1187     1.0  0.57129  0.32545  0.76588  1.0000
  H   H972      1.0  0.71449  0.44173  0.29626  1.0000
  H   H973      1.0  0.66930  0.50307  0.54655  1.0000
  C   C1188     1.0  0.63839  0.37531  0.57822  1.0000
  C   C1189     1.0  0.68336  0.51096  0.13029  1.0000
  C   C1190     1.0  0.55979  0.34053  0.32741  1.0000
  C   C1191     1.0  0.52017  0.42474  0.15347  1.0000
  C   C1192     1.0  0.73408  0.35208  0.59797  1.0000
  H   H974      1.0  0.55938  0.55082  0.32469  1.0000
  S   S171      1.0  0.49631  0.41151  0.30308  1.0000
  H   H975      1.0  0.72918  0.35963  0.81518  1.0000
  H   H976      1.0  0.66119  0.64009  0.55366  1.0000
  C   C1193     1.0  0.57968  0.51743  0.31906  1.0000
  H   H977      1.0  0.68917  0.60546  0.77305  1.0000
  C   C1194     1.0  0.58717  0.64837  0.80489  1.0000
  C   C1195     1.0  0.71255  0.34455  0.57743  1.0000
  C   C1196     1.0  0.68941  0.33522  0.34763  1.0000
  H   H978      1.0  0.55035  0.56404  0.10460  1.0000
  C   C1197     1.0  0.52997  0.46608  0.17565  1.0000
  C   C1198     1.0  0.55157  0.46333  0.15000  1.0000
  C   C1199     1.0  0.55764  0.44122  0.12741  1.0000
  C   C1200     1.0  0.54206  0.42185  0.12969  1.0000
  C   C1201     1.0  0.61758  0.36200  0.58163  1.0000
  H   H979      1.0  0.62976  0.43675  0.63737  1.0000
  C   C1202     1.0  0.72844  0.39693  0.79179  1.0000
  C   C1203     1.0  0.72001  0.46028  0.89009  1.0000
  H   H980      1.0  0.69751  0.46643  0.04753  1.0000
  C   C1204     1.0  0.73130  0.34051  0.49656  1.0000
  H   H981      1.0  0.59626  0.48263  0.30515  1.0000
  C   C1205     1.0  0.54508  0.50320  0.24982  1.0000
  C   C1206     1.0  0.56394  0.48731  0.26261  1.0000
  C   C1207     1.0  0.61629  0.61724  0.60679  1.0000
  H   H982      1.0  0.55877  0.35527  0.05673  1.0000
  H   H983      1.0  0.67165  0.62304  0.65814  1.0000
  H   H984      1.0  0.59338  0.52316  0.34473  1.0000
  C   C1208     1.0  0.71680  0.55957  0.27608  1.0000
  H   H985      1.0  0.68542  0.61614  0.38602  1.0000
  H   H986      1.0  0.71583  0.46682  0.85286  1.0000
  C   C1209     1.0  0.49549  0.38149  0.84182  1.0000
  H   H987      1.0  0.73758  0.56805  0.93913  1.0000
  H   H988      1.0  0.56391  0.47818  0.14828  1.0000
  H   H989      1.0  0.57456  0.43898  0.10875  1.0000
  H   H990      1.0  0.54705  0.40448  0.11366  1.0000
  C   C1210     1.0  0.63665  0.32883  0.53686  1.0000
  C   C1211     1.0  0.62906  0.34600  0.98325  1.0000
  H   H991      1.0  0.73348  0.43656  0.02364  1.0000
  H   H992      1.0  0.69130  0.55618  0.41297  1.0000
  C   C1212     1.0  0.68126  0.34085  0.43590  1.0000
  C   C1213     1.0  0.56063  0.53305  0.30754  1.0000
  C   C1214     1.0  0.51447  0.33257  0.03752  1.0000
  C   C1215     1.0  0.61672  0.33875  0.56098  1.0000
  H   H993      1.0  0.59891  0.63382  0.79304  1.0000
  H   H994      1.0  0.71865  0.40872  0.95920  1.0000
  H   H995      1.0  0.70761  0.51298  0.23414  1.0000
  C   C1216     1.0  0.62515  0.61910  0.96112  1.0000
  C   C1217     1.0  0.51494  0.33855  0.37173  1.0000
  C   C1218     1.0  0.61928  0.60640  0.00444  1.0000
  H   H996      1.0  0.73279  0.43347  0.76702  1.0000
  C   C1219     1.0  0.73012  0.44339  0.98633  1.0000
  Fe  Fe88      1.0  0.60662  0.62857  0.29024  1.0000
  C   C1220     1.0  0.50101  0.39028  0.01255  1.0000
  S   S172      1.0  0.69723  0.33344  0.73832  1.0000
  P   P39       1.0  0.61753  0.65436  0.88726  1.0000
  H   H997      1.0  0.65781  0.56587  0.30361  1.0000
  C   C1221     1.0  0.55324  0.38435  0.00305  1.0000
  C   C1222     1.0  0.56284  0.40570  0.98369  1.0000
  C   C1223     1.0  0.58473  0.41394  0.00107  1.0000
  C   C1224     1.0  0.59708  0.40103  0.03804  1.0000
  C   C1225     1.0  0.58762  0.37989  0.05769  1.0000
  C   C1226     1.0  0.56580  0.37154  0.04037  1.0000
  H   H998      1.0  0.63693  0.35424  0.01593  1.0000
  C   C1227     1.0  0.69950  0.48298  0.06879  1.0000
  H   H999      1.0  0.55341  0.41603  0.95527  1.0000
  H   H1000     1.0  0.59225  0.43032  0.98592  1.0000
  H   H1001     1.0  0.61403  0.40738  0.05145  1.0000
  P   P40       1.0  0.52479  0.37375  0.98126  1.0000
  H   H1002     1.0  0.60298  0.36161  0.87310  1.0000
  H   H1003     1.0  0.63641  0.50422  0.42993  1.0000
  C   C1228     1.0  0.52354  0.34153  0.99257  1.0000
  H   H1004     1.0  0.73061  0.49502  0.91636  1.0000
  C   C1229     1.0  0.67525  0.61480  0.79393  1.0000
  H   H1005     1.0  0.69758  0.32489  0.31765  1.0000
  H   H1006     1.0  0.72129  0.52607  0.44324  1.0000
  H   H1007     1.0  0.60238  0.36939  0.60160  1.0000
  C   C1230     1.0  0.53331  0.32517  0.95772  1.0000
  H   H1008     1.0  0.66590  0.47858  0.10573  1.0000
  C   C1231     1.0  0.71661  0.43595  0.90192  1.0000
  C   C1232     1.0  0.62451  0.63118  0.64689  1.0000
  C   C1233     1.0  0.72176  0.42750  0.94990  1.0000
  H   H1009     1.0  0.56551  0.46942  0.24631  1.0000
  C   C1234     1.0  0.49296  0.47640  0.27775  1.0000
  H   H1010     1.0  0.65529  0.44572  0.37142  1.0000
  C   C1235     1.0  0.53816  0.38113  0.83179  1.0000
  C   C1236     1.0  0.63993  0.63894  0.84999  1.0000
  C   C1237     1.0  0.65134  0.65586  0.54015  1.0000
  C   C1238     1.0  0.52089  0.51644  0.15470  1.0000
  H   H1011     1.0  0.64249  0.61599  0.94475  1.0000
  H   H1012     1.0  0.72548  0.39505  0.30448  1.0000
  H   H1013     1.0  0.57547  0.45253  0.44820  1.0000
  P   P41       1.0  0.52267  0.49473  0.20498  1.0000
  C   C1239     1.0  0.67927  0.64055  0.66591  1.0000
  H   H1014     1.0  0.67415  0.37617  0.55139  1.0000
  H   H1015     1.0  0.63948  0.39290  0.59597  1.0000
  C   C1240     1.0  0.56726  0.65416  0.77543  1.0000
  H   H1016     1.0  0.66928  0.51624  0.15584  1.0000
  C   C1241     1.0  0.60909  0.63619  0.94044  1.0000
  H   H1017     1.0  0.69206  0.53812  0.31840  1.0000
  C   C1242     1.0  0.72149  0.51862  0.09239  1.0000
  C   C1243     1.0  0.53839  0.53401  0.14850  1.0000
  H   H1018     1.0  0.70159  0.61236  0.21657  1.0000
  H   H1019     1.0  0.66173  0.37401  0.45391  1.0000
  C   C1244     1.0  0.63850  0.61391  0.84074  1.0000
  H   H1020     1.0  0.59719  0.37003  0.08668  1.0000
  H   H1021     1.0  0.55334  0.53517  0.17388  1.0000
  H   H1022     1.0  0.63069  0.63196  0.72656  1.0000
  C   C1245     1.0  0.60842  0.59367  0.61498  1.0000
  S   S173      1.0  0.57562  0.65535  0.28516  1.0000
  H   H1023     1.0  0.72146  0.53091  0.97685  1.0000
  H   H1024     1.0  0.65525  0.58254  0.80647  1.0000
  C   C1246     1.0  0.54109  0.37879  0.88339  1.0000
  C   C1247     1.0  0.69443  0.55417  0.29587  1.0000
  H   H1025     1.0  0.69154  0.64964  0.78784  1.0000
  C   C1248     1.0  0.66724  0.37069  0.37538  1.0000
  C   C1249     1.0  0.68145  0.48978  0.10202  1.0000
  H   H1026     1.0  0.63175  0.59336  0.02054  1.0000
  C   C1250     1.0  0.71927  0.58063  0.24725  1.0000
  C   C1251     1.0  0.51404  0.44677  0.17625  1.0000
  H   H1027     1.0  0.70957  0.42369  0.87422  1.0000
  H   H1028     1.0  0.73190  0.51288  0.78741  1.0000
  H   H1029     1.0  0.57989  0.43855  0.36069  1.0000
  C   C1252     1.0  0.65616  0.60191  0.81296  1.0000
  H   H1030     1.0  0.69729  0.34297  0.60164  1.0000
  C   C1253     1.0  0.62425  0.62146  0.69529  1.0000
  C   C1254     1.0  0.52703  0.36043  0.37039  1.0000
  H   H1031     1.0  0.61057  0.46340  0.49752  1.0000
  C   C1255     1.0  0.70305  0.64130  0.68099  1.0000
  C   C1256     1.0  0.59754  0.61090  0.02797  1.0000
  H   H1032     1.0  0.61632  0.62421  0.56908  1.0000
  H   H1033     1.0  0.69582  0.47042  0.23613  1.0000
  C   C1257     1.0  0.60852  0.58397  0.66314  1.0000
  H   H1034     1.0  0.50807  0.40970  0.15515  1.0000
  H   H1035     1.0  0.71542  0.39620  0.53495  1.0000
  H   H1036     1.0  0.50773  0.34476  0.06610  1.0000
  H   H1037     1.0  0.49698  0.44840  0.19455  1.0000
  C   C1258     1.0  0.67751  0.59056  0.25853  1.0000
  H   H1038     1.0  0.72483  0.57359  0.37064  1.0000
  C   C1259     1.0  0.67494  0.56971  0.28737  1.0000
  S   S174      1.0  0.61330  0.63144  0.20699  1.0000
  C   C1260     1.0  0.70945  0.47658  0.26149  1.0000
  C   C1261     1.0  0.65824  0.36552  0.55374  1.0000
  C   C1262     1.0  0.67701  0.35675  0.33684  1.0000
  H   H1039     1.0  0.71324  0.62460  0.68585  1.0000
  C   C1263     1.0  0.71082  0.33936  0.52623  1.0000
  C   C1264     1.0  0.58159  0.62804  0.00807  1.0000
  C   C1265     1.0  0.58728  0.64060  0.96450  1.0000
  H   H1040     1.0  0.52087  0.42336  0.02162  1.0000
  C   C1266     1.0  0.72837  0.47627  0.92644  1.0000
  C   C1267     1.0  0.73342  0.46797  0.97500  1.0000
  S   S175      1.0  0.64007  0.62768  0.34062  1.0000
  H   H1041     1.0  0.70887  0.48541  0.46976  1.0000
  C   C1268     1.0  0.67658  0.63974  0.80227  1.0000
  C   C1269     1.0  0.69964  0.59598  0.23837  1.0000
  C   C1270     1.0  0.58127  0.49455  0.29678  1.0000
  H   H1042     1.0  0.66421  0.65162  0.46505  1.0000
  H   H1043     1.0  0.60076  0.32822  0.56455  1.0000
  C   C1271     1.0  0.72938  0.36076  0.26673  1.0000
  S   S176      1.0  0.59093  0.34964  0.77293  1.0000
  H   H1044     1.0  0.55892  0.37687  0.89835  1.0000
  C   C1272     1.0  0.49530  0.49374  0.23991  1.0000
  H   H1045     1.0  0.61982  0.43588  0.32257  1.0000
  C   C1273     1.0  0.61630  0.59792  0.70334  1.0000
  C   C1274     1.0  0.69168  0.32734  0.39698  1.0000
  H   H1046     1.0  0.55359  0.38142  0.80771  1.0000
  H   H1047     1.0  0.70477  0.54182  0.14743  1.0000
  H   H1048     1.0  0.56501  0.63199  0.02717  1.0000
  H   H1049     1.0  0.57486  0.65422  0.95078  1.0000
  C   C1275     1.0  0.61973  0.36068  0.94530  1.0000
  C   C1276     1.0  0.52118  0.37819  0.91481  1.0000
  H   H1050     1.0  0.63876  0.43174  0.54758  1.0000
  H   H1051     1.0  0.65960  0.50777  0.63513  1.0000
  C   C1277     1.0  0.51540  0.38237  0.81097  1.0000
  C   C1278     1.0  0.70338  0.52537  0.12550  1.0000
  H   H1052     1.0  0.54121  0.33155  0.92357  1.0000
  H   H1053     1.0  0.55599  0.33069  0.83859  1.0000
  C   C1279     1.0  0.73487  0.37781  0.30378  1.0000
  C   C1280     1.0  0.65762  0.34211  0.53320  1.0000
  C   C1281     1.0  0.66939  0.36284  0.42477  1.0000
  H   H1054     1.0  0.50730  0.46358  0.28569  1.0000
  C   C1282     1.0  0.71660  0.42071  0.41867  1.0000
  C   C1283     1.0  0.72261  0.40548  0.45850  1.0000
  C   C1284     1.0  0.71041  0.40763  0.50355  1.0000
  C   C1285     1.0  0.69199  0.42481  0.50864  1.0000
  C   C1286     1.0  0.68570  0.44023  0.46868  1.0000
  C   C1287     1.0  0.69836  0.43812  0.42373  1.0000
  P   P42       1.0  0.66202  0.46284  0.47476  1.0000
  C   C1288     1.0  0.65459  0.46699  0.53998  1.0000
  C   C1289     1.0  0.67178  0.49152  0.45060  1.0000
  C   C1290     1.0  0.69576  0.49795  0.45434  1.0000
  C   C1291     1.0  0.70284  0.52108  0.43992  1.0000
  C   C1292     1.0  0.68600  0.53804  0.42268  1.0000
  C   C1293     1.0  0.66217  0.53175  0.41851  1.0000
  C   C1294     1.0  0.65505  0.50856  0.43232  1.0000
  C   C1295     1.0  0.66030  0.48849  0.56519  1.0000
  C   C1296     1.0  0.65468  0.49137  0.61561  1.0000
  C   C1297     1.0  0.64354  0.47280  0.64145  1.0000
  C   C1298     1.0  0.63785  0.45134  0.61683  1.0000
  C   C1299     1.0  0.64316  0.44850  0.56620  1.0000
  C   C1300     1.0  0.63600  0.45402  0.43949  1.0000
  C   C1301     1.0  0.63819  0.44656  0.38953  1.0000
  C   C1302     1.0  0.61802  0.44098  0.36143  1.0000
  C   C1303     1.0  0.59548  0.44276  0.38275  1.0000
  C   C1304     1.0  0.59302  0.45061  0.43203  1.0000
  C   C1305     1.0  0.61312  0.45648  0.46014  1.0000
  H   H1055     1.0  0.72640  0.41921  0.38414  1.0000
  H   H1056     1.0  0.64916  0.54509  0.40556  1.0000
  Fe  Fe89      1.0  0.73596  0.57810  0.69169  1.0000
  H   H1057     1.0  0.68325  0.42612  0.54433  1.0000
  H   H1058     1.0  0.69451  0.45026  0.39292  1.0000
  C   C1306     1.0  0.50425  0.41438  0.02787  1.0000
  H   H1059     1.0  0.73697  0.52991  0.08947  1.0000
  S   S177      1.0  0.73844  0.58608  0.60914  1.0000
  H   H1060     1.0  0.73699  0.39226  0.45468  1.0000
  H   H1061     1.0  0.49734  0.33802  0.38791  1.0000
  C   C1307     1.0  0.74192  0.41701  0.77885  1.0000
  H   H1062     1.0  0.73502  0.35685  0.63721  1.0000
  P   P43       1.0  0.68293  0.32996  0.49943  1.0000
  C   C1308     1.0  0.49832  0.37932  0.89353  1.0000
  H   H1063     1.0  0.73634  0.58550  0.23222  1.0000
  C   C1309     1.0  0.50260  0.51473  0.11916  1.0000
  C   C1310     1.0  0.65897  0.65182  0.82992  1.0000
  C   C1311     1.0  0.73363  0.50920  0.29365  1.0000
  C   C1312     1.0  0.73753  0.46853  0.32814  1.0000
  H   H1064     1.0  0.51711  0.56181  0.04375  1.0000
  C   C1313     1.0  0.50114  0.53114  0.07946  1.0000
  H   H1065     1.0  0.51325  0.38366  0.77085  1.0000
  H   H1066     1.0  0.51871  0.37685  0.38494  1.0000
  C   C1314     1.0  0.54957  0.36130  0.34895  1.0000
  C   C1315     1.0  0.74189  0.56605  0.38179  1.0000
  H   H1067     1.0  0.62301  0.32713  0.19688  1.0000
  H   H1068     1.0  0.51713  0.65607  0.92617  1.0000
  H   H1069     1.0  0.73727  0.32503  0.23830  1.0000
  C   C1316     1.0  0.74147  0.33837  0.26645  1.0000
  H   H1070     1.0  0.74131  0.58495  0.45232  1.0000
  C   C1317     1.0  0.60922  0.32492  0.89815  1.0000
  Fe  Fe90      1.0  0.61861  0.91884  0.52337  1.0000
  S   S178      1.0  0.62870  0.90395  0.44732  1.0000
  S   S179      1.0  0.62432  0.89798  0.59712  1.0000
  Fe  Fe91      1.0  0.59924  0.96650  0.47815  1.0000
  S   S180      1.0  0.60619  0.95393  0.40008  1.0000
  H   H1071     1.0  0.53889  0.69362  0.94579  1.0000
  Fe  Fe92      1.0  0.59220  0.91810  0.42549  1.0000
  S   S181      1.0  0.56404  0.89796  0.38155  1.0000
  Fe  Fe93      1.0  0.64221  0.94152  0.42831  1.0000
  S   S182      1.0  0.67335  0.95957  0.38615  1.0000
  S   S183      1.0  0.58218  0.93174  0.50117  1.0000
  S   S184      1.0  0.63521  0.95526  0.50683  1.0000
  Fe  Fe94      1.0  0.55656  0.80379  0.80835  1.0000
  S   S185      1.0  0.54995  0.80318  0.89170  1.0000
  S   S186      1.0  0.58274  0.82925  0.76946  1.0000
  Fe  Fe95      1.0  0.52468  0.76044  0.79215  1.0000
  S   S187      1.0  0.51435  0.75682  0.87256  1.0000
  S   S188      1.0  0.51827  0.73389  0.72967  1.0000
  Fe  Fe96      1.0  0.51159  0.79761  0.87036  1.0000
  H   H1072     1.0  0.54387  0.70040  0.84474  1.0000
  Fe  Fe97      1.0  0.55294  0.76235  0.89020  1.0000
  S   S189      1.0  0.57406  0.73530  0.93978  1.0000
  S   S190      1.0  0.51804  0.80079  0.78763  1.0000
  S   S191      1.0  0.56349  0.76350  0.80904  1.0000
  H   H1073     1.0  0.59607  0.86297  0.44915  1.0000
  H   H1074     1.0  0.53889  0.76693  0.65369  1.0000
  H   H1075     1.0  0.57847  0.68978  0.89752  1.0000
  S   S192      1.0  0.56881  0.69068  0.16129  1.0000
  H   H1076     1.0  0.49794  0.79429  0.45446  1.0000
  H   H1077     1.0  0.53316  0.70102  0.53704  1.0000
  H   H1078     1.0  0.51867  0.81003  0.27784  1.0000
  H   H1079     1.0  0.63174  0.74276  0.88948  1.0000
  H   H1080     1.0  0.50473  0.83340  0.14084  1.0000
  H   H1081     1.0  0.58343  0.76565  0.46753  1.0000
  C   C1318     1.0  0.57130  0.72253  0.00097  1.0000
  C   C1319     1.0  0.58511  0.70185  0.01361  1.0000
  C   C1320     1.0  0.58406  0.69133  0.06167  1.0000
  C   C1321     1.0  0.56946  0.70168  0.09843  1.0000
  C   C1322     1.0  0.55547  0.72224  0.08567  1.0000
  C   C1323     1.0  0.55614  0.73240  0.03724  1.0000
  H   H1082     1.0  0.59690  0.69403  0.98619  1.0000
  H   H1083     1.0  0.59509  0.67567  0.07069  1.0000
  H   H1084     1.0  0.54418  0.73047  0.11370  1.0000
  H   H1085     1.0  0.54531  0.74815  0.02821  1.0000
  C   C1324     1.0  0.55161  0.97527  0.58632  1.0000
  C   C1325     1.0  0.63695  0.66964  0.57257  1.0000
  C   C1326     1.0  0.63553  0.72549  0.90739  1.0000
  C   C1327     1.0  0.51763  0.72454  0.35182  1.0000
  C   C1328     1.0  0.59168  0.66138  0.84892  1.0000
  H   H1086     1.0  0.52221  0.74015  0.32982  1.0000
  H   H1087     1.0  0.49738  0.77276  0.29941  1.0000
  C   C1329     1.0  0.52410  0.95171  0.42260  1.0000
  C   C1330     1.0  0.50741  0.67235  0.93703  1.0000
  C   C1331     1.0  0.73403  0.94830  0.27002  1.0000
  C   C1332     1.0  0.71381  0.66354  0.68937  1.0000
  C   C1333     1.0  0.70441  0.93123  0.32715  1.0000
  C   C1334     1.0  0.69652  0.95447  0.34110  1.0000
  C   C1335     1.0  0.70741  0.97458  0.31869  1.0000
  C   C1336     1.0  0.66592  0.66217  0.65969  1.0000
  H   H1088     1.0  0.69634  0.91552  0.34366  1.0000
  H   H1089     1.0  0.60388  0.78729  0.73046  1.0000
  C   C1337     1.0  0.61074  0.87848  0.64210  1.0000
  C   C1338     1.0  0.62409  0.87267  0.68481  1.0000
  C   C1339     1.0  0.61502  0.85777  0.72247  1.0000
  C   C1340     1.0  0.59230  0.84800  0.71874  1.0000
  C   C1341     1.0  0.57867  0.85342  0.67570  1.0000
  C   C1342     1.0  0.58784  0.86867  0.63755  1.0000
  H   H1090     1.0  0.64171  0.87994  0.68912  1.0000
  H   H1091     1.0  0.62582  0.85386  0.75506  1.0000
  H   H1092     1.0  0.56107  0.84610  0.67201  1.0000
  H   H1093     1.0  0.57721  0.87291  0.60490  1.0000
  C   C1343     1.0  0.53849  0.88937  0.41503  1.0000
  C   C1344     1.0  0.51711  0.88531  0.38935  1.0000
  H   H1094     1.0  0.65745  0.94538  0.26772  1.0000
  C   C1345     1.0  0.53459  0.95726  0.59302  1.0000
  C   C1346     1.0  0.51889  0.87895  0.49259  1.0000
  C   C1347     1.0  0.53928  0.88602  0.46673  1.0000
  H   H1095     1.0  0.51640  0.88771  0.34933  1.0000
  C   C1348     1.0  0.52988  0.70266  0.34305  1.0000
  H   H1096     1.0  0.51987  0.87615  0.53252  1.0000
  H   H1097     1.0  0.55573  0.88841  0.48685  1.0000
  C   C1349     1.0  0.56448  0.93234  0.63547  1.0000
  H   H1098     1.0  0.61181  0.72020  0.76998  1.0000
  P   P44       1.0  0.63554  0.66133  0.63772  1.0000
  H   H1099     1.0  0.57780  0.72781  0.42057  1.0000
  H   H1100     1.0  0.56965  0.91564  0.65414  1.0000
  H   H1101     1.0  0.53793  0.73899  0.58399  1.0000
  C   C1350     1.0  0.50681  0.81227  0.04193  1.0000
  H   H1102     1.0  0.61447  0.70199  0.57824  1.0000
  H   H1103     1.0  0.57048  0.72433  0.73903  1.0000
  C   C1351     1.0  0.52420  0.68192  0.37005  1.0000
  H   H1104     1.0  0.59966  0.82126  0.58390  1.0000
  H   H1105     1.0  0.55316  0.69522  0.45540  1.0000
  C   C1352     1.0  0.60544  0.75838  0.59866  1.0000
  H   H1106     1.0  0.68563  0.95185  0.19836  1.0000
  C   C1353     1.0  0.72304  0.92822  0.29216  1.0000
  H   H1107     1.0  0.70947  0.70239  0.68717  1.0000
  H   H1108     1.0  0.73466  0.96745  0.43189  1.0000
  C   C1354     1.0  0.58294  0.71220  0.72045  1.0000
  C   C1355     1.0  0.62665  0.70414  0.88698  1.0000
  H   H1109     1.0  0.55310  0.80012  0.46361  1.0000
  C   C1356     1.0  0.52449  0.95740  0.47339  1.0000
  C   C1357     1.0  0.50444  0.95357  0.50315  1.0000
  C   C1358     1.0  0.60414  0.77904  0.69376  1.0000
  H   H1110     1.0  0.50468  0.74801  0.48957  1.0000
  H   H1111     1.0  0.61276  0.85586  0.53382  1.0000
  P   P45       1.0  0.50478  0.96168  0.56855  1.0000
  C   C1359     1.0  0.51430  0.80627  0.31639  1.0000
  C   C1360     1.0  0.58662  0.78533  0.65871  1.0000
  C   C1361     1.0  0.51970  0.69347  0.94805  1.0000
  C   C1362     1.0  0.55163  0.67287  0.78983  1.0000
  C   C1363     1.0  0.65309  0.66227  0.48988  1.0000
  C   C1364     1.0  0.57547  0.69871  0.67947  1.0000
  C   C1365     1.0  0.50238  0.78510  0.32881  1.0000
  C   C1366     1.0  0.65273  0.70261  0.97592  1.0000
  C   C1367     1.0  0.58698  0.77482  0.61097  1.0000
  C   C1368     1.0  0.63023  0.68189  0.91157  1.0000
  C   C1369     1.0  0.51437  0.81820  0.40319  1.0000
  C   C1370     1.0  0.52036  0.82279  0.35362  1.0000
  C   C1371     1.0  0.49946  0.72584  0.38764  1.0000
  H   H1112     1.0  0.64183  0.68705  0.43221  1.0000
  C   C1372     1.0  0.49438  0.71341  0.11468  1.0000
  C   C1373     1.0  0.52854  0.78120  0.63565  1.0000
  H   H1113     1.0  0.51682  0.73086  0.97024  1.0000
  C   C1374     1.0  0.50662  0.78811  0.65613  1.0000
  H   H1114     1.0  0.50026  0.77917  0.68936  1.0000
  H   H1115     1.0  0.54005  0.95373  0.40052  1.0000
  H   H1116     1.0  0.49932  0.86171  0.21067  1.0000
  C   C1375     1.0  0.50722  0.71448  0.96206  1.0000
  C   C1376     1.0  0.64631  0.98287  0.27176  1.0000
  C   C1377     1.0  0.62296  0.75224  0.63379  1.0000
  H   H1117     1.0  0.72901  0.91011  0.28216  1.0000
  C   C1378     1.0  0.73804  0.98591  0.42029  1.0000
  H   H1118     1.0  0.73408  0.98724  0.26697  1.0000
  H   H1119     1.0  0.51867  0.83129  0.43191  1.0000
  H   H1120     1.0  0.52952  0.83929  0.34408  1.0000
  H   H1121     1.0  0.59954  0.94711  0.64034  1.0000
  H   H1122     1.0  0.51022  0.68930  0.68092  1.0000
  H   H1123     1.0  0.66261  0.70209  0.01070  1.0000
  H   H1124     1.0  0.54057  0.96467  0.48916  1.0000
  C   C1379     1.0  0.64054  0.68241  0.47143  1.0000
  C   C1380     1.0  0.50266  0.79695  0.41584  1.0000
  C   C1381     1.0  0.54124  0.93571  0.61776  1.0000
  H   H1125     1.0  0.56649  0.83528  0.41430  1.0000
  H   H1126     1.0  0.60659  0.75060  0.56169  1.0000
  C   C1382     1.0  0.58134  0.95023  0.62809  1.0000
  C   C1383     1.0  0.62234  0.69401  0.71390  1.0000
  C   C1384     1.0  0.50847  0.79553  0.08129  1.0000
  C   C1385     1.0  0.64845  0.72475  0.95197  1.0000
  H   H1127     1.0  0.49999  0.72209  0.23956  1.0000
  C   C1386     1.0  0.65915  0.96329  0.25163  1.0000
  C   C1387     1.0  0.57489  0.97172  0.60362  1.0000
  C   C1388     1.0  0.49653  0.72635  0.20074  1.0000
  H   H1128     1.0  0.55720  0.70046  0.66680  1.0000
  C   C1389     1.0  0.53095  0.78664  0.09612  1.0000
  C   C1390     1.0  0.55136  0.79377  0.07082  1.0000
  C   C1391     1.0  0.54949  0.80992  0.03081  1.0000
  C   C1392     1.0  0.52725  0.81929  0.01666  1.0000
  C   C1393     1.0  0.61523  0.68114  0.67128  1.0000
  C   C1394     1.0  0.49737  0.87557  0.46721  1.0000
  C   C1395     1.0  0.49682  0.77998  0.37873  1.0000
  H   H1129     1.0  0.63601  0.75816  0.70849  1.0000
  C   C1396     1.0  0.62658  0.69657  0.50360  1.0000
  H   H1130     1.0  0.50422  0.66553  0.27077  1.0000
  H   H1131     1.0  0.54354  0.70161  0.31459  1.0000
  C   C1397     1.0  0.50650  0.68312  0.40637  1.0000
  C   C1398     1.0  0.72599  0.97158  0.28355  1.0000
  H   H1132     1.0  0.52576  0.83180  0.98554  1.0000
  H   H1133     1.0  0.65487  0.74140  0.96826  1.0000
  C   C1399     1.0  0.67504  0.96695  0.21261  1.0000
  H   H1134     1.0  0.64013  0.69202  0.72881  1.0000
  C   C1400     1.0  0.62230  0.76258  0.68134  1.0000
  H   H1135     1.0  0.63465  0.97959  0.30303  1.0000
  H   H1136     1.0  0.52877  0.92129  0.62302  1.0000
  H   H1137     1.0  0.57312  0.79868  0.66890  1.0000
  H   H1138     1.0  0.53282  0.77412  0.12702  1.0000
  H   H1139     1.0  0.56862  0.78641  0.08160  1.0000
  H   H1140     1.0  0.56524  0.81509  0.01054  1.0000
  C   C1401     1.0  0.49399  0.70488  0.41483  1.0000
  C   C1402     1.0  0.59145  0.68302  0.65528  1.0000
  H   H1141     1.0  0.73227  0.66395  0.70114  1.0000
  C   C1403     1.0  0.50130  0.81835  0.59169  1.0000
  H   H1142     1.0  0.61721  0.71244  0.48939  1.0000
  H   H1143     1.0  0.49627  0.69925  0.08680  1.0000
  C   C1404     1.0  0.49651  0.87870  0.41540  1.0000
  H   H1144     1.0  0.63727  0.73978  0.62392  1.0000
  C   C1405     1.0  0.60005  0.84333  0.51828  1.0000
  C   C1406     1.0  0.59070  0.84737  0.47061  1.0000
  C   C1407     1.0  0.57395  0.83164  0.45093  1.0000
  C   C1408     1.0  0.56653  0.81178  0.47889  1.0000
  C   C1409     1.0  0.57599  0.80742  0.52674  1.0000
  C   C1410     1.0  0.59262  0.82355  0.54647  1.0000
  P   P46       1.0  0.56483  0.78302  0.56462  1.0000
  C   C1411     1.0  0.53698  0.79272  0.59264  1.0000
  C   C1412     1.0  0.56011  0.75581  0.52832  1.0000
  C   C1413     1.0  0.54636  0.73709  0.54795  1.0000
  C   C1414     1.0  0.54373  0.71540  0.52157  1.0000
  C   C1415     1.0  0.55495  0.71213  0.47558  1.0000
  C   C1416     1.0  0.56887  0.73050  0.45600  1.0000
  C   C1417     1.0  0.57172  0.75213  0.48249  1.0000
  C   C1418     1.0  0.52314  0.81144  0.57092  1.0000
  H   H1145     1.0  0.64700  0.66436  0.97539  1.0000
  H   H1146     1.0  0.52906  0.82105  0.53826  1.0000
  C   C1419     1.0  0.60626  0.70973  0.73794  1.0000
  C   C1420     1.0  0.62493  0.69037  0.55408  1.0000
  H   H1147     1.0  0.53335  0.66481  0.36238  1.0000
  H   H1148     1.0  0.50218  0.66695  0.42715  1.0000
  C   C1421     1.0  0.64375  0.68123  0.95576  1.0000
  C   C1422     1.0  0.70091  0.68514  0.68176  1.0000
  H   H1149     1.0  0.61645  0.70525  0.85287  1.0000
  C   C1423     1.0  0.55583  0.68569  0.83380  1.0000
  C   C1424     1.0  0.67714  0.68447  0.66634  1.0000
  H   H1150     1.0  0.50301  0.68959  0.17601  1.0000
  H   H1151     1.0  0.66760  0.70135  0.65915  1.0000
  C   C1425     1.0  0.49818  0.70797  0.16497  1.0000
  H   H1152     1.0  0.49243  0.91046  0.55939  1.0000
  C   C1426     1.0  0.57557  0.67977  0.86346  1.0000
  C   C1427     1.0  0.67780  0.99017  0.19305  1.0000
  C   C1428     1.0  0.49302  0.80668  0.63425  1.0000
  H   H1153     1.0  0.58538  0.67258  0.62359  1.0000
  C   C1429     1.0  0.50345  0.94285  0.40071  1.0000
  H   H1154     1.0  0.50339  0.93801  0.36155  1.0000
  H   H1155     1.0  0.56087  0.97933  0.25612  1.0000
  H   H1156     1.0  0.53635  0.67762  0.76684  1.0000
  H   H1157     1.0  0.58809  0.98537  0.59665  1.0000
  C   C1430     1.0  0.49491  0.69323  0.70402  1.0000
  H   H1158     1.0  0.66051  0.67112  0.83605  1.0000
  C   C1431     1.0  0.49413  0.71427  0.73312  1.0000
  Fe  Fe98      1.0  0.85646  0.17317  0.21034  1.0000
  S   S193      1.0  0.84272  0.20639  0.25064  1.0000
  S   S194      1.0  0.83163  0.14853  0.16772  1.0000
  Fe  Fe99      1.0  0.90746  0.18346  0.23789  1.0000
  S   S195      1.0  0.89787  0.21671  0.28181  1.0000
  S   S196      1.0  0.94392  0.16707  0.22640  1.0000
  Fe  Fe100     1.0  0.86793  0.19471  0.31176  1.0000
  S   S197      1.0  0.85614  0.19783  0.39240  1.0000
  Fe  Fe101     1.0  0.87368  0.22572  0.21692  1.0000
  S   S198      1.0  0.87237  0.26535  0.19240  1.0000
  S   S199      1.0  0.87974  0.16048  0.27356  1.0000
  S   S200      1.0  0.88521  0.19360  0.17103  1.0000
  Fe  Fe102     1.0  0.86419  0.11677  0.62833  1.0000
  S   S201      1.0  0.85817  0.15209  0.66828  1.0000
  S   S202      1.0  0.86231  0.10982  0.54490  1.0000
  Fe  Fe103     1.0  0.87889  0.09037  0.72420  1.0000
  S   S203      1.0  0.87441  0.12383  0.77164  1.0000
  S   S204      1.0  0.89109  0.05622  0.76351  1.0000
  Fe  Fe104     1.0  0.84043  0.13007  0.72852  1.0000
  S   S205      1.0  0.80257  0.13649  0.75786  1.0000
  Fe  Fe105     1.0  0.89256  0.14253  0.70800  1.0000
  S   S206      1.0  0.92403  0.16752  0.70937  1.0000
  S   S207      1.0  0.84403  0.09517  0.68473  1.0000
  S   S208      1.0  0.89945  0.10861  0.66439  1.0000
  S   S209      1.0  0.87252  0.30714  0.97053  1.0000
  C   C1432     1.0  0.75886  0.20123  0.08069  1.0000
  C   C1433     1.0  0.90114  0.03065  0.72970  1.0000
  H   H1159     1.0  0.76923  0.09543  0.44159  1.0000
  S   S210      1.0  0.83157  0.03624  0.22182  1.0000
  C   C1434     1.0  0.82460  0.08896  0.01661  1.0000
  H   H1160     1.0  0.89275  0.04471  0.65664  1.0000
  H   H1161     1.0  0.77091  0.08700  0.19012  1.0000
  C   C1435     1.0  0.94933  0.14042  0.77864  1.0000
  C   C1436     1.0  0.95027  0.15491  0.73590  1.0000
  C   C1437     1.0  0.97247  0.16028  0.71532  1.0000
  H   H1162     1.0  0.93233  0.13614  0.79478  1.0000
  H   H1163     1.0  0.97332  0.17144  0.68227  1.0000
  C   C1438     1.0  0.96925  0.18290  0.24585  1.0000
  C   C1439     1.0  0.96790  0.20617  0.26695  1.0000
  P   P47       1.0  0.75068  0.06340  0.36218  1.0000
  H   H1164     1.0  0.95081  0.21486  0.27296  1.0000
  C   C1440     1.0  0.82839  0.04701  0.82304  1.0000
  C   C1441     1.0  0.87412  0.27621  0.13024  1.0000
  C   C1442     1.0  0.87625  0.30123  0.12218  1.0000
  C   C1443     1.0  0.87685  0.31082  0.07348  1.0000
  C   C1444     1.0  0.87444  0.29554  0.03223  1.0000
  C   C1445     1.0  0.87226  0.27047  0.04023  1.0000
  C   C1446     1.0  0.87243  0.26079  0.08896  1.0000
  H   H1165     1.0  0.87744  0.31330  0.15384  1.0000
  C   C1447     1.0  0.76571  0.14004  0.82436  1.0000
  H   H1166     1.0  0.87054  0.25849  0.00856  1.0000
  H   H1167     1.0  0.87092  0.24149  0.09471  1.0000
  C   C1448     1.0  0.85804  0.17311  0.43414  1.0000
  C   C1449     1.0  0.84879  0.17586  0.48244  1.0000
  C   C1450     1.0  0.85050  0.15679  0.51720  1.0000
  C   C1451     1.0  0.86117  0.13471  0.50356  1.0000
  C   C1452     1.0  0.87024  0.13189  0.45517  1.0000
  C   C1453     1.0  0.86876  0.15102  0.42054  1.0000
  H   H1168     1.0  0.84048  0.19290  0.49319  1.0000
  H   H1169     1.0  0.84331  0.15909  0.55430  1.0000
  H   H1170     1.0  0.87863  0.11490  0.44471  1.0000
  H   H1171     1.0  0.87602  0.14874  0.38352  1.0000
  C   C1454     1.0  0.83128  0.11737  0.18332  1.0000
  C   C1455     1.0  0.84438  0.10824  0.22372  1.0000
  C   C1456     1.0  0.84425  0.08341  0.23495  1.0000
  C   C1457     1.0  0.83116  0.06730  0.20578  1.0000
  C   C1458     1.0  0.81800  0.07630  0.16521  1.0000
  C   C1459     1.0  0.81784  0.10132  0.15450  1.0000
  H   H1172     1.0  0.85465  0.12026  0.24643  1.0000
  H   H1173     1.0  0.85465  0.07664  0.26593  1.0000
  H   H1174     1.0  0.80783  0.06404  0.14235  1.0000
  H   H1175     1.0  0.80751  0.10824  0.12346  1.0000
  C   C1460     1.0  0.80246  0.15698  0.85369  1.0000
  C   C1461     1.0  0.78982  0.14497  0.81626  1.0000
  P   P48       1.0  0.83227  0.00178  0.86984  1.0000
  H   H1176     1.0  0.98327  0.21957  0.16810  1.0000
  H   H1177     1.0  0.82102  0.16086  0.84811  1.0000
  H   H1178     1.0  0.89014  0.32182  0.49537  1.0000
  H   H1179     1.0  0.77045  0.06647  0.89106  1.0000
  H   H1180     1.0  0.91160  0.01171  0.79663  1.0000
  C   C1462     1.0  0.90261  0.11685  0.15253  1.0000
  C   C1463     1.0  0.81061  0.26437  0.93293  1.0000
  H   H1181     1.0  0.91318  0.11477  0.18619  1.0000
  C   C1464     1.0  0.89992  0.02946  0.67753  1.0000
  C   C1465     1.0  0.87419  0.02373  0.89930  1.0000
  H   H1182     1.0  0.90689  0.02339  0.00642  1.0000
  C   C1466     1.0  0.96501  0.29218  0.25055  1.0000
  C   C1467     1.0  0.76783  0.24926  0.97457  1.0000
  C   C1468     1.0  0.94366  0.06690  0.57477  1.0000
  C   C1469     1.0  0.92431  0.08083  0.55768  1.0000
  C   C1470     1.0  0.92799  0.10333  0.53527  1.0000
  C   C1471     1.0  0.95105  0.11228  0.53048  1.0000
  H   H1183     1.0  0.94076  0.04965  0.59301  1.0000
  P   P49       1.0  0.95555  0.14133  0.50122  1.0000
  C   C1472     1.0  0.93146  0.16208  0.51588  1.0000
  H   H1184     1.0  0.81005  0.23081  0.89148  1.0000
  C   C1473     1.0  0.76028  0.07536  0.21322  1.0000
  P   P50       1.0  0.75146  0.17567  0.22287  1.0000
  C   C1474     1.0  0.83703  0.99440  0.76693  1.0000
  H   H1185     1.0  0.81540  0.28123  0.21886  1.0000
  H   H1186     1.0  0.74963  0.30926  0.93874  1.0000
  C   C1475     1.0  0.92421  0.18003  0.48158  1.0000
  C   C1476     1.0  0.90600  0.19649  0.49381  1.0000
  C   C1477     1.0  0.89534  0.19560  0.54069  1.0000
  C   C1478     1.0  0.90302  0.17836  0.57559  1.0000
  C   C1479     1.0  0.92108  0.16172  0.56344  1.0000
  C   C1480     1.0  0.95769  0.13598  0.43490  1.0000
  C   C1481     1.0  0.93704  0.13518  0.40541  1.0000
  C   C1482     1.0  0.93873  0.13236  0.35366  1.0000
  H   H1187     1.0  0.75922  0.14056  0.14225  1.0000
  C   C1483     1.0  0.87618  0.03567  0.38044  1.0000
  H   H1188     1.0  0.91588  0.25126  0.77985  1.0000
  H   H1189     1.0  0.78788  0.02636  0.90656  1.0000
  H   H1190     1.0  0.76241  0.24270  0.80064  1.0000
  H   H1191     1.0  0.90636  0.07445  0.56251  1.0000
  H   H1192     1.0  0.91278  0.11389  0.52234  1.0000
  H   H1193     1.0  0.83178  0.02125  0.33150  1.0000
  H   H1194     1.0  0.80562  0.26080  0.06635  1.0000
  C   C1484     1.0  0.77737  0.27157  0.98906  1.0000
  C   C1485     1.0  0.89493  0.07468  0.36892  1.0000
  C   C1486     1.0  0.76345  0.01518  0.38097  1.0000
  C   C1487     1.0  0.89499  0.30976  0.57176  1.0000
  H   H1195     1.0  0.93248  0.18136  0.44530  1.0000
  H   H1196     1.0  0.89973  0.20960  0.46649  1.0000
  H   H1197     1.0  0.88091  0.20808  0.54970  1.0000
  H   H1198     1.0  0.89497  0.17782  0.61219  1.0000
  H   H1199     1.0  0.92695  0.14870  0.59137  1.0000
  H   H1200     1.0  0.91969  0.13733  0.42224  1.0000
  H   H1201     1.0  0.92285  0.13282  0.33067  1.0000
  H   H1202     1.0  0.88388  0.08349  0.16253  1.0000
  H   H1203     1.0  0.82719  0.25673  0.14555  1.0000
  C   C1488     1.0  0.77484  0.16637  0.26554  1.0000
  C   C1489     1.0  0.78368  0.18294  0.30052  1.0000
  C   C1490     1.0  0.80139  0.17575  0.33438  1.0000
  C   C1491     1.0  0.81062  0.15208  0.33330  1.0000
  C   C1492     1.0  0.80216  0.13558  0.29822  1.0000
  C   C1493     1.0  0.78450  0.14273  0.26410  1.0000
  S   S211      1.0  0.75187  0.17204  0.95884  1.0000
  C   C1494     1.0  0.76371  0.18906  0.16735  1.0000
  C   C1495     1.0  0.96649  0.04563  0.71646  1.0000
  H   H1204     1.0  0.75143  0.24286  0.99034  1.0000
  C   C1496     1.0  0.89391  0.22743  0.68976  1.0000
  C   C1497     1.0  0.79766  0.20236  0.11965  1.0000
  C   C1498     1.0  0.78798  0.19404  0.16430  1.0000
  H   H1205     1.0  0.77710  0.20150  0.30141  1.0000
  H   H1206     1.0  0.80827  0.18866  0.36104  1.0000
  H   H1207     1.0  0.82462  0.14672  0.35912  1.0000
  H   H1208     1.0  0.80966  0.11738  0.29681  1.0000
  H   H1209     1.0  0.77882  0.12991  0.23615  1.0000
  H   H1210     1.0  0.75454  0.20478  0.84740  1.0000
  Fe  Fe106     1.0  0.81357  0.00952  0.17014  1.0000
  H   H1211     1.0  0.80965  0.10847  0.46282  1.0000
  H   H1212     1.0  0.87457  0.03136  0.86212  1.0000
  H   H1213     1.0  0.81658  0.20535  0.11751  1.0000
  H   H1214     1.0  0.79970  0.19069  0.19570  1.0000
  H   H1215     1.0  0.97939  0.14041  0.59920  1.0000
  C   C1499     1.0  0.83080  0.00241  0.34231  1.0000
  C   C1500     1.0  0.80682  0.09629  0.43159  1.0000
  C   C1501     1.0  0.81800  0.06981  0.81391  1.0000
  C   C1502     1.0  0.81784  0.03079  0.85643  1.0000
  C   C1503     1.0  0.91045  0.10130  0.91990  1.0000
  C   C1504     1.0  0.78316  0.20573  0.07767  1.0000
  H   H1216     1.0  0.89593  0.04220  0.26099  1.0000
  H   H1217     1.0  0.90253  0.30380  0.65030  1.0000
  C   C1505     1.0  0.84291  0.02911  0.46533  1.0000
  H   H1218     1.0  0.96962  0.12186  0.83595  1.0000
  H   H1219     1.0  0.91092  0.30361  0.38863  1.0000
  C   C1506     1.0  0.87342  0.08990  0.88131  1.0000
  C   C1507     1.0  0.78032  0.07277  0.37924  1.0000
  C   C1508     1.0  0.80006  0.06462  0.35150  1.0000
  C   C1509     1.0  0.82284  0.07238  0.36359  1.0000
  C   C1510     1.0  0.78392  0.08872  0.41945  1.0000
  H   H1220     1.0  0.92617  0.31096  0.18851  1.0000
  C   C1511     1.0  0.90891  0.22796  0.64845  1.0000
  C   C1512     1.0  0.96289  0.28069  0.03983  1.0000
  C   C1513     1.0  0.74853  0.06141  0.29516  1.0000
  C   C1514     1.0  0.82623  0.08814  0.40362  1.0000
  C   C1515     1.0  0.76171  0.07699  0.26503  1.0000
  C   C1516     1.0  0.97048  0.13236  0.80197  1.0000
  C   C1517     1.0  0.88337  0.05813  0.39959  1.0000
  C   C1518     1.0  0.95193  0.25889  0.17721  1.0000
  H   H1221     1.0  0.94225  0.00986  0.87657  1.0000
  H   H1222     1.0  0.79792  0.05258  0.31984  1.0000
  H   H1223     1.0  0.83787  0.06621  0.34168  1.0000
  C   C1519     1.0  0.74921  0.23023  0.78710  1.0000
  C   C1520     1.0  0.92739  0.26404  0.76167  1.0000
  C   C1521     1.0  0.79796  0.29753  0.56318  1.0000
  C   C1522     1.0  0.80676  0.27368  0.56170  1.0000
  C   C1523     1.0  0.83128  0.26913  0.56190  1.0000
  C   C1524     1.0  0.84722  0.28844  0.56320  1.0000
  C   C1525     1.0  0.83823  0.31232  0.56560  1.0000
  P   P51       1.0  0.87884  0.28214  0.56263  1.0000
  C   C1526     1.0  0.88550  0.26124  0.61303  1.0000
  P   P52       1.0  0.98882  0.26110  0.68028  1.0000
  H   H1224     1.0  0.92968  0.10182  0.91916  1.0000
  H   H1225     1.0  0.92343  0.21486  0.64577  1.0000
  C   C1527     1.0  0.80205  0.07926  0.02331  1.0000
  C   C1528     1.0  0.90482  0.24481  0.61023  1.0000
  C   C1529     1.0  0.88797  0.27000  0.50275  1.0000
  C   C1530     1.0  0.87125  0.26316  0.46650  1.0000
  C   C1531     1.0  0.87878  0.25473  0.41982  1.0000
  C   C1532     1.0  0.90298  0.25281  0.40906  1.0000
  C   C1533     1.0  0.91967  0.25965  0.44471  1.0000
  C   C1534     1.0  0.91223  0.26866  0.49093  1.0000
  H   H1226     1.0  0.96272  0.10578  0.68883  1.0000
  H   H1227     1.0  0.77898  0.30114  0.56271  1.0000
  H   H1228     1.0  0.79458  0.25873  0.56009  1.0000
  H   H1229     1.0  0.83788  0.25055  0.56052  1.0000
  C   C1535     1.0  0.95604  0.00021  0.85617  1.0000
  H   H1230     1.0  0.90810  0.08196  0.29513  1.0000
  C   C1536     1.0  0.94442  0.27875  0.25644  1.0000
  C   C1537     1.0  0.89821  0.09032  0.88084  1.0000
  C   C1538     1.0  0.97347  0.27111  0.17271  1.0000
  H   H1231     1.0  0.91650  0.24455  0.57839  1.0000
  H   H1232     1.0  0.85240  0.26461  0.47330  1.0000
  H   H1233     1.0  0.86583  0.24957  0.39191  1.0000
  H   H1234     1.0  0.90883  0.24630  0.37291  1.0000
  H   H1235     1.0  0.93840  0.25861  0.43579  1.0000
  H   H1236     1.0  0.92540  0.27498  0.51718  1.0000
  S   S212      1.0  0.76253  0.01999  0.01913  1.0000
  H   H1237     1.0  0.94052  0.29170  0.97795  1.0000
  C   C1539     1.0  0.75425  0.14704  0.86889  1.0000
  H   H1238     1.0  0.86368  0.24398  0.72604  1.0000
  S   S213      1.0  0.81940  0.00678  0.08773  1.0000
  H   H1239     1.0  0.80273  0.06174  0.56350  1.0000
  H   H1240     1.0  0.90773  0.12062  0.98900  1.0000
  H   H1241     1.0  0.80051  0.17446  0.92592  1.0000
  H   H1242     1.0  0.85644  0.27409  0.65957  1.0000
  C   C1540     1.0  0.80528  0.28281  0.18440  1.0000
  H   H1243     1.0  0.85446  0.19671  0.89430  1.0000
  C   C1541     1.0  0.79077  0.16467  0.89774  1.0000
  S   S214      1.0  0.96135  0.29601  0.38573  1.0000
  C   C1542     1.0  0.87105  0.26118  0.65571  1.0000
  H   H1244     1.0  0.77986  0.01894  0.36202  1.0000
  C   C1543     1.0  0.90752  0.00818  0.65255  1.0000
  C   C1544     1.0  0.85297  0.04027  0.50737  1.0000
  H   H1245     1.0  0.78926  0.09450  0.83146  1.0000
  C   C1545     1.0  0.88615  0.09932  0.13923  1.0000
  H   H1246     1.0  0.93733  0.06971  0.69726  1.0000
  C   C1546     1.0  0.90539  0.13725  0.12249  1.0000
  C   C1547     1.0  0.78536  0.29824  0.18155  1.0000
  P   P53       1.0  0.76329  0.29014  0.03647  1.0000
  C   C1548     1.0  0.89790  0.11192  0.95945  1.0000
  C   C1549     1.0  0.77245  0.30020  0.13696  1.0000
  H   H1247     1.0  0.77235  0.21738  0.92889  1.0000
  C   C1550     1.0  0.87204  0.10244  0.09655  1.0000
  C   C1551     1.0  0.84953  0.20801  0.97065  1.0000
  H   H1248     1.0  0.85922  0.08875  0.08766  1.0000
  H   H1249     1.0  0.90651  0.04114  0.92120  1.0000
  H   H1250     1.0  0.92120  0.25286  0.22267  1.0000
  C   C1552     1.0  0.98858  0.15287  0.57511  1.0000
  C   C1553     1.0  0.80757  0.12954  0.02296  1.0000
  C   C1554     1.0  0.87477  0.00356  0.99485  1.0000
  C   C1555     1.0  0.89271  0.04656  0.29988  1.0000
  C   C1556     1.0  0.79672  0.03804  0.88063  1.0000
  P   P54       1.0  0.85693  0.12675  0.00998  1.0000
  C   C1557     1.0  0.85391  0.15855  0.99436  1.0000
  C   C1558     1.0  0.84389  0.99343  0.38330  1.0000
  H   H1251     1.0  0.98851  0.10380  0.54066  1.0000
  C   C1559     1.0  0.96099  0.12971  0.33123  1.0000
  H   H1252     1.0  0.79980  0.05976  0.02361  1.0000
  C   C1560     1.0  0.96467  0.23344  0.52614  1.0000
  H   H1253     1.0  0.84789  0.17016  0.07062  1.0000
  H   H1254     1.0  0.76499  0.08719  0.03585  1.0000
  C   C1561     1.0  0.78655  0.06096  0.87180  1.0000
  H   H1255     1.0  0.78453  0.04165  0.48997  1.0000
  H   H1256     1.0  0.98786  0.23646  0.29544  1.0000
  H   H1257     1.0  0.87661  0.01253  0.31475  1.0000
  H   H1258     1.0  0.95764  0.19997  0.56414  1.0000
  H   H1259     1.0  0.82619  0.08222  0.78809  1.0000
  H   H1260     1.0  0.87507  0.99544  0.03171  1.0000
  C   C1562     1.0  0.91060  0.01092  0.75635  1.0000
  C   C1563     1.0  0.74346  0.13543  0.16255  1.0000
  C   C1564     1.0  0.85534  0.16627  0.94454  1.0000
  H   H1261     1.0  0.77333  0.09022  0.28139  1.0000
  H   H1262     1.0  0.84150  0.10075  0.91930  1.0000
  H   H1263     1.0  0.84819  0.22712  0.96162  1.0000
  C   C1565     1.0  0.93764  0.26252  0.21920  1.0000
  H   H1264     1.0  0.93352  0.28132  0.28938  1.0000
  H   H1265     1.0  0.89411  0.15619  0.05666  1.0000
  C   C1566     1.0  0.76124  0.32078  0.01215  1.0000
  C   C1567     1.0  0.95633  0.06806  0.70338  1.0000
  C   C1568     1.0  0.89945  0.06898  0.31903  1.0000
  H   H1266     1.0  0.76968  0.13174  0.03341  1.0000
  C   C1569     1.0  0.84964  0.17581  0.03205  1.0000
  H   H1267     1.0  0.86409  0.08157  0.85057  1.0000
  H   H1268     1.0  0.98392  0.28485  0.58175  1.0000
  C   C1570     1.0  0.79716  0.07680  0.83841  1.0000
  C   C1571     1.0  0.95497  0.29668  0.00256  1.0000
  H   H1269     1.0  0.80680  0.29587  0.97934  1.0000
  H   H1270     1.0  0.94618  0.24638  0.14865  1.0000
  C   C1572     1.0  0.78504  0.11977  0.02912  1.0000
  H   H1271     1.0  0.90044  0.09196  0.38378  1.0000
  C   C1573     1.0  0.97995  0.13245  0.41229  1.0000
  C   C1574     1.0  0.78234  0.09468  0.02990  1.0000
  H   H1272     1.0  0.80906  0.14904  0.02316  1.0000
  C   C1575     1.0  0.98147  0.28724  0.07200  1.0000
  H   H1273     1.0  0.95522  0.02998  0.71918  1.0000
  C   C1576     1.0  0.82761  0.11422  0.01680  1.0000
  C   C1577     1.0  0.74510  0.05879  0.19103  1.0000
  C   C1578     1.0  0.87432  0.12315  0.06663  1.0000
  C   C1579     1.0  0.89143  0.14036  0.07960  1.0000
  C   C1580     1.0  0.76652  0.15997  0.90530  1.0000
  C   C1581     1.0  0.84763  0.20045  0.02018  1.0000
  C   C1582     1.0  0.79970  0.27156  0.09783  1.0000
  C   C1583     1.0  0.78003  0.28757  0.09415  1.0000
  C   C1584     1.0  0.85582  0.00831  0.91369  1.0000
  C   C1585     1.0  0.90471  0.31561  0.61849  1.0000
  H   H1274     1.0  0.90791  0.08232  0.84986  1.0000
  C   C1586     1.0  0.94738  0.25563  0.73555  1.0000
  H   H1275     1.0  0.84469  0.04213  0.80388  1.0000
  H   H1276     1.0  0.84389  0.09405  0.41311  1.0000
  H   H1277     1.0  0.90606  0.00711  0.61238  1.0000
  H   H1278     1.0  0.83967  0.07673  0.01146  1.0000
  Fe  Fe107     1.0  0.78014  0.00069  0.08390  1.0000
  H   H1279     1.0  0.87203  0.04001  0.51318  1.0000
  C   C1587     1.0  0.87516  0.24423  0.69370  1.0000
  C   C1588     1.0  0.89272  0.01922  0.98053  1.0000
  C   C1589     1.0  0.81384  0.05251  0.53625  1.0000
  H   H1280     1.0  0.84471  0.21370  0.04943  1.0000
  C   C1590     1.0  0.95684  0.29699  0.71398  1.0000
  H   H1281     1.0  0.84638  0.06073  0.57464  1.0000
  C   C1591     1.0  0.98889  0.21840  0.27967  1.0000
  H   H1282     1.0  0.88011  0.06303  0.43807  1.0000
  H   H1283     1.0  0.74436  0.05749  0.15079  1.0000
  H   H1284     1.0  0.97040  0.21472  0.64633  1.0000
  H   H1285     1.0  0.74659  0.25252  0.10337  1.0000
  C   C1592     1.0  0.80365  0.04128  0.49482  1.0000
  C   C1593     1.0  0.97861  0.26615  0.57836  1.0000
  C   C1594     1.0  0.85321  0.19092  0.93281  1.0000
  C   C1595     1.0  0.96274  0.27211  0.71301  1.0000
  H   H1286     1.0  0.92409  0.31159  0.09661  1.0000
  C   C1596     1.0  0.83847  0.05191  0.54258  1.0000
  H   H1287     1.0  0.75584  0.13068  0.79587  1.0000
  C   C1597     1.0  0.81811  0.02971  0.45942  1.0000
  H   H1288     1.0  0.95093  0.23627  0.73332  1.0000
  H   H1289     1.0  0.79080  0.21133  0.04256  1.0000
  H   H1290     1.0  0.74763  0.20344  0.04800  1.0000
  C   C1598     1.0  0.96874  0.01209  0.81895  1.0000
  C   C1599     1.0  0.97049  0.09773  0.54577  1.0000
  C   C1600     1.0  0.92224  0.28889  0.76440  1.0000
  C   C1601     1.0  0.93691  0.30534  0.74045  1.0000
  C   C1602     1.0  0.97210  0.25735  0.53138  1.0000
  S   S215      1.0  0.77388  0.00701  0.16570  1.0000
  H   H1291     1.0  0.96988  0.30527  0.27882  1.0000
  C   C1603     1.0  0.88138  0.02987  0.33050  1.0000
  C   C1604     1.0  0.80095  0.24224  0.91852  1.0000
  H   H1292     1.0  0.91826  0.15077  0.13281  1.0000
  C   C1605     1.0  0.74913  0.19302  0.12540  1.0000
  H   H1293     1.0  0.89694  0.21401  0.71877  1.0000
  C   C1606     1.0  0.97064  0.08835  0.69859  1.0000
  C   C1607     1.0  0.87294  0.11163  0.96019  1.0000
  C   C1608     1.0  0.86074  0.10068  0.92053  1.0000
  C   C1609     1.0  0.89249  0.02920  0.93265  1.0000
  H   H1294     1.0  0.85804  0.15334  0.91457  1.0000
  H   H1295     1.0  0.93277  0.32461  0.74268  1.0000
  H   H1296     1.0  0.82207  0.00677  0.76210  1.0000
  C   C1610     1.0  0.81212  0.26916  0.14284  1.0000
  C   C1611     1.0  0.79889  0.27896  0.96810  1.0000
  C   C1612     1.0  0.75959  0.99161  0.39793  1.0000
  H   H1297     1.0  0.91376  0.00804  0.40897  1.0000
  H   H1298     1.0  0.95445  0.26330  0.04364  1.0000
  C   C1613     1.0  0.97936  0.28860  0.20856  1.0000
  H   H1299     1.0  0.82732  0.27020  0.91729  1.0000
  C   C1614     1.0  0.98127  0.15650  0.52544  1.0000
  H   H1300     1.0  0.97290  0.26910  0.49892  1.0000
  H   H1301     1.0  0.80283  0.99857  0.96093  1.0000
  C   C1615     1.0  0.77964  0.23470  0.93947  1.0000
  C   C1616     1.0  0.91900  0.32114  0.39233  1.0000
  P   P55       1.0  0.86180  0.01384  0.42019  1.0000
  C   C1617     1.0  0.94388  0.32288  0.39147  1.0000
  C   C1618     1.0  0.96369  0.21837  0.56791  1.0000
  H   H1302     1.0  0.80980  0.02123  0.42775  1.0000
  H   H1303     1.0  0.87007  0.31156  0.31989  1.0000
  H   H1304     1.0  0.95971  0.22660  0.48972  1.0000
  H   H1305     1.0  0.82380  0.31214  0.06504  1.0000
  C   C1619     1.0  0.96676  0.07528  0.56852  1.0000
  H   H1306     1.0  0.90684  0.29546  0.78492  1.0000
  H   H1307     1.0  0.77990  0.30857  0.21403  1.0000
  C   C1620     1.0  0.97889  0.25066  0.61998  1.0000
  H   H1308     1.0  0.98177  0.06444  0.58171  1.0000
  C   C1621     1.0  0.81371  0.31678  0.56530  1.0000
  C   C1622     1.0  0.97093  0.22684  0.61457  1.0000
  C   C1623     1.0  0.99099  0.31051  0.06835  1.0000
  C   C1624     1.0  0.85647  0.99801  0.96157  1.0000
  C   C1625     1.0  0.98157  0.12958  0.36054  1.0000
  H   H1309     1.0  0.96231  0.12806  0.29102  1.0000
  H   H1310     1.0  0.96767  0.30999  0.69471  1.0000
  H   H1311     1.0  0.74326  0.06054  0.96607  1.0000
  C   C1626     1.0  0.75420  0.32446  0.96230  1.0000
  H   H1312     1.0  0.96494  0.03110  0.81228  1.0000
  H   H1313     1.0  0.98070  0.17792  0.13579  1.0000
  H   H1314     1.0  0.76733  0.31514  0.30273  1.0000
  C   C1627     1.0  0.98523  0.19252  0.11073  1.0000
  H   H1315     1.0  0.98667  0.17804  0.45877  1.0000
  C   C1628     1.0  0.98630  0.21627  0.12881  1.0000
  C   C1629     1.0  0.96556  0.31926  0.99730  1.0000
  C   C1630     1.0  0.98607  0.99942  0.79113  1.0000
  C   C1631     1.0  0.74586  0.03334  0.38668  1.0000
  H   H1316     1.0  0.98964  0.24625  0.78628  1.0000
  H   H1317     1.0  0.75657  0.31162  0.13596  1.0000
  C   C1632     1.0  0.99151  0.17187  0.23815  1.0000
  H   H1318     1.0  0.98927  0.16917  0.04681  1.0000
  C   C1633     1.0  0.90830  0.99826  0.44184  1.0000
  C   C1634     1.0  0.88425  0.99730  0.45537  1.0000
  H   H1319     1.0  0.82742  0.32371  0.31642  1.0000
  C   C1635     1.0  0.99093  0.04350  0.72675  1.0000
  C   C1636     1.0  0.99001  0.18762  0.06057  1.0000
  C   C1637     1.0  0.74475  0.20897  0.81350  1.0000
  H   H1320     1.0  0.80645  0.99422  0.28261  1.0000
  C   C1638     1.0  0.99121  0.23546  0.09630  1.0000
  Fe  Fe108     1.0  0.85821  0.38983  0.43581  1.0000
  S   S216      1.0  0.84039  0.35861  0.47337  1.0000
  S   S217      1.0  0.89696  0.39121  0.41248  1.0000
  Fe  Fe109     1.0  0.81340  0.42179  0.43935  1.0000
  S   S218      1.0  0.79277  0.39358  0.47911  1.0000
  S   S219      1.0  0.79089  0.45347  0.41313  1.0000
  Fe  Fe110     1.0  0.82562  0.38708  0.52563  1.0000
  S   S220      1.0  0.81927  0.38100  0.60854  1.0000
  Fe  Fe111     1.0  0.80904  0.36815  0.42380  1.0000
  S   S221      1.0  0.78622  0.34088  0.38416  1.0000
  S   S222      1.0  0.84494  0.41808  0.49084  1.0000
  S   S223      1.0  0.82828  0.39655  0.38138  1.0000
  Fe  Fe112     1.0  0.92027  0.60025  0.96115  1.0000
  S   S224      1.0  0.92350  0.59092  0.04230  1.0000
  S   S225      1.0  0.95054  0.61391  0.91351  1.0000
  Fe  Fe113     1.0  0.86621  0.58919  0.95635  1.0000
  S   S226      1.0  0.86579  0.58043  0.03897  1.0000
  S   S227      1.0  0.83648  0.57655  0.90269  1.0000
  Fe  Fe114     1.0  0.88977  0.61277  0.05071  1.0000
  C   C1639     1.0  0.74955  0.55429  0.95434  1.0000
  Fe  Fe115     1.0  0.89971  0.55960  0.02393  1.0000
  S   S228      1.0  0.90868  0.52123  0.04924  1.0000
  S   S229      1.0  0.88715  0.62333  0.96898  1.0000
  S   S230      1.0  0.89964  0.56712  0.94201  1.0000
  Fe  Fe116     1.0  0.88447  0.34499  0.94815  1.0000
  S   S231      1.0  0.91787  0.34780  0.90275  1.0000
  Fe  Fe117     1.0  0.87549  0.39989  0.94331  1.0000
  S   S232      1.0  0.90810  0.40672  0.89804  1.0000
  S   S233      1.0  0.85157  0.43147  0.96522  1.0000
  Fe  Fe118     1.0  0.89706  0.37391  0.85404  1.0000
  S   S234      1.0  0.90259  0.37385  0.76990  1.0000
  Fe  Fe119     1.0  0.92587  0.38026  0.95011  1.0000
  S   S235      1.0  0.96027  0.38487  0.99258  1.0000
  S   S236      1.0  0.86294  0.36889  0.89569  1.0000
  S   S237      1.0  0.89383  0.37570  0.99912  1.0000
  H   H1321     1.0  0.95956  0.33169  0.96839  1.0000
  H   H1322     1.0  0.85101  0.36839  0.77770  1.0000
  S   S238      1.0  0.78627  0.53878  0.56959  1.0000
  C   C1640     1.0  0.97756  0.38199  0.24921  1.0000
  C   C1641     1.0  0.87063  0.58547  0.77702  1.0000
  C   C1642     1.0  0.75423  0.35367  0.56799  1.0000
  C   C1643     1.0  0.81337  0.58497  0.85970  1.0000
  C   C1644     1.0  0.80438  0.60872  0.85532  1.0000
  C   C1645     1.0  0.78520  0.61402  0.82249  1.0000
  C   C1646     1.0  0.77497  0.59580  0.79287  1.0000
  C   C1647     1.0  0.78420  0.57213  0.79688  1.0000
  C   C1648     1.0  0.80311  0.56677  0.83015  1.0000
  C   C1649     1.0  0.83161  0.59239  0.67150  1.0000
  H   H1323     1.0  0.76865  0.34796  0.49435  1.0000
  H   H1324     1.0  0.77655  0.55784  0.77484  1.0000
  H   H1325     1.0  0.80982  0.54832  0.83310  1.0000
  C   C1650     1.0  0.92266  0.63688  0.18081  1.0000
  H   H1326     1.0  0.98876  0.47754  0.85708  1.0000
  H   H1327     1.0  0.78587  0.45997  0.99357  1.0000
  C   C1651     1.0  0.89248  0.49674  0.02479  1.0000
  C   C1652     1.0  0.90364  0.47385  0.02098  1.0000
  C   C1653     1.0  0.89122  0.45385  0.00259  1.0000
  C   C1654     1.0  0.86725  0.45637  0.98942  1.0000
  C   C1655     1.0  0.85585  0.47911  0.99431  1.0000
  C   C1656     1.0  0.86855  0.49937  0.01100  1.0000
  H   H1328     1.0  0.92206  0.47160  0.03186  1.0000
  H   H1329     1.0  0.90019  0.43642  0.99906  1.0000
  H   H1330     1.0  0.83735  0.48124  0.98395  1.0000
  H   H1331     1.0  0.85980  0.51694  0.01394  1.0000
  C   C1657     1.0  0.75836  0.36782  0.97189  1.0000
  C   C1658     1.0  0.97886  0.61637  0.94162  1.0000
  C   C1659     1.0  0.97463  0.41261  0.15927  1.0000
  H   H1332     1.0  0.97123  0.59306  0.00356  1.0000
  C   C1660     1.0  0.78940  0.47665  0.45772  1.0000
  C   C1661     1.0  0.80967  0.48298  0.48463  1.0000
  C   C1662     1.0  0.80861  0.50234  0.51850  1.0000
  C   C1663     1.0  0.78711  0.51480  0.52678  1.0000
  C   C1664     1.0  0.76665  0.50801  0.50099  1.0000
  C   C1665     1.0  0.76790  0.48923  0.46569  1.0000
  H   H1333     1.0  0.82629  0.47329  0.47850  1.0000
  H   H1334     1.0  0.82441  0.50747  0.53874  1.0000
  H   H1335     1.0  0.77956  0.48321  0.69046  1.0000
  H   H1336     1.0  0.75220  0.48422  0.44508  1.0000
  C   C1666     1.0  0.76470  0.34979  0.33910  1.0000
  C   C1667     1.0  0.98445  0.60393  0.98561  1.0000
  C   C1668     1.0  0.82230  0.53927  0.71399  1.0000
  C   C1669     1.0  0.76691  0.34102  0.04153  1.0000
  C   C1670     1.0  0.80509  0.62506  0.69849  1.0000
  H   H1337     1.0  0.87929  0.52314  0.53329  1.0000
  C   C1671     1.0  0.98335  0.32626  0.03050  1.0000
  C   C1672     1.0  0.76893  0.41590  0.24200  1.0000
  C   C1673     1.0  0.84259  0.37932  0.65300  1.0000
  C   C1674     1.0  0.83723  0.37412  0.70303  1.0000
  C   C1675     1.0  0.85534  0.37252  0.73941  1.0000
  C   C1676     1.0  0.87900  0.37620  0.72601  1.0000
  C   C1677     1.0  0.88428  0.38173  0.67614  1.0000
  C   C1678     1.0  0.86622  0.38315  0.63969  1.0000
  H   H1338     1.0  0.81898  0.37122  0.71359  1.0000
  H   H1339     1.0  0.88489  0.35984  0.19918  1.0000
  H   H1340     1.0  0.90245  0.38497  0.66561  1.0000
  H   H1341     1.0  0.87056  0.38720  0.60133  1.0000
  C   C1679     1.0  0.91460  0.36472  0.40309  1.0000
  C   C1680     1.0  0.93945  0.36656  0.40109  1.0000
  H   H1342     1.0  0.78234  0.52042  0.13136  1.0000
  S   S239      1.0  0.74987  0.54008  0.68633  1.0000
  C   C1681     1.0  0.77026  0.42547  0.61090  1.0000
  H   H1343     1.0  0.94746  0.38415  0.40472  1.0000
  C   C1682     1.0  0.79143  0.62232  0.65531  1.0000
  H   H1344     1.0  0.79318  0.50583  0.00855  1.0000
  P   P56       1.0  0.78390  0.44081  0.75781  1.0000
  H   H1345     1.0  0.74285  0.47434  0.74659  1.0000
  C   C1683     1.0  0.97740  0.54019  0.74483  1.0000
  H   H1346     1.0  0.92604  0.61931  0.16408  1.0000
  C   C1684     1.0  0.97800  0.39221  0.29721  1.0000
  H   H1347     1.0  0.77318  0.35621  0.81470  1.0000
  C   C1685     1.0  0.82510  0.61017  0.70671  1.0000
  C   C1686     1.0  0.81557  0.43523  0.76570  1.0000
  C   C1687     1.0  0.82496  0.42898  0.81276  1.0000
  C   C1688     1.0  0.84951  0.42652  0.81977  1.0000
  C   C1689     1.0  0.86491  0.42970  0.77972  1.0000
  C   C1690     1.0  0.85576  0.43514  0.73244  1.0000
  C   C1691     1.0  0.83122  0.43787  0.72532  1.0000
  H   H1348     1.0  0.75005  0.51757  0.50765  1.0000
  H   H1349     1.0  0.82870  0.33101  0.14765  1.0000
  H   H1350     1.0  0.77620  0.40524  0.67816  1.0000
  H   H1351     1.0  0.94815  0.63137  0.24050  1.0000
  C   C1692     1.0  0.87816  0.58698  0.59424  1.0000
  H   H1352     1.0  0.81334  0.42617  0.84428  1.0000
  H   H1353     1.0  0.85660  0.42189  0.85622  1.0000
  H   H1354     1.0  0.88390  0.42709  0.78500  1.0000
  H   H1355     1.0  0.86764  0.43660  0.70093  1.0000
  H   H1356     1.0  0.82468  0.44195  0.68817  1.0000
  C   C1693     1.0  0.82796  0.37075  0.02806  1.0000
  H   H1357     1.0  0.78106  0.57410  0.93644  1.0000
  H   H1358     1.0  0.98755  0.57733  0.75623  1.0000
  C   C1694     1.0  0.93973  0.34720  0.19455  1.0000
  C   C1695     1.0  0.94597  0.36827  0.16854  1.0000
  C   C1696     1.0  0.94313  0.36891  0.11654  1.0000
  P   P57       1.0  0.95784  0.39393  0.20178  1.0000
  C   C1697     1.0  0.93394  0.41068  0.23177  1.0000
  C   C1698     1.0  0.91678  0.59735  0.74951  1.0000
  C   C1699     1.0  0.87936  0.54090  0.55066  1.0000
  H   H1359     1.0  0.77062  0.48688  0.60139  1.0000
  C   C1700     1.0  0.78958  0.54008  0.97212  1.0000
  P   P58       1.0  0.85651  0.57183  0.68170  1.0000
  C   C1701     1.0  0.86347  0.52615  0.72288  1.0000
  C   C1702     1.0  0.93418  0.43612  0.23430  1.0000
  C   C1703     1.0  0.91661  0.44882  0.26102  1.0000
  C   C1704     1.0  0.89890  0.43622  0.28592  1.0000
  C   C1705     1.0  0.89866  0.41093  0.28394  1.0000
  C   C1706     1.0  0.91615  0.39822  0.25726  1.0000
  C   C1707     1.0  0.78165  0.49914  0.85430  1.0000
  C   C1708     1.0  0.81767  0.58969  0.62834  1.0000
  C   C1709     1.0  0.93500  0.34862  0.09090  1.0000
  C   C1710     1.0  0.78066  0.51896  0.99338  1.0000
  H   H1360     1.0  0.89357  0.59930  0.52545  1.0000
  S   S240      1.0  0.75040  0.60329  0.75257  1.0000
  H   H1361     1.0  0.91208  0.35969  0.50696  1.0000
  C   C1711     1.0  0.97838  0.56193  0.77156  1.0000
  H   H1362     1.0  0.88099  0.59577  0.85139  1.0000
  C   C1712     1.0  0.78206  0.53208  0.16390  1.0000
  H   H1363     1.0  0.94769  0.38471  0.09522  1.0000
  H   H1364     1.0  0.77286  0.33904  0.07959  1.0000
  H   H1365     1.0  0.87717  0.60505  0.61013  1.0000
  C   C1713     1.0  0.86996  0.56702  0.62129  1.0000
  C   C1714     1.0  0.88731  0.58381  0.54617  1.0000
  H   H1366     1.0  0.91903  0.45116  0.68790  1.0000
  H   H1367     1.0  0.94820  0.44620  0.21686  1.0000
  H   H1368     1.0  0.91698  0.46842  0.26317  1.0000
  H   H1369     1.0  0.88561  0.44595  0.30766  1.0000
  H   H1370     1.0  0.88539  0.40109  0.30461  1.0000
  H   H1371     1.0  0.91616  0.37866  0.25834  1.0000
  H   H1372     1.0  0.92193  0.60636  0.82707  1.0000
  C   C1715     1.0  0.91723  0.33709  0.62460  1.0000
  H   H1373     1.0  0.85294  0.58053  0.78865  1.0000
  H   H1374     1.0  0.80887  0.55245  0.70248  1.0000
  H   H1375     1.0  0.94356  0.42903  0.12470  1.0000
  C   C1716     1.0  0.93127  0.32709  0.16865  1.0000
  H   H1376     1.0  0.76845  0.40937  0.58814  1.0000
  C   C1717     1.0  0.79848  0.56557  0.21012  1.0000
  H   H1377     1.0  0.94988  0.40844  0.80603  1.0000
  H   H1378     1.0  0.75752  0.38573  0.36750  1.0000
  C   C1718     1.0  0.98731  0.40940  0.92326  1.0000
  H   H1379     1.0  0.77086  0.35965  0.58399  1.0000
  H   H1380     1.0  0.93240  0.41128  0.72140  1.0000
  C   C1719     1.0  0.77657  0.46692  0.66917  1.0000
  H   H1381     1.0  0.81191  0.62295  0.87788  1.0000
  H   H1382     1.0  0.77825  0.63239  0.82008  1.0000
  C   C1720     1.0  0.95406  0.34569  0.39575  1.0000
  C   C1721     1.0  0.78632  0.54797  0.41238  1.0000
  C   C1722     1.0  0.77706  0.54127  0.36600  1.0000
  C   C1723     1.0  0.84657  0.54366  0.70747  1.0000
  H   H1383     1.0  0.79712  0.39093  0.78991  1.0000
  H   H1384     1.0  0.95631  0.50327  0.02101  1.0000
  C   C1724     1.0  0.87740  0.58352  0.72676  1.0000
  H   H1385     1.0  0.90687  0.58716  0.67541  1.0000
  P   P59       1.0  0.74238  0.54062  0.29114  1.0000
  C   C1725     1.0  0.76872  0.44841  0.58893  1.0000
  H   H1386     1.0  0.75731  0.38590  0.95623  1.0000
  H   H1387     1.0  0.81200  0.55284  0.13953  1.0000
  H   H1388     1.0  0.81140  0.57986  0.21338  1.0000
  C   C1726     1.0  0.87214  0.35228  0.22458  1.0000
  C   C1727     1.0  0.75125  0.57275  0.42812  1.0000
  H   H1389     1.0  0.82186  0.57567  0.60123  1.0000
  H   H1390     1.0  0.97318  0.34716  0.39559  1.0000
  H   H1391     1.0  0.78054  0.56861  0.47962  1.0000
  H   H1392     1.0  0.80337  0.54068  0.42476  1.0000
  H   H1393     1.0  0.78736  0.52907  0.34246  1.0000
  C   C1728     1.0  0.90963  0.59982  0.79915  1.0000
  H   H1394     1.0  0.93095  0.50628  0.94631  1.0000
  C   C1729     1.0  0.79785  0.60475  0.62008  1.0000
  C   C1730     1.0  0.76161  0.51213  0.83804  1.0000
  H   H1395     1.0  0.92434  0.34185  0.66080  1.0000
  H   H1396     1.0  0.88530  0.34028  0.39969  1.0000
  C   C1731     1.0  0.81511  0.51779  0.73645  1.0000
  C   C1732     1.0  0.82508  0.33162  0.06795  1.0000
  C   C1733     1.0  0.87030  0.54398  0.59883  1.0000
  H   H1397     1.0  0.77563  0.63348  0.64968  1.0000
  C   C1734     1.0  0.77464  0.42323  0.66213  1.0000
  H   H1398     1.0  0.98592  0.53873  0.70873  1.0000
  C   C1735     1.0  0.75859  0.33277  0.30284  1.0000
  C   C1736     1.0  0.75261  0.34787  0.94250  1.0000
  H   H1399     1.0  0.79037  0.42491  0.30598  1.0000
  C   C1737     1.0  0.76506  0.52890  0.20123  1.0000
  H   H1400     1.0  0.75697  0.52943  0.85494  1.0000
  H   H1401     1.0  0.76551  0.45014  0.54916  1.0000
  C   C1738     1.0  0.75292  0.34743  0.51751  1.0000
  C   C1739     1.0  0.76542  0.47144  0.11119  1.0000
  C   C1740     1.0  0.78345  0.45955  0.13826  1.0000
  C   C1741     1.0  0.80226  0.44808  0.11325  1.0000
  C   C1742     1.0  0.80295  0.44819  0.06120  1.0000
  C   C1743     1.0  0.78494  0.45995  0.03398  1.0000
  H   H1402     1.0  0.78723  0.60237  0.58672  1.0000
  H   H1403     1.0  0.79638  0.51479  0.74246  1.0000
  C   C1744     1.0  0.90441  0.34191  0.39844  1.0000
  H   H1404     1.0  0.78143  0.57466  0.27923  1.0000
  C   C1745     1.0  0.78153  0.56246  0.24751  1.0000
  H   H1405     1.0  0.97177  0.40963  0.89949  1.0000
  C   C1746     1.0  0.82812  0.34241  0.11476  1.0000
  C   C1747     1.0  0.79880  0.55036  0.16841  1.0000
  C   C1748     1.0  0.77405  0.55771  0.95264  1.0000
  H   H1406     1.0  0.78288  0.45925  0.17869  1.0000
  H   H1407     1.0  0.81632  0.43909  0.13411  1.0000
  H   H1408     1.0  0.81762  0.43944  0.04183  1.0000
  H   H1409     1.0  0.86051  0.47132  0.88962  1.0000
  H   H1410     1.0  0.90862  0.53973  0.82966  1.0000
  C   C1749     1.0  0.83090  0.38163  0.07469  1.0000
  C   C1750     1.0  0.92003  0.35286  0.58434  1.0000
  H   H1411     1.0  0.75170  0.40321  0.17532  1.0000
  H   H1412     1.0  0.95424  0.44510  0.85748  1.0000
  H   H1413     1.0  0.93339  0.34908  0.05066  1.0000
  C   C1751     1.0  0.76547  0.36441  0.02140  1.0000
  H   H1414     1.0  0.92952  0.36961  0.58920  1.0000
  C   C1752     1.0  0.77757  0.44397  0.69184  1.0000
  H   H1415     1.0  0.89475  0.55839  0.48691  1.0000
  C   C1753     1.0  0.96271  0.42785  0.12504  1.0000
  C   C1754     1.0  0.77177  0.46909  0.61819  1.0000
  H   H1416     1.0  0.82840  0.38170  0.99447  1.0000
  H   H1417     1.0  0.94819  0.54559  0.87535  1.0000
  H   H1418     1.0  0.92317  0.48824  0.73901  1.0000
  C   C1755     1.0  0.75293  0.37251  0.33943  1.0000
  H   H1419     1.0  0.88227  0.52938  0.71860  1.0000
  C   C1756     1.0  0.78802  0.47716  0.83147  1.0000
  C   C1757     1.0  0.76842  0.40461  0.19533  1.0000
  C   C1758     1.0  0.76448  0.37330  0.80535  1.0000
  C   C1759     1.0  0.79014  0.41676  0.26906  1.0000
  C   C1760     1.0  0.81094  0.40650  0.24921  1.0000
  C   C1761     1.0  0.81079  0.39570  0.20174  1.0000
  C   C1762     1.0  0.78927  0.39461  0.17509  1.0000
  P   P60       1.0  0.83771  0.38170  0.17762  1.0000
  C   C1763     1.0  0.86043  0.40375  0.16501  1.0000
  C   C1764     1.0  0.84805  0.35928  0.22233  1.0000
  H   H1420     1.0  0.74658  0.35052  0.90443  1.0000
  C   C1765     1.0  0.88795  0.56077  0.52442  1.0000
  H   H1421     1.0  0.90358  0.46524  0.87815  1.0000
  H   H1422     1.0  0.96600  0.45201  0.06236  1.0000
  C   C1766     1.0  0.76485  0.54389  0.24368  1.0000
  C   C1767     1.0  0.85874  0.42752  0.18378  1.0000
  C   C1768     1.0  0.87460  0.44513  0.16795  1.0000
  C   C1769     1.0  0.89235  0.43918  0.13361  1.0000
  C   C1770     1.0  0.89454  0.41548  0.11561  1.0000
  C   C1771     1.0  0.87883  0.39779  0.13154  1.0000
  C   C1772     1.0  0.82535  0.34570  0.02462  1.0000
  C   C1773     1.0  0.77461  0.46811  0.79127  1.0000
  H   H1423     1.0  0.80862  0.54293  0.97079  1.0000
  H   H1424     1.0  0.96567  0.50348  0.74404  1.0000
  Fe  Fe120     1.0  0.75076  0.54715  0.60407  1.0000
  C   C1774     1.0  0.83193  0.34859  0.25535  1.0000
  S   S241      1.0  0.88670  0.64359  0.10867  1.0000
  H   H1425     1.0  0.79980  0.63835  0.72629  1.0000
  C   C1775     1.0  0.75387  0.48088  0.77678  1.0000
  H   H1426     1.0  0.82713  0.40667  0.27122  1.0000
  H   H1427     1.0  0.78834  0.38574  0.13917  1.0000
  C   C1776     1.0  0.83150  0.36748  0.11833  1.0000
  H   H1428     1.0  0.84183  0.51197  0.87596  1.0000
  H   H1429     1.0  0.75275  0.42342  0.25774  1.0000
  C   C1777     1.0  0.77341  0.56365  0.44345  1.0000
  H   H1430     1.0  0.79251  0.50634  0.88411  1.0000
  H   H1431     1.0  0.84496  0.43286  0.20959  1.0000
  H   H1432     1.0  0.87299  0.46355  0.18180  1.0000
  H   H1433     1.0  0.90426  0.45304  0.12063  1.0000
  H   H1434     1.0  0.90803  0.41093  0.08823  1.0000
  H   H1435     1.0  0.88053  0.37966  0.11614  1.0000
  H   H1436     1.0  0.86607  0.54567  0.84558  1.0000
  C   C1778     1.0  0.88658  0.59386  0.81287  1.0000
  H   H1437     1.0  0.93473  0.60188  0.73911  1.0000
  H   H1438     1.0  0.83357  0.40100  0.07638  1.0000
  C   C1779     1.0  0.83203  0.50046  0.75166  1.0000
  C   C1780     1.0  0.85617  0.50449  0.74443  1.0000
  H   H1439     1.0  0.82655  0.48400  0.76951  1.0000
  H   H1440     1.0  0.86922  0.49107  0.75671  1.0000
  C   C1781     1.0  0.92731  0.45011  0.72442  1.0000
  C   C1782     1.0  0.93485  0.42763  0.74320  1.0000
  C   C1783     1.0  0.94484  0.42605  0.79091  1.0000
  C   C1784     1.0  0.94749  0.44696  0.81981  1.0000
  C   C1785     1.0  0.94049  0.46973  0.80077  1.0000
  C   C1786     1.0  0.92989  0.47106  0.75326  1.0000
  P   P61       1.0  0.94056  0.49637  0.83999  1.0000
  C   C1787     1.0  0.90957  0.50206  0.85355  1.0000
  C   C1788     1.0  0.95774  0.49149  0.89617  1.0000
  C   C1789     1.0  0.94882  0.49882  0.94273  1.0000
  C   C1790     1.0  0.96323  0.49724  0.98529  1.0000
  C   C1791     1.0  0.98131  0.48281  0.89276  1.0000
  H   H1441     1.0  0.86300  0.52845  0.61762  1.0000
  C   C1792     1.0  0.89865  0.52466  0.84371  1.0000
  C   C1793     1.0  0.87434  0.52813  0.85219  1.0000
  C   C1794     1.0  0.86062  0.50904  0.86918  1.0000
  C   C1795     1.0  0.87118  0.48628  0.87728  1.0000
  C   C1796     1.0  0.89562  0.48289  0.87047  1.0000
  C   C1797     1.0  0.95455  0.52212  0.81156  1.0000
  C   C1798     1.0  0.96565  0.52028  0.76481  1.0000
  C   C1799     1.0  0.96771  0.56375  0.81839  1.0000
  C   C1800     1.0  0.95603  0.54391  0.83853  1.0000
  H   H1442     1.0  0.83506  0.61258  0.74076  1.0000
  H   H1443     1.0  0.94179  0.34608  0.23471  1.0000
  C   C1801     1.0  0.91019  0.34727  0.53797  1.0000
  C   C1802     1.0  0.90077  0.58917  0.71337  1.0000
  C   C1803     1.0  0.77803  0.39323  0.79181  1.0000
  H   H1444     1.0  0.81319  0.35338  0.25444  1.0000
  C   C1804     1.0  0.76686  0.41542  0.77930  1.0000
  H   H1445     1.0  0.89857  0.32971  0.26157  1.0000
  H   H1446     1.0  0.80381  0.46791  0.84475  1.0000
  H   H1447     1.0  0.75217  0.51477  0.19683  1.0000
  H   H1448     1.0  0.96854  0.58052  0.83943  1.0000
  H   H1449     1.0  0.75792  0.49832  0.35326  1.0000
  H   H1450     1.0  0.75099  0.48008  0.13137  1.0000
  C   C1805     1.0  0.75600  0.51529  0.99508  1.0000
  C   C1806     1.0  0.75456  0.54991  0.35065  1.0000
  C   C1807     1.0  0.76628  0.47208  0.05879  1.0000
  H   H1451     1.0  0.87844  0.33014  0.06796  1.0000
  H   H1452     1.0  0.77001  0.37990  0.04416  1.0000
  C   C1808     1.0  0.98657  0.48834  0.98169  1.0000
  C   C1809     1.0  0.74432  0.49277  0.32738  1.0000
  C   C1810     1.0  0.90503  0.65223  0.16046  1.0000
  H   H1453     1.0  0.96622  0.40716  0.30709  1.0000
  H   H1454     1.0  0.82403  0.33715  0.98832  1.0000
  C   C1811     1.0  0.93528  0.64384  0.22423  1.0000
  C   C1812     1.0  0.97541  0.44100  0.08977  1.0000
  C   C1813     1.0  0.88000  0.33514  0.25974  1.0000
  C   C1814     1.0  0.83990  0.33157  0.29054  1.0000
  C   C1815     1.0  0.98637  0.39824  0.97002  1.0000
  H   H1455     1.0  0.74603  0.45608  0.35426  1.0000
  C   C1816     1.0  0.74756  0.50284  0.79981  1.0000
  P   P62       1.0  0.74387  0.48830  0.02303  1.0000
  H   H1456     1.0  0.95661  0.65712  0.11027  1.0000
  H   H1457     1.0  0.92978  0.64698  0.04110  1.0000
  H   H1458     1.0  0.80698  0.33526  0.56656  1.0000
  H   H1459     1.0  0.99096  0.34411  0.02728  1.0000
  C   C1817     1.0  0.92957  0.32757  0.11679  1.0000
  H   H1460     1.0  0.84996  0.32764  0.56778  1.0000
  C   C1818     1.0  0.89774  0.32580  0.53160  1.0000
  C   C1819     1.0  0.86391  0.32482  0.29270  1.0000
  Fe  Fe121     1.0  0.82268  0.96639  0.09763  1.0000
  S   S242      1.0  0.81969  0.96950  0.18191  1.0000
  S   S243      1.0  0.85527  0.94808  0.05942  1.0000
  H   H1461     1.0  0.91728  0.74855  0.98898  1.0000
  H   H1462     1.0  0.94456  0.75464  0.06063  1.0000
  C   C1820     1.0  0.98005  0.67865  0.06479  1.0000
  C   C1821     1.0  0.91930  0.97459  0.51473  1.0000
  Fe  Fe122     1.0  0.77981  0.96682  0.17348  1.0000
  C   C1822     1.0  0.87378  0.84211  0.95414  1.0000
  C   C1823     1.0  0.85506  0.85422  0.97842  1.0000
  S   S244      1.0  0.78331  0.96004  0.09008  1.0000
  Fe  Fe123     1.0  0.96780  0.90055  0.75933  1.0000
  S   S245      1.0  0.96028  0.89996  0.67723  1.0000
  H   H1463     1.0  0.93721  0.66252  0.95601  1.0000
  Fe  Fe124     1.0  0.91460  0.90068  0.78914  1.0000
  S   S246      1.0  0.90385  0.89884  0.70777  1.0000
  S   S247      1.0  0.88344  0.90341  0.84513  1.0000
  Fe  Fe125     1.0  0.93374  0.87143  0.69604  1.0000
  S   S248      1.0  0.93014  0.83442  0.65654  1.0000
  Fe  Fe126     1.0  0.93136  0.92730  0.69593  1.0000
  S   S249      1.0  0.92402  0.96077  0.64830  1.0000
  S   S250      1.0  0.94237  0.87094  0.77871  1.0000
  S   S251      1.0  0.94094  0.93001  0.77685  1.0000
  H   H1464     1.0  0.85955  0.98403  0.51045  1.0000
  C   C1824     1.0  0.92689  0.80519  0.84569  1.0000
  Fe  Fe127     1.0  0.96988  0.75393  0.40337  1.0000
  S   S252      1.0  0.96220  0.74608  0.32125  1.0000
  S   S253      1.0  0.95881  0.78963  0.44307  1.0000
  Fe  Fe128     1.0  0.96342  0.70617  0.34077  1.0000
  S   S254      1.0  0.94497  0.67294  0.30614  1.0000
  H   H1465     1.0  0.91994  0.87292  0.00508  1.0000
  H   H1466     1.0  0.87975  0.84168  0.76936  1.0000
  S   S255      1.0  0.96740  0.71425  0.42392  1.0000
  H   H1467     1.0  0.97460  0.95400  0.62395  1.0000
  H   H1468     1.0  0.95755  0.91213  0.89138  1.0000
  H   H1469     1.0  0.92236  0.96598  0.36027  1.0000
  C   C1825     1.0  0.85976  0.87298  0.01189  1.0000
  C   C1826     1.0  0.91373  0.68200  0.22637  1.0000
  H   H1470     1.0  0.93282  0.96638  0.53849  1.0000
  H   H1471     1.0  0.90954  0.69907  0.24444  1.0000
  C   C1827     1.0  0.89733  0.84912  0.96233  1.0000
  H   H1472     1.0  0.88386  0.80255  0.48111  1.0000
  C   C1828     1.0  0.94077  0.82159  0.59909  1.0000
  C   C1829     1.0  0.95371  0.83484  0.56427  1.0000
  C   C1830     1.0  0.96010  0.82432  0.51788  1.0000
  C   C1831     1.0  0.95392  0.80037  0.50551  1.0000
  C   C1832     1.0  0.94184  0.78682  0.54119  1.0000
  C   C1833     1.0  0.93525  0.79739  0.58740  1.0000
  H   H1473     1.0  0.95821  0.85341  0.57243  1.0000
  C   C1834     1.0  0.84199  0.96885  0.39616  1.0000
  H   H1474     1.0  0.93667  0.76852  0.53236  1.0000
  H   H1475     1.0  0.92527  0.78687  0.61384  1.0000
  C   C1835     1.0  0.87590  0.91841  0.90261  1.0000
  C   C1836     1.0  0.85194  0.91930  0.91780  1.0000
  C   C1837     1.0  0.84511  0.92952  0.96418  1.0000
  C   C1838     1.0  0.86227  0.93847  0.99701  1.0000
  C   C1839     1.0  0.88620  0.93805  0.98138  1.0000
  C   C1840     1.0  0.89293  0.92845  0.93436  1.0000
  H   H1476     1.0  0.83853  0.91167  0.89376  1.0000
  H   H1477     1.0  0.82668  0.92955  0.97538  1.0000
  H   H1478     1.0  0.89969  0.94490  0.00622  1.0000
  H   H1479     1.0  0.91139  0.92817  0.92345  1.0000
  C   C1841     1.0  0.88318  0.87947  0.02156  1.0000
  C   C1842     1.0  0.79065  0.94155  0.88081  1.0000
  C   C1843     1.0  0.91373  0.82388  0.86892  1.0000
  C   C1844     1.0  0.96827  0.68236  0.97777  1.0000
  C   C1845     1.0  0.89687  0.83712  0.84084  1.0000
  H   H1480     1.0  0.86982  0.82748  0.92868  1.0000
  H   H1481     1.0  0.84528  0.88272  0.03007  1.0000
  H   H1482     1.0  0.90706  0.78265  0.93267  1.0000
  C   C1846     1.0  0.88489  0.91895  0.34447  1.0000
  C   C1847     1.0  0.89341  0.94255  0.34223  1.0000
  C   C1848     1.0  0.91556  0.94780  0.36290  1.0000
  C   C1849     1.0  0.92916  0.92950  0.38606  1.0000
  C   C1850     1.0  0.92071  0.90573  0.38848  1.0000
  C   C1851     1.0  0.89852  0.90056  0.36721  1.0000
  P   P63       1.0  0.93919  0.88174  0.41453  1.0000
  C   C1852     1.0  0.95563  0.89312  0.46750  1.0000
  C   C1853     1.0  0.92050  0.85734  0.43525  1.0000
  C   C1854     1.0  0.91230  0.85641  0.48469  1.0000
  C   C1855     1.0  0.89893  0.83684  0.50094  1.0000
  C   C1856     1.0  0.89346  0.81812  0.46798  1.0000
  C   C1857     1.0  0.90097  0.81918  0.41844  1.0000
  C   C1858     1.0  0.91428  0.83877  0.40199  1.0000
  C   C1859     1.0  0.94452  0.90876  0.50201  1.0000
  C   C1860     1.0  0.95671  0.91624  0.54476  1.0000
  C   C1861     1.0  0.98022  0.90858  0.55285  1.0000
  C   C1862     1.0  0.98141  0.75805  0.15230  1.0000
  C   C1863     1.0  0.97934  0.88567  0.47582  1.0000
  C   C1864     1.0  0.95995  0.87057  0.36807  1.0000
  C   C1865     1.0  0.96987  0.84716  0.37276  1.0000
  C   C1866     1.0  0.99021  0.79636  0.74458  1.0000
  C   C1867     1.0  0.94901  0.66731  0.98637  1.0000
  H   H1483     1.0  0.77299  0.97752  0.39237  1.0000
  H   H1484     1.0  0.96017  0.90355  0.32410  1.0000
  H   H1485     1.0  0.86785  0.91481  0.32782  1.0000
  H   H1486     1.0  0.94644  0.93378  0.40125  1.0000
  H   H1487     1.0  0.89176  0.88231  0.36767  1.0000
  H   H1488     1.0  0.91683  0.87016  0.51159  1.0000
  H   H1489     1.0  0.94094  0.79564  0.86569  1.0000
  H   H1490     1.0  0.89719  0.80439  0.39319  1.0000
  H   H1491     1.0  0.92024  0.83899  0.36364  1.0000
  H   H1492     1.0  0.92618  0.91453  0.49678  1.0000
  H   H1493     1.0  0.94772  0.92744  0.57236  1.0000
  C   C1868     1.0  0.81631  0.98712  0.31447  1.0000
  H   H1494     1.0  0.96946  0.83504  0.49098  1.0000
  C   C1869     1.0  0.99136  0.97512  0.80298  1.0000
  H   H1495     1.0  0.96476  0.83552  0.40309  1.0000
  C   C1870     1.0  0.82738  0.95359  0.36826  1.0000
  H   H1496     1.0  0.89362  0.83573  0.53972  1.0000
  C   C1871     1.0  0.81158  0.97945  0.89246  1.0000
  C   C1872     1.0  0.96731  0.88536  0.32859  1.0000
  H   H1497     1.0  0.97859  0.78487  0.72303  1.0000
  C   C1873     1.0  0.84679  0.98297  0.72493  1.0000
  H   H1498     1.0  0.92400  0.88511  0.90710  1.0000
  H   H1499     1.0  0.83687  0.84922  0.97101  1.0000
  H   H1500     1.0  0.87284  0.95695  0.69805  1.0000
  C   C1874     1.0  0.92942  0.80833  0.97093  1.0000
  C   C1875     1.0  0.94625  0.85349  0.92183  1.0000
  H   H1501     1.0  0.83991  0.98714  0.68810  1.0000
  C   C1876     1.0  0.80707  0.95845  0.86429  1.0000
  C   C1877     1.0  0.96034  0.66399  0.07331  1.0000
  C   C1878     1.0  0.96968  0.84428  0.92192  1.0000
  C   C1879     1.0  0.91942  0.78549  0.96309  1.0000
  H   H1502     1.0  0.92558  0.97506  0.75276  1.0000
  C   C1880     1.0  0.94201  0.87798  0.91012  1.0000
  C   C1881     1.0  0.87414  0.96046  0.77796  1.0000
  H   H1503     1.0  0.94431  0.98801  0.46144  1.0000
  C   C1882     1.0  0.81457  0.96271  0.32737  1.0000
  C   C1883     1.0  0.90516  0.81200  0.76862  1.0000
  H   H1504     1.0  0.95157  0.82947  0.02010  1.0000
  C   C1884     1.0  0.94038  0.76959  0.03557  1.0000
  H   H1505     1.0  0.93267  0.78482  0.77785  1.0000
  H   H1506     1.0  0.96472  0.82578  0.74788  1.0000
  C   C1885     1.0  0.96305  0.71208  0.16925  1.0000
  C   C1886     1.0  0.95167  0.73262  0.18914  1.0000
  H   H1507     1.0  0.78748  0.92536  0.85906  1.0000
  H   H1508     1.0  0.95124  0.96667  0.89576  1.0000
  C   C1887     1.0  0.79947  0.98291  0.93770  1.0000
  C   C1888     1.0  0.93097  0.66645  0.24746  1.0000
  C   C1889     1.0  0.89541  0.97332  0.52813  1.0000
  C   C1890     1.0  0.98429  0.88420  0.90250  1.0000
  H   H1509     1.0  0.95566  0.69440  0.17578  1.0000
  P   P64       1.0  0.92160  0.83361  0.93101  1.0000
  H   H1510     1.0  0.93589  0.73066  0.21169  1.0000
  H   H1511     1.0  0.89054  0.96400  0.56215  1.0000
  C   C1891     1.0  0.89248  0.83107  0.79103  1.0000
  C   C1892     1.0  0.86484  0.97225  0.81989  1.0000
  C   C1893     1.0  0.98237  0.81950  0.75867  1.0000
  H   H1512     1.0  0.97284  0.97688  0.70230  1.0000
  H   H1513     1.0  0.84321  0.98541  0.97353  1.0000
  H   H1514     1.0  0.98841  0.87349  0.45030  1.0000
  C   C1894     1.0  0.98408  0.71431  0.14188  1.0000
  H   H1515     1.0  0.88296  0.95667  0.32385  1.0000
  S   S256      1.0  0.75779  0.94306  0.22649  1.0000
  H   H1516     1.0  0.88824  0.94702  0.78232  1.0000
  C   C1895     1.0  0.90193  0.86755  0.99708  1.0000
  H   H1517     1.0  0.88669  0.89414  0.04738  1.0000
  C   C1896     1.0  0.87793  0.98470  0.49875  1.0000
  H   H1518     1.0  0.82590  0.93465  0.37832  1.0000
  H   H1519     1.0  0.85167  0.96131  0.42758  1.0000
  C   C1897     1.0  0.94439  0.81177  0.01227  1.0000
  H   H1520     1.0  0.87166  0.96740  0.85648  1.0000
  C   C1898     1.0  0.92241  0.79911  0.79587  1.0000
  H   H1521     1.0  0.97330  0.82520  0.92841  1.0000
  H   H1522     1.0  0.81620  0.95482  0.82959  1.0000
  C   C1899     1.0  0.91642  0.98813  0.67959  1.0000
  H   H1523     1.0  0.95264  0.77138  0.19814  1.0000
  H   H1524     1.0  0.80323  0.95093  0.30559  1.0000
  C   C1900     1.0  0.92505  0.76616  0.99511  1.0000
  H   H1525     1.0  0.88722  0.68692  0.16850  1.0000
  C   C1901     1.0  0.78265  0.96626  0.95341  1.0000
  H   H1526     1.0  0.77281  0.96959  0.98739  1.0000
  C   C1902     1.0  0.94997  0.79242  0.04423  1.0000
  C   C1903     1.0  0.96099  0.75558  0.18118  1.0000
  C   C1904     1.0  0.96098  0.89331  0.90090  1.0000
  H   H1527     1.0  0.90207  0.80770  0.72966  1.0000
  C   C1905     1.0  0.90090  0.67493  0.18340  1.0000
  H   H1528     1.0  0.88752  0.85255  0.85683  1.0000
  H   H1529     1.0  0.98327  0.94471  0.84959  1.0000
  H   H1530     1.0  0.96151  0.79519  0.07608  1.0000
  C   C1906     1.0  0.77832  0.94553  0.92522  1.0000
  H   H1531     1.0  0.76543  0.93259  0.93789  1.0000
  C   C1907     1.0  0.91848  0.98996  0.73141  1.0000
  C   C1908     1.0  0.96114  0.97590  0.86710  1.0000
  H   H1532     1.0  0.98957  0.91398  0.58638  1.0000
  C   C1909     1.0  0.99154  0.89341  0.51830  1.0000
  C   C1910     1.0  0.86527  0.96591  0.73048  1.0000
  C   C1911     1.0  0.92574  0.98691  0.47147  1.0000
  C   C1912     1.0  0.98806  0.96725  0.63173  1.0000
  C   C1913     1.0  0.98864  0.85967  0.91262  1.0000
  H   H1533     1.0  0.99016  0.88826  0.26439  1.0000
  C   C1914     1.0  0.98676  0.83860  0.33873  1.0000
  C   C1915     1.0  0.97906  0.96351  0.84103  1.0000
  C   C1916     1.0  0.98719  0.98021  0.67652  1.0000
  H   H1534     1.0  0.97134  0.68928  0.94061  1.0000
  H   H1535     1.0  0.98904  0.77576  0.14729  1.0000
  C   C1917     1.0  0.98353  0.68838  0.01703  1.0000
  C   C1918     1.0  0.98435  0.87677  0.29458  1.0000
  C   C1919     1.0  0.84636  0.98952  0.81466  1.0000
  H   H1536     1.0  0.99161  0.85284  0.79539  1.0000
  C   C1920     1.0  0.94496  0.65830  0.03419  1.0000
