data_image0
_chemical_formula_structural       CHFeCH5C7HSCH2CSC5FeHC2HCHC2H2PSHC3HC2PCHC2HC4HCH2SC2H3CHC3HCHC2H4CH2SH2CH2C2HC3H2C2HCHC5HCFeCHCHFeCH2SCH2CHCSFePCH2C2H2CHC3SCHSCH2C2HC4HC2HC3SCH4C4HC2SHC2HCH2C5H4CHC2H2CHC2HCSHC3HFeCH2C3H2CHC3H2C3HSC3HC2PH2C2H2CSPHCH3C2HCSCFeC3HSHC2HCHCHSCSCSFeC3H4C2H2C3H2C2HC2SH2CH2CH2C2HCH2C10H4CHC3H4CHCHCHCH2C2HCHFeCPC4H3CSFeH3CH2CHCH2C3HC2HC3H3C2HCHCHC2H3C2SC2H5FeC2HC3PCS2H2PC2HCHC2HCHFeCHCHCHC2SC2HSH2SC3HC4H2CHC2FeSHC2HCHCHCHSHCSHPCH5C4HCH4SCH2CHC2HC2HC4HC2HCHC2H2CHC3HCH2C4HCH2C2HC2HC2HCHCHCHCH3CH3C6HCHC2HCH3CHCFeHFeH3C2HSFeH3CSCHFeHCPHFeCHCSCHCSC2HFeHFeHC2FeCSHPHFeH2CSCH2CSC3HCHC2HCHC2SHC2HC2SCSC2FeCHSCH7CHCH2C4SHC4HC5HCH3C2HC2HCH3CHCHC2HC2HCPC2HCH2C2HC2H3CHC2H3S2C6SHCHC3HS2C2HFeHC2H3CHPH3C3H3CHC3HC2HCHC3H2C3HPC5H2C2H2C2HC3FeH3C2H3CFeH2C4H2C2HC9FeC2HC2H2C2SC2FeCHCH2FeH5CSCHC4SCSCHCHCH4CSC2FeS2HC3HSHCHC3H2PHFeCSC4HSH2CH5C2H3CFeSCHFeHFeHCSCHCH2SCH2SCSHCH4CH4C4SHCH4FeCHC4SCSH3C2HC2HCH2C2HC4H2C2SC6HCHCH3C3HSPC3H2SCSC2HC2H2C5HCHC7H2CH4C2H3CH2CHC4H2C5HC2H2CSC3HCHC2H2SC2HCHC2HC5SC2H3FeHCSCP2CH3SPC3HCH3C2HCHC4HC2H2CHC2HCH2C2SCSH4C6H2SC4HC2HC5H2CH2C3PH3CH4SCH4SC2H2Fe2HCHSPHFeH2PHC2SH2CFeCHC2FeHC2H6CHC2HC4H2C4HC3H2C4SHC5HC2H2SHCHPCHC2HCH3C3HFeCH2SH6C7HC4H3CHC2HCH2FeCHS2H2CHCHSCHFeHSFeC2HCHC4PHCH4CH2C5HCHC2HCH2C2HCH2C2HCFeC3HC3HCH3C2H2CH2CHCFeC2HCHC2HCHCH3CSCHC2SHCHC4HCPC2HCHCPC2HCHCH2CHFe2CHCHCHC7SCHFeHC2HSCH2CH2C3HC8H3C3H3CSC3HCHC2H3C2H2C3HCHC2PCPHC2H2PC7HCH2C2H2FeH3CSCH3CFeC2HCHCHC2FeHC2HC2SC2H2C3H2CSC4HCHC2HSH2C2H3CHFeCHSHC2HSCSCH4CHC2SH2C2SFeHCHSFeCSH4C5H3CHC3H2SH4C2HCSCH3SH2C2HC4HFeC6H2CH3C3H3CSC3HC3H2C2PH2C2SH2CHC6H4C5FeHCH2SH3CHCHCHC3HCSCH2C2SPH3SCHCHSFeH2CHCSH4FeCH4CH2CHC2H2SHSHC2HFeCH2C3SC2HC4SC3HFeC4HC2HCHC3SHSC2HCHC2PH2CSC2HCH2CSH2C2HSFeHC2H2C3HSC2SFeSHC2H2CH2C2
_chemical_formula_sum              "C960 H768 Fe64 S128 P32"
_cell_length_a       32.0146
_cell_length_b       30.4929
_cell_length_c       26.9546
_cell_angle_alpha    100.755
_cell_angle_beta     91.0834
_cell_angle_gamma    88.98

_space_group_name_H-M_alt    "P 1"
_space_group_IT_number       1

loop_
  _space_group_symop_operation_xyz
  'x, y, z'

loop_
  _atom_site_type_symbol
  _atom_site_label
  _atom_site_symmetry_multiplicity
  _atom_site_fract_x
  _atom_site_fract_y
  _atom_site_fract_z
  _atom_site_occupancy
  C   C1        1.0  0.19386  0.61784  0.83570  1.0000
  H   H1        1.0  0.44462  0.26218  0.82282  1.0000
  Fe  Fe1       1.0  0.51870  0.60628  0.65401  1.0000
  C   C2        1.0  0.12265  0.34722  0.69866  1.0000
  H   H2        1.0  0.26037  0.35107  0.85701  1.0000
  H   H3        1.0  0.10348  0.43770  0.79046  1.0000
  H   H4        1.0  0.16136  0.59799  0.71291  1.0000
  H   H5        1.0  0.07752  0.29835  0.66670  1.0000
  H   H6        1.0  0.37417  0.23318  0.70140  1.0000
  C   C3        1.0  0.10908  0.18582  0.65861  1.0000
  C   C4        1.0  0.13691  0.30591  0.83356  1.0000
  C   C5        1.0  0.49178  0.32232  0.69685  1.0000
  C   C6        1.0  0.33457  0.45389  0.63731  1.0000
  C   C7        1.0  0.13013  0.38637  0.73364  1.0000
  C   C8        1.0  0.05014  0.34914  0.72447  1.0000
  C   C9        1.0  0.50580  0.32736  0.74702  1.0000
  H   H7        1.0  0.06284  0.19602  0.77970  1.0000
  S   S1        1.0  0.45990  0.20645  0.70718  1.0000
  C   C10       1.0  0.26676  0.18576  0.80552  1.0000
  H   H8        1.0  0.43854  0.31677  0.64634  1.0000
  H   H9        1.0  0.30378  0.38141  0.67990  1.0000
  C   C11       1.0  0.04815  0.53114  0.63822  1.0000
  S   S2        1.0  0.53092  0.54711  0.69053  1.0000
  C   C12       1.0  0.08280  0.32878  0.69395  1.0000
  C   C13       1.0  0.38473  0.22069  0.66351  1.0000
  C   C14       1.0  0.06938  0.19394  0.63933  1.0000
  C   C15       1.0  0.34577  0.62911  0.63707  1.0000
  C   C16       1.0  0.50189  0.43283  0.84077  1.0000
  Fe  Fe2       1.0  0.52677  0.19645  0.68347  1.0000
  H   H10       1.0  0.06534  0.26837  0.75281  1.0000
  C   C17       1.0  0.11179  0.56956  0.62603  1.0000
  C   C18       1.0  0.09116  0.61072  0.63999  1.0000
  H   H11       1.0  0.27070  0.33213  0.73008  1.0000
  C   C19       1.0  0.35088  0.19123  0.78177  1.0000
  H   H12       1.0  0.38700  0.32775  0.71525  1.0000
  C   C20       1.0  0.44907  0.32202  0.68538  1.0000
  C   C21       1.0  0.09044  0.52976  0.62572  1.0000
  H   H13       1.0  0.06433  0.22146  0.61967  1.0000
  H   H14       1.0  0.05032  0.49719  0.77974  1.0000
  P   P1        1.0  0.07742  0.57251  0.85741  1.0000
  S   S3        1.0  0.26493  0.16175  0.63743  1.0000
  H   H15       1.0  0.45067  0.41558  0.64192  1.0000
  C   C22       1.0  0.28857  0.35148  0.66055  1.0000
  C   C23       1.0  0.16571  0.28729  0.79694  1.0000
  C   C24       1.0  0.29078  0.22093  0.83184  1.0000
  H   H16       1.0  0.23395  0.26392  0.68709  1.0000
  C   C25       1.0  0.40528  0.46671  0.66986  1.0000
  C   C26       1.0  0.05003  0.61203  0.65668  1.0000
  P   P2        1.0  0.49392  0.34451  0.85138  1.0000
  C   C27       1.0  0.38206  0.65039  0.65854  1.0000
  H   H17       1.0  0.53849  0.25955  0.83957  1.0000
  C   C28       1.0  0.26959  0.32376  0.68922  1.0000
  C   C29       1.0  0.42007  0.62685  0.65567  1.0000
  H   H18       1.0  0.23419  0.18272  0.81438  1.0000
  C   C30       1.0  0.05775  0.38868  0.75927  1.0000
  C   C31       1.0  0.42010  0.32798  0.72423  1.0000
  C   C32       1.0  0.43393  0.33386  0.77453  1.0000
  C   C33       1.0  0.42643  0.20747  0.65521  1.0000
  H   H19       1.0  0.42790  0.48798  0.69276  1.0000
  C   C34       1.0  0.42148  0.58179  0.63254  1.0000
  H   H20       1.0  0.35370  0.51248  0.69004  1.0000
  H   H21       1.0  0.15747  0.28341  0.75713  1.0000
  S   S4        1.0  0.46598  0.65379  0.67970  1.0000
  C   C35       1.0  0.35629  0.21670  0.62296  1.0000
  C   C36       1.0  0.09771  0.40707  0.76383  1.0000
  H   H22       1.0  0.51408  0.31843  0.66675  1.0000
  H   H23       1.0  0.45043  0.56304  0.63125  1.0000
  H   H24       1.0  0.51931  0.41959  0.80700  1.0000
  C   C37       1.0  0.16038  0.59976  0.75338  1.0000
  H   H25       1.0  0.10658  0.31737  0.82228  1.0000
  C   C38       1.0  0.12287  0.59000  0.82802  1.0000
  C   C39       1.0  0.19521  0.61476  0.78340  1.0000
  C   C40       1.0  0.33305  0.22350  0.81958  1.0000
  H   H26       1.0  0.32406  0.22634  0.62981  1.0000
  C   C41       1.0  0.12430  0.58724  0.77545  1.0000
  H   H27       1.0  0.38353  0.19325  0.77243  1.0000
  C   C42       1.0  0.36347  0.48042  0.66839  1.0000
  C   C43       1.0  0.49620  0.47905  0.85469  1.0000
  H   H28       1.0  0.41121  0.33927  0.80441  1.0000
  H   H29       1.0  0.14408  0.56829  0.61526  1.0000
  H   H30       1.0  0.35238  0.25024  0.83888  1.0000
  H   H31       1.0  0.09780  0.57548  0.75132  1.0000
  C   C44       1.0  0.24898  0.28539  0.66517  1.0000
  H   H32       1.0  0.22318  0.62419  0.76614  1.0000
  H   H33       1.0  0.30247  0.46563  0.63621  1.0000
  S   S5        1.0  0.15190  0.21725  0.64730  1.0000
  H   H34       1.0  0.50891  0.50106  0.83165  1.0000
  H   H35       1.0  0.16096  0.40086  0.73712  1.0000
  C   C45       1.0  0.41811  0.42600  0.64093  1.0000
  H   H36       1.0  0.31681  0.64762  0.63903  1.0000
  H   H37       1.0  0.14769  0.33092  0.67518  1.0000
  C   C46       1.0  0.20532  0.27369  0.81152  1.0000
  C   C47       1.0  0.47687  0.33261  0.78620  1.0000
  H   H38       1.0  0.22746  0.26053  0.78244  1.0000
  C   C48       1.0  0.15769  0.60606  0.85803  1.0000
  C   C49       1.0  0.21602  0.27735  0.86298  1.0000
  C   C50       1.0  0.44704  0.27054  0.86363  1.0000
  H   H39       1.0  0.22093  0.62910  0.85911  1.0000
  H   H40       1.0  0.44116  0.65052  0.02159  1.0000
  C   C51       1.0  0.46259  0.42202  0.91332  1.0000
  C   C52       1.0  0.16515  0.36078  0.06621  1.0000
  H   H41       1.0  0.46615  0.64969  0.93504  1.0000
  C   C53       1.0  0.26590  0.26330  0.98645  1.0000
  H   H42       1.0  0.30323  0.41839  0.88132  1.0000
  C   C54       1.0  0.12824  0.50386  0.88363  1.0000
  C   C55       1.0  0.14751  0.31024  0.88477  1.0000
  C   C56       1.0  0.06021  0.60319  0.96006  1.0000
  C   C57       1.0  0.52999  0.58803  0.02639  1.0000
  C   C58       1.0  0.47369  0.31630  0.94047  1.0000
  H   H43       1.0  0.49187  0.34409  0.95970  1.0000
  C   C59       1.0  0.52939  0.43218  0.01955  1.0000
  Fe  Fe3       1.0  0.39554  0.28313  0.10744  1.0000
  C   C60       1.0  0.26441  0.24438  0.02978  1.0000
  H   H44       1.0  0.26936  0.29904  0.99085  1.0000
  C   C61       1.0  0.15539  0.24147  0.07499  1.0000
  H   H45       1.0  0.04658  0.27306  0.86791  1.0000
  Fe  Fe4       1.0  0.06569  0.51294  0.09853  1.0000
  C   C62       1.0  0.49228  0.61026  0.04178  1.0000
  H   H46       1.0  0.08216  0.16090  0.88733  1.0000
  H   H47       1.0  0.13211  0.52781  0.02407  1.0000
  S   S6        1.0  0.38818  0.21274  0.06564  1.0000
  C   C63       1.0  0.08736  0.51942  0.87670  1.0000
  H   H48       1.0  0.44855  0.40079  0.93602  1.0000
  H   H49       1.0  0.15727  0.60864  0.89873  1.0000
  C   C64       1.0  0.48377  0.63196  0.96013  1.0000
  H   H50       1.0  0.16654  0.45140  0.90516  1.0000
  C   C65       1.0  0.10113  0.43619  0.90514  1.0000
  S   S7        1.0  0.06397  0.47102  0.02152  1.0000
  Fe  Fe5       1.0  0.40331  0.37934  0.09393  1.0000
  P   P3        1.0  0.26753  0.26085  0.88224  1.0000
  C   C66       1.0  0.26383  0.23619  0.93819  1.0000
  H   H51       1.0  0.19465  0.30041  0.93930  1.0000
  H   H52       1.0  0.12542  0.32503  0.91332  1.0000
  C   C67       1.0  0.25959  0.18982  0.93425  1.0000
  C   C68       1.0  0.47399  0.49676  0.89813  1.0000
  H   H53       1.0  0.06190  0.56880  0.96501  1.0000
  H   H54       1.0  0.46926  0.53251  0.90900  1.0000
  C   C69       1.0  0.40187  0.56882  0.10853  1.0000
  H   H55       1.0  0.41633  0.21026  0.87308  1.0000
  C   C70       1.0  0.28813  0.34946  0.88015  1.0000
  C   C71       1.0  0.05163  0.63630  0.00223  1.0000
  C   C72       1.0  0.05354  0.49301  0.88475  1.0000
  S   S8        1.0  0.41499  0.42205  0.03689  1.0000
  C   C73       1.0  0.34812  0.38677  0.92409  1.0000
  H   H56       1.0  0.17161  0.26448  0.00733  1.0000
  S   S9        1.0  0.23671  0.62476  0.97222  1.0000
  C   C74       1.0  0.45751  0.28653  0.96862  1.0000
  H   H57       1.0  0.46224  0.29217  0.00919  1.0000
  H   H58       1.0  0.27074  0.35848  0.07815  1.0000
  C   C75       1.0  0.13501  0.46256  0.89821  1.0000
  C   C76       1.0  0.05352  0.25821  0.94264  1.0000
  H   H59       1.0  0.38730  0.34684  0.96446  1.0000
  C   C77       1.0  0.29952  0.30998  0.89714  1.0000
  C   C78       1.0  0.46766  0.30930  0.88786  1.0000
  C   C79       1.0  0.15888  0.23731  0.02273  1.0000
  C   C80       1.0  0.48555  0.40396  0.87039  1.0000
  H   H60       1.0  0.10635  0.40495  0.91810  1.0000
  C   C81       1.0  0.31238  0.38773  0.89372  1.0000
  C   C82       1.0  0.30087  0.47024  0.09983  1.0000
  H   H61       1.0  0.15047  0.19435  0.95029  1.0000
  C   C83       1.0  0.13833  0.20691  0.09567  1.0000
  C   C84       1.0  0.13541  0.59088  0.07548  1.0000
  C   C85       1.0  0.12609  0.16759  0.06330  1.0000
  S   S10       1.0  0.12574  0.36240  0.02102  1.0000
  C   C86       1.0  0.17803  0.57027  0.00081  1.0000
  H   H62       1.0  0.34534  0.27918  0.94066  1.0000
  H   H63       1.0  0.21500  0.35665  0.01311  1.0000
  H   H64       1.0  0.37296  0.49496  0.00345  1.0000
  H   H65       1.0  0.36466  0.57419  0.04271  1.0000
  C   C87       1.0  0.35990  0.34745  0.94043  1.0000
  C   C88       1.0  0.14676  0.19798  0.99070  1.0000
  C   C89       1.0  0.46959  0.63243  0.00890  1.0000
  C   C90       1.0  0.52044  0.60851  0.94382  1.0000
  H   H66       1.0  0.36650  0.41661  0.93556  1.0000
  C   C91       1.0  0.41033  0.47837  0.06487  1.0000
  C   C92       1.0  0.33586  0.30918  0.92700  1.0000
  S   S11       1.0  0.35185  0.64904  0.00235  1.0000
  H   H67       1.0  0.49787  0.49418  0.04826  1.0000
  C   C93       1.0  0.13042  0.16310  0.01102  1.0000
  C   C94       1.0  0.26031  0.19833  0.02534  1.0000
  H   H68       1.0  0.25936  0.18373  0.05879  1.0000
  C   C95       1.0  0.20698  0.35771  0.05207  1.0000
  H   H69       1.0  0.04702  0.62708  0.03873  1.0000
  H   H70       1.0  0.08728  0.26027  0.94342  1.0000
  C   C96       1.0  0.18687  0.29604  0.89947  1.0000
  C   C97       1.0  0.43619  0.24878  0.94442  1.0000
  C   C98       1.0  0.38313  0.55243  0.06175  1.0000
  C   C99       1.0  0.45735  0.46827  0.92739  1.0000
  C   C100      1.0  0.43132  0.24056  0.89192  1.0000
  H   H71       1.0  0.50116  0.41295  0.01740  1.0000
  H   H72       1.0  0.42431  0.22537  0.96634  1.0000
  H   H73       1.0  0.16607  0.27165  0.09934  1.0000
  H   H74       1.0  0.26685  0.26539  0.06690  1.0000
  C   C101      1.0  0.26613  0.45951  0.06818  1.0000
  H   H75       1.0  0.44036  0.48206  0.96111  1.0000
  C   C102      1.0  0.18748  0.64183  0.05574  1.0000
  C   C103      1.0  0.06038  0.45129  0.89799  1.0000
  H   H76       1.0  0.05075  0.24311  0.01740  1.0000
  H   H77       1.0  0.18676  0.54636  0.96766  1.0000
  C   C104      1.0  0.22612  0.47066  0.08647  1.0000
  H   H78       1.0  0.48005  0.61079  0.07901  1.0000
  C   C105      1.0  0.06625  0.61474  0.91259  1.0000
  C   C106      1.0  0.19855  0.61118  0.01258  1.0000
  H   H79       1.0  0.47746  0.22863  0.06288  1.0000
  C   C107      1.0  0.14696  0.55980  0.03270  1.0000
  S   S12       1.0  0.35185  0.33002  0.07727  1.0000
  H   H80       1.0  0.27020  0.44195  0.02975  1.0000
  C   C108      1.0  0.38783  0.50743  0.03958  1.0000
  C   C109      1.0  0.23860  0.35876  0.08892  1.0000
  C   C110      1.0  0.47251  0.19313  0.05856  1.0000
  H   H81       1.0  0.19897  0.46189  0.06221  1.0000
  Fe  Fe6       1.0  0.07935  0.41317  0.05868  1.0000
  C   C111      1.0  0.15528  0.63211  0.08629  1.0000
  H   H82       1.0  0.15498  0.52359  0.87861  1.0000
  H   H83       1.0  0.33167  0.46033  0.08602  1.0000
  C   C112      1.0  0.50682  0.16325  0.05304  1.0000
  C   C113      1.0  0.43192  0.17679  0.05849  1.0000
  C   C114      1.0  0.52768  0.47821  0.03752  1.0000
  H   H84       1.0  0.25821  0.16772  0.89800  1.0000
  H   H85       1.0  0.53119  0.60779  0.90576  1.0000
  C   C115      1.0  0.25785  0.17105  0.97769  1.0000
  H   H86       1.0  0.53826  0.17575  0.05325  1.0000
  C   C116      1.0  0.42792  0.49429  0.11260  1.0000
  C   C117      1.0  0.18386  0.23307  0.19036  1.0000
  C   C118      1.0  0.26162  0.26683  0.22774  1.0000
  H   H87       1.0  0.50530  0.43135  0.34719  1.0000
  H   H88       1.0  0.04251  0.40721  0.31981  1.0000
  C   C119      1.0  0.31278  0.18897  0.30390  1.0000
  C   C120      1.0  0.41573  0.18488  0.23298  1.0000
  C   C121      1.0  0.22085  0.49211  0.13653  1.0000
  H   H89       1.0  0.32344  0.50176  0.17286  1.0000
  S   S13       1.0  0.26732  0.36359  0.18654  1.0000
  C   C122      1.0  0.22495  0.28361  0.25208  1.0000
  C   C123      1.0  0.51209  0.59047  0.23181  1.0000
  C   C124      1.0  0.32955  0.46949  0.34802  1.0000
  H   H90       1.0  0.45216  0.28891  0.28055  1.0000
  C   C125      1.0  0.50045  0.40999  0.26649  1.0000
  C   C126      1.0  0.18207  0.50280  0.28345  1.0000
  P   P4        1.0  0.13413  0.21281  0.16337  1.0000
  H   H91       1.0  0.04169  0.63481  0.21812  1.0000
  H   H92       1.0  0.08879  0.28432  0.12184  1.0000
  C   C127      1.0  0.22096  0.21605  0.16657  1.0000
  C   C128      1.0  0.12796  0.64459  0.33280  1.0000
  H   H93       1.0  0.50024  0.59743  0.26974  1.0000
  H   H94       1.0  0.50332  0.26631  0.21231  1.0000
  C   C129      1.0  0.47673  0.20131  0.18772  1.0000
  S   S14       1.0  0.09648  0.57969  0.11640  1.0000
  P   P5        1.0  0.24923  0.53202  0.23374  1.0000
  H   H95       1.0  0.09958  0.57185  0.22232  1.0000
  C   C130      1.0  0.30245  0.46658  0.26295  1.0000
  H   H96       1.0  0.20432  0.48260  0.30026  1.0000
  H   H97       1.0  0.28808  0.22089  0.16549  1.0000
  H   H98       1.0  0.50518  0.39339  0.18543  1.0000
  C   C131      1.0  0.53343  0.53713  0.15809  1.0000
  C   C132      1.0  0.04435  0.31237  0.17748  1.0000
  H   H99       1.0  0.09369  0.38404  0.25287  1.0000
  C   C133      1.0  0.26383  0.59011  0.24232  1.0000
  S   S15       1.0  0.45656  0.37716  0.27018  1.0000
  C   C134      1.0  0.07669  0.28281  0.15864  1.0000
  Fe  Fe7       1.0  0.33268  0.35387  0.15715  1.0000
  C   C135      1.0  0.07614  0.25168  0.23506  1.0000
  C   C136      1.0  0.47919  0.24346  0.21844  1.0000
  C   C137      1.0  0.24945  0.62045  0.28454  1.0000
  H   H100      1.0  0.18930  0.49890  0.14940  1.0000
  S   S16       1.0  0.39836  0.62562  0.13513  1.0000
  H   H101      1.0  0.21988  0.18999  0.13329  1.0000
  C   C138      1.0  0.18645  0.36470  0.15353  1.0000
  C   C139      1.0  0.22840  0.36217  0.13970  1.0000
  H   H102      1.0  0.26468  0.55771  0.34337  1.0000
  C   C140      1.0  0.45021  0.25629  0.25667  1.0000
  H   H103      1.0  0.43501  0.65383  0.33585  1.0000
  C   C141      1.0  0.42409  0.53974  0.13405  1.0000
  H   H104      1.0  0.44526  0.47185  0.13235  1.0000
  S   S17       1.0  0.08635  0.45615  0.13549  1.0000
  C   C142      1.0  0.29289  0.20554  0.34951  1.0000
  S   S18       1.0  0.44918  0.33085  0.11845  1.0000
  C   C143      1.0  0.14580  0.38251  0.30450  1.0000
  S   S19       1.0  0.38063  0.40744  0.17152  1.0000
  Fe  Fe8       1.0  0.42295  0.35591  0.19577  1.0000
  C   C144      1.0  0.29178  0.60501  0.20966  1.0000
  C   C145      1.0  0.11027  0.52603  0.27323  1.0000
  C   C146      1.0  0.41749  0.53045  0.26963  1.0000
  H   H105      1.0  0.17400  0.57600  0.20201  1.0000
  H   H106      1.0  0.16843  0.37289  0.27504  1.0000
  H   H107      1.0  0.14837  0.62791  0.30379  1.0000
  H   H108      1.0  0.08828  0.22852  0.25793  1.0000
  C   C147      1.0  0.28242  0.52756  0.32960  1.0000
  C   C148      1.0  0.10376  0.38878  0.29219  1.0000
  H   H109      1.0  0.15816  0.28130  0.25210  1.0000
  H   H110      1.0  0.49923  0.19131  0.15814  1.0000
  C   C149      1.0  0.51851  0.41191  0.22000  1.0000
  C   C150      1.0  0.13991  0.50129  0.29535  1.0000
  C   C151      1.0  0.07479  0.40238  0.33047  1.0000
  H   H111      1.0  0.26223  0.22112  0.34933  1.0000
  H   H112      1.0  0.05619  0.16498  0.16803  1.0000
  C   C152      1.0  0.37229  0.16598  0.35025  1.0000
  C   C153      1.0  0.32717  0.44821  0.29748  1.0000
  H   H113      1.0  0.29149  0.28113  0.24095  1.0000
  C   C154      1.0  0.41829  0.22746  0.26361  1.0000
  C   C155      1.0  0.15895  0.38944  0.35500  1.0000
  S   S20       1.0  0.37319  0.30396  0.18688  1.0000
  H   H114      1.0  0.36807  0.55892  0.23008  1.0000
  H   H115      1.0  0.43839  0.55261  0.17025  1.0000
  C   C156      1.0  0.51835  0.43356  0.31108  1.0000
  H   H116      1.0  0.51979  0.22835  0.33052  1.0000
  H   H117      1.0  0.17839  0.36746  0.19254  1.0000
  C   C157      1.0  0.29590  0.49316  0.14939  1.0000
  H   H118      1.0  0.30025  0.44874  0.22451  1.0000
  H   H119      1.0  0.42911  0.50887  0.23597  1.0000
  C   C158      1.0  0.16493  0.55525  0.22846  1.0000
  C   C159      1.0  0.30595  0.64901  0.22020  1.0000
  H   H120      1.0  0.46501  0.50970  0.31753  1.0000
  C   C160      1.0  0.25574  0.50370  0.16868  1.0000
  H   H121      1.0  0.29727  0.19225  0.26874  1.0000
  H   H122      1.0  0.30323  0.58298  0.17638  1.0000
  C   C161      1.0  0.12311  0.15941  0.18007  1.0000
  C   C162      1.0  0.25965  0.23305  0.18501  1.0000
  C   C163      1.0  0.51906  0.54640  0.20770  1.0000
  C   C164      1.0  0.15483  0.36425  0.11692  1.0000
  C   C165      1.0  0.52026  0.62546  0.20682  1.0000
  C   C166      1.0  0.28059  0.50702  0.27831  1.0000
  C   C167      1.0  0.12267  0.55270  0.23951  1.0000
  C   C168      1.0  0.38282  0.55826  0.26644  1.0000
  C   C169      1.0  0.09278  0.25204  0.18723  1.0000
  C   C170      1.0  0.35228  0.16818  0.30396  1.0000
  H   H123      1.0  0.12246  0.36626  0.12792  1.0000
  H   H124      1.0  0.39593  0.23869  0.29296  1.0000
  H   H125      1.0  0.22707  0.61031  0.30957  1.0000
  H   H126      1.0  0.22670  0.31078  0.28421  1.0000
  C   C171      1.0  0.43741  0.53052  0.31618  1.0000
  H   H127      1.0  0.13019  0.48098  0.32172  1.0000
  C   C172      1.0  0.19495  0.53013  0.25019  1.0000
  C   C173      1.0  0.53440  0.61642  0.15726  1.0000
  C   C174      1.0  0.18613  0.26694  0.23345  1.0000
  H   H128      1.0  0.49723  0.60457  0.35703  1.0000
  H   H129      1.0  0.51310  0.51939  0.22743  1.0000
  H   H130      1.0  0.07775  0.52456  0.28222  1.0000
  H   H131      1.0  0.34437  0.41730  0.28483  1.0000
  C   C175      1.0  0.36747  0.58535  0.31009  1.0000
  H   H132      1.0  0.34063  0.60699  0.30770  1.0000
  C   C176      1.0  0.44536  0.17194  0.19505  1.0000
  H   H133      1.0  0.40200  0.65817  0.25252  1.0000
  C   C177      1.0  0.04373  0.28125  0.25370  1.0000
  H   H134      1.0  0.14566  0.65667  0.11832  1.0000
  C   C178      1.0  0.38661  0.58459  0.35701  1.0000
  H   H135      1.0  0.17813  0.65786  0.23975  1.0000
  H   H136      1.0  0.37342  0.16081  0.14090  1.0000
  C   C179      1.0  0.42192  0.55722  0.36041  1.0000
  C   C180      1.0  0.05440  0.34535  0.45845  1.0000
  H   H137      1.0  0.21706  0.36852  0.56399  1.0000
  C   C181      1.0  0.43050  0.42587  0.42715  1.0000
  H   H138      1.0  0.43487  0.46737  0.55321  1.0000
  Fe  Fe9       1.0  0.17184  0.65187  0.58549  1.0000
  C   C182      1.0  0.06897  0.40702  0.52699  1.0000
  P   P6        1.0  0.30943  0.37751  0.56991  1.0000
  C   C183      1.0  0.07173  0.33111  0.54201  1.0000
  C   C184      1.0  0.20305  0.46231  0.51478  1.0000
  C   C185      1.0  0.07549  0.37696  0.55983  1.0000
  C   C186      1.0  0.22551  0.39793  0.54975  1.0000
  H   H139      1.0  0.47250  0.18290  0.59907  1.0000
  H   H140      1.0  0.37408  0.60600  0.39010  1.0000
  H   H141      1.0  0.12675  0.57273  0.45355  1.0000
  C   C187      1.0  0.43037  0.42646  0.47910  1.0000
  S   S21       1.0  0.17942  0.60880  0.39639  1.0000
  Fe  Fe10      1.0  0.19830  0.16492  0.61187  1.0000
  H   H142      1.0  0.43493  0.46405  0.36876  1.0000
  H   H143      1.0  0.37281  0.58022  0.47955  1.0000
  H   H144      1.0  0.39390  0.27505  0.40172  1.0000
  C   C188      1.0  0.24464  0.47487  0.51298  1.0000
  H   H145      1.0  0.36719  0.17850  0.43095  1.0000
  H   H146      1.0  0.46344  0.23967  0.39269  1.0000
  C   C189      1.0  0.31239  0.20158  0.39535  1.0000
  H   H147      1.0  0.14085  0.40867  0.43233  1.0000
  C   C190      1.0  0.51885  0.58582  0.37652  1.0000
  H   H148      1.0  0.38669  0.52634  0.59177  1.0000
  H   H149      1.0  0.52220  0.51760  0.46352  1.0000
  C   C191      1.0  0.46074  0.64202  0.47991  1.0000
  C   C192      1.0  0.43776  0.50665  0.44291  1.0000
  C   C193      1.0  0.08796  0.41008  0.38140  1.0000
  H   H150      1.0  0.30831  0.52535  0.40348  1.0000
  C   C194      1.0  0.26750  0.41057  0.54849  1.0000
  C   C195      1.0  0.33644  0.35951  0.46968  1.0000
  H   H151      1.0  0.07631  0.30787  0.56765  1.0000
  C   C196      1.0  0.43414  0.46574  0.40911  1.0000
  C   C197      1.0  0.13578  0.64068  0.38277  1.0000
  C   C198      1.0  0.43775  0.50683  0.49502  1.0000
  H   H152      1.0  0.42888  0.39447  0.40064  1.0000
  H   H153      1.0  0.35791  0.34582  0.39291  1.0000
  H   H154      1.0  0.35181  0.64713  0.54095  1.0000
  C   C199      1.0  0.38220  0.64547  0.52385  1.0000
  C   C200      1.0  0.39422  0.60776  0.48884  1.0000
  H   H155      1.0  0.42208  0.17613  0.52715  1.0000
  C   C201      1.0  0.53270  0.53727  0.43677  1.0000
  H   H156      1.0  0.49141  0.64179  0.46380  1.0000
  C   C202      1.0  0.26736  0.30148  0.58374  1.0000
  H   H157      1.0  0.40004  0.36782  0.58817  1.0000
  C   C203      1.0  0.35213  0.18195  0.39558  1.0000
  C   C204      1.0  0.04290  0.55320  0.52044  1.0000
  H   H158      1.0  0.32135  0.39045  0.46493  1.0000
  H   H159      1.0  0.29687  0.21366  0.43085  1.0000
  H   H160      1.0  0.26621  0.29220  0.54293  1.0000
  C   C205      1.0  0.50405  0.55952  0.40980  1.0000
  C   C206      1.0  0.33524  0.34463  0.51596  1.0000
  S   S22       1.0  0.19110  0.58737  0.53634  1.0000
  C   C207      1.0  0.43353  0.60585  0.46619  1.0000
  C   C208      1.0  0.06358  0.48605  0.46183  1.0000
  H   H161      1.0  0.25211  0.50521  0.49967  1.0000
  H   H162      1.0  0.07238  0.44226  0.54181  1.0000
  H   H163      1.0  0.11620  0.49448  0.41486  1.0000
  H   H164      1.0  0.23173  0.24470  0.59400  1.0000
  H   H165      1.0  0.08101  0.61090  0.52150  1.0000
  Fe  Fe11      1.0  0.20027  0.62847  0.47693  1.0000
  C   C209      1.0  0.43376  0.46696  0.51292  1.0000
  C   C210      1.0  0.06107  0.31532  0.49137  1.0000
  H   H166      1.0  0.35654  0.29285  0.55621  1.0000
  C   C211      1.0  0.35640  0.30484  0.52078  1.0000
  C   C212      1.0  0.52778  0.23326  0.37038  1.0000
  C   C213      1.0  0.44032  0.19337  0.60574  1.0000
  P   P7        1.0  0.44875  0.55734  0.42012  1.0000
  C   C214      1.0  0.35743  0.33435  0.42863  1.0000
  S   S23       1.0  0.26746  0.64143  0.49757  1.0000
  S   S24       1.0  0.30321  0.55769  0.58273  1.0000
  H   H167      1.0  0.42862  0.39559  0.49333  1.0000
  H   H168      1.0  0.16122  0.41439  0.53520  1.0000
  P   P8        1.0  0.05221  0.42935  0.43213  1.0000
  C   C215      1.0  0.10182  0.55463  0.46639  1.0000
  C   C216      1.0  0.07567  0.57631  0.50435  1.0000
  H   H169      1.0  0.48037  0.25286  0.48479  1.0000
  C   C217      1.0  0.09585  0.50981  0.44488  1.0000
  H   H170      1.0  0.30867  0.46059  0.52976  1.0000
  C   C218      1.0  0.41177  0.18972  0.56496  1.0000
  C   C219      1.0  0.50514  0.24782  0.45733  1.0000
  H   H171      1.0  0.05778  0.27975  0.47782  1.0000
  C   C220      1.0  0.19350  0.42384  0.53317  1.0000
  H   H172      1.0  0.34861  0.45520  0.37472  1.0000
  Fe  Fe12      1.0  0.25623  0.60679  0.56225  1.0000
  C   C221      1.0  0.05827  0.39146  0.47604  1.0000
  H   H173      1.0  0.17826  0.48286  0.50274  1.0000
  C   C222      1.0  0.37798  0.29460  0.43368  1.0000
  H   H174      1.0  0.39353  0.24921  0.48407  1.0000
  C   C223      1.0  0.13013  0.40294  0.39332  1.0000
  H   H175      1.0  0.44192  0.53758  0.52203  1.0000
  C   C224      1.0  0.37768  0.28003  0.47984  1.0000
  C   C225      1.0  0.27670  0.44944  0.53017  1.0000
  S   S25       1.0  0.33210  0.18478  0.52545  1.0000
  C   C226      1.0  0.49565  0.24023  0.40560  1.0000
  C   C227      1.0  0.36934  0.19937  0.57399  1.0000
  H   H176      1.0  0.04645  0.33267  0.41923  1.0000
  S   S26       1.0  0.52401  0.56780  0.57469  1.0000
  H   H177      1.0  0.08271  0.38947  0.59937  1.0000
  H   H178      1.0  0.11377  0.65843  0.45910  1.0000
  S   S27       1.0  0.52043  0.44022  0.58162  1.0000
  C   C228      1.0  0.30690  0.50897  0.36417  1.0000
  C   C229      1.0  0.28747  0.34057  0.60751  1.0000
  C   C230      1.0  0.24779  0.27441  0.61251  1.0000
  H   H179      1.0  0.10619  0.49801  0.61360  1.0000
  C   C231      1.0  0.34726  0.41304  0.60780  1.0000
  C   C232      1.0  0.38531  0.56078  0.61070  1.0000
  C   C233      1.0  0.34750  0.58441  0.61255  1.0000
  C   C234      1.0  0.38925  0.39917  0.61010  1.0000
  H   H180      1.0  0.19163  0.38499  0.36439  1.0000
  H   H181      1.0  0.34585  0.75989  0.79904  1.0000
  C   C235      1.0  0.18037  0.98866  0.67386  1.0000
  H   H182      1.0  0.50131  0.14789  0.77322  1.0000
  C   C236      1.0  0.11557  0.14968  0.68312  1.0000
  C   C237      1.0  0.53017  0.84874  0.76410  1.0000
  Fe  Fe13      1.0  0.25733  0.08769  0.62656  1.0000
  S   S28       1.0  0.23629  0.66866  0.61557  1.0000
  H   H183      1.0  0.21889  0.80513  0.65660  1.0000
  C   C238      1.0  0.52635  0.08163  0.77184  1.0000
  C   C239      1.0  0.34678  0.00633  0.62875  1.0000
  H   H184      1.0  0.18597  0.92097  0.82813  1.0000
  C   C240      1.0  0.18768  0.80895  0.64179  1.0000
  H   H185      1.0  0.09167  0.69693  0.73923  1.0000
  C   C241      1.0  0.44845  0.05176  0.73267  1.0000
  H   H186      1.0  0.20329  0.99624  0.64777  1.0000
  C   C242      1.0  0.12173  0.97085  0.74302  1.0000
  H   H187      1.0  0.06828  0.73991  0.82213  1.0000
  S   S29       1.0  0.11537  0.66076  0.63480  1.0000
  H   H188      1.0  0.41849  0.04022  0.71640  1.0000
  C   C243      1.0  0.36946  0.95833  0.70397  1.0000
  S   S30       1.0  0.27978  0.04763  0.68405  1.0000
  H   H189      1.0  0.38083  0.68520  0.67648  1.0000
  P   P9        1.0  0.20481  0.89931  0.64506  1.0000
  C   C244      1.0  0.43881  0.78130  0.75053  1.0000
  H   H190      1.0  0.16378  0.05772  0.69936  1.0000
  H   H191      1.0  0.40436  0.03158  0.80655  1.0000
  H   H192      1.0  0.22587  0.92897  0.75349  1.0000
  H   H193      1.0  0.04350  0.87929  0.83827  1.0000
  H   H194      1.0  0.14619  0.14343  0.69821  1.0000
  C   C245      1.0  0.38111  0.97622  0.62176  1.0000
  C   C246      1.0  0.11424  0.71370  0.76647  1.0000
  C   C247      1.0  0.24954  0.88991  0.68392  1.0000
  C   C248      1.0  0.10102  0.73770  0.81297  1.0000
  H   H195      1.0  0.13885  0.90199  0.71908  1.0000
  C   C249      1.0  0.45596  0.09752  0.74557  1.0000
  H   H196      1.0  0.17812  0.83975  0.82292  1.0000
  H   H197      1.0  0.44188  0.75354  0.71897  1.0000
  H   H198      1.0  0.34286  0.83362  0.67490  1.0000
  H   H199      1.0  0.11158  0.04191  0.76045  1.0000
  S   S31       1.0  0.43746  0.91793  0.65652  1.0000
  C   C250      1.0  0.18604  0.73232  0.79021  1.0000
  H   H200      1.0  0.26551  0.12727  0.74734  1.0000
  H   H201      1.0  0.42110  0.89306  0.77427  1.0000
  C   C251      1.0  0.04344  0.12796  0.66644  1.0000
  H   H202      1.0  0.51219  0.84805  0.68666  1.0000
  C   C252      1.0  0.19755  0.85831  0.85232  1.0000
  C   C253      1.0  0.43035  0.85307  0.83245  1.0000
  H   H203      1.0  0.47271  0.98564  0.73132  1.0000
  C   C254      1.0  0.52848  0.91398  0.72505  1.0000
  C   C255      1.0  0.51862  0.03552  0.76059  1.0000
  H   H204      1.0  0.16698  0.69360  0.71861  1.0000
  C   C256      1.0  0.15666  0.71184  0.75479  1.0000
  C   C257      1.0  0.33499  0.98744  0.71047  1.0000
  C   C258      1.0  0.38949  0.00961  0.82759  1.0000
  C   C259      1.0  0.47943  0.02081  0.74080  1.0000
  H   H205      1.0  0.27542  0.94902  0.61954  1.0000
  C   C260      1.0  0.17278  0.85033  0.63273  1.0000
  C   C261      1.0  0.32557  0.74702  0.82455  1.0000
  H   H206      1.0  0.44220  0.96469  0.82396  1.0000
  C   C262      1.0  0.41068  0.97163  0.83757  1.0000
  H   H207      1.0  0.34012  0.13167  0.72589  1.0000
  C   C263      1.0  0.31700  0.85396  0.69219  1.0000
  C   C264      1.0  0.32380  0.01199  0.67335  1.0000
  H   H208      1.0  0.53259  0.05426  0.86334  1.0000
  H   H209      1.0  0.08818  0.09211  0.70442  1.0000
  C   C265      1.0  0.09510  0.81531  0.74105  1.0000
  H   H210      1.0  0.21875  0.72927  0.78069  1.0000
  C   C266      1.0  0.08284  0.12074  0.68681  1.0000
  C   C267      1.0  0.52250  0.86830  0.72196  1.0000
  C   C268      1.0  0.08850  0.84714  0.78482  1.0000
  H   H211      1.0  0.52384  0.92827  0.69148  1.0000
  C   C269      1.0  0.06121  0.79249  0.71527  1.0000
  H   H212      1.0  0.27764  0.79647  0.82157  1.0000
  H   H213      1.0  0.37796  0.93998  0.73330  1.0000
  C   C270      1.0  0.34911  0.01968  0.84519  1.0000
  C   C271      1.0  0.39284  0.95277  0.65993  1.0000
  C   C272      1.0  0.17300  0.75522  0.83759  1.0000
  C   C273      1.0  0.25069  0.90745  0.73597  1.0000
  H   H214      1.0  0.17391  0.73953  0.63741  1.0000
  C   C274      1.0  0.14408  0.93579  0.71387  1.0000
  H   H215      1.0  0.28331  0.85112  0.62204  1.0000
  H   H216      1.0  0.43193  0.12149  0.73937  1.0000
  C   C275      1.0  0.49501  0.11243  0.76478  1.0000
  C   C276      1.0  0.28452  0.15398  0.76752  1.0000
  H   H217      1.0  0.43888  0.09006  0.64626  1.0000
  C   C277      1.0  0.43063  0.82441  0.74181  1.0000
  C   C278      1.0  0.16246  0.77140  0.63036  1.0000
  H   H218      1.0  0.31676  0.99074  0.74436  1.0000
  C   C279      1.0  0.28444  0.89757  0.76594  1.0000
  C   C280      1.0  0.31724  0.87031  0.74418  1.0000
  H   H219      1.0  0.11434  0.86476  0.80532  1.0000
  C   C281      1.0  0.28694  0.76771  0.83765  1.0000
  H   H220      1.0  0.44994  0.74054  0.80675  1.0000
  C   C282      1.0  0.42693  0.86019  0.78248  1.0000
  H   H221      1.0  0.09926  0.96406  0.77004  1.0000
  C   C283      1.0  0.28335  0.86396  0.66220  1.0000
  H   H222      1.0  0.12659  0.80737  0.72787  1.0000
  C   C284      1.0  0.43953  0.80967  0.84074  1.0000
  H   H223      1.0  0.03881  0.90064  0.72088  1.0000
  H   H224      1.0  0.28538  0.91126  0.80597  1.0000
  H   H225      1.0  0.42771  0.83035  0.70338  1.0000
  C   C285      1.0  0.05730  0.11265  0.82560  1.0000
  H   H226      1.0  0.34305  0.86243  0.76752  1.0000
  H   H227      1.0  0.07916  0.12040  0.79841  1.0000
  H   H228      1.0  0.06723  0.76631  0.68321  1.0000
  C   C286      1.0  0.04829  0.85570  0.80333  1.0000
  C   C287      1.0  0.17356  0.94448  0.67902  1.0000
  C   C288      1.0  0.12871  0.01477  0.73768  1.0000
  C   C289      1.0  0.33837  0.70996  0.84485  1.0000
  C   C290      1.0  0.15801  0.02366  0.70318  1.0000
  C   C291      1.0  0.44355  0.77402  0.79999  1.0000
  H   H229      1.0  0.36878  0.69460  0.83582  1.0000
  C   C292      1.0  0.20274  0.90407  0.85449  1.0000
  H   H230      1.0  0.33278  0.04911  0.83724  1.0000
  C   C293      1.0  0.32656  0.15655  0.75557  1.0000
  C   C294      1.0  0.13015  0.75907  0.84803  1.0000
  H   H231      1.0  0.52578  0.81323  0.76148  1.0000
  C   C295      1.0  0.49236  0.76182  0.95997  1.0000
  H   H232      1.0  0.49468  0.85227  0.91901  1.0000
  H   H233      1.0  0.07046  0.66983  0.87271  1.0000
  H   H234      1.0  0.33567  0.93414  0.90702  1.0000
  C   C296      1.0  0.26055  0.75114  0.87082  1.0000
  H   H235      1.0  0.05351  0.85494  0.08310  1.0000
  C   C297      1.0  0.24370  0.86119  0.92489  1.0000
  Fe  Fe14      1.0  0.36040  0.66418  0.08639  1.0000
  H   H236      1.0  0.23449  0.82362  0.08212  1.0000
  Fe  Fe15      1.0  0.10168  0.03646  0.02080  1.0000
  H   H237      1.0  0.25522  0.13516  0.97448  1.0000
  H   H238      1.0  0.45498  0.06580  0.04553  1.0000
  H   H239      1.0  0.12116  0.13233  0.98645  1.0000
  C   C298      1.0  0.18883  0.76544  0.94364  1.0000
  C   C299      1.0  0.47096  0.91809  0.91329  1.0000
  H   H240      1.0  0.32254  0.14014  0.07186  1.0000
  S   S32       1.0  0.48375  0.96519  0.05476  1.0000
  Fe  Fe16      1.0  0.52472  0.02366  0.08416  1.0000
  H   H241      1.0  0.05065  0.03361  0.10390  1.0000
  H   H242      1.0  0.32279  0.84043  0.03452  1.0000
  H   H243      1.0  0.36741  0.90634  0.05789  1.0000
  C   C300      1.0  0.21698  0.83687  0.88846  1.0000
  S   S33       1.0  0.16047  0.04677  0.06765  1.0000
  C   C301      1.0  0.17937  0.79934  0.98506  1.0000
  H   H244      1.0  0.27038  0.92538  0.95467  1.0000
  Fe  Fe17      1.0  0.15088  0.97759  0.08164  1.0000
  H   H245      1.0  0.49919  0.73507  0.92863  1.0000
  C   C302      1.0  0.47936  0.96401  0.92562  1.0000
  P   P10       1.0  0.42120  0.89824  0.88565  1.0000
  H   H246      1.0  0.23267  0.96376  0.89341  1.0000
  Fe  Fe18      1.0  0.28505  0.66961  0.01617  1.0000
  C   C303      1.0  0.22917  0.92817  0.89113  1.0000
  H   H247      1.0  0.36337  0.82363  0.88159  1.0000
  C   C304      1.0  0.07034  0.85440  0.95866  1.0000
  S   S34       1.0  0.29272  0.67956  0.10031  1.0000
  C   C305      1.0  0.45142  0.76861  0.97758  1.0000
  H   H248      1.0  0.18042  0.69555  0.91168  1.0000
  C   C306      1.0  0.51822  0.97870  0.94603  1.0000
  S   S35       1.0  0.25680  0.03530  0.98029  1.0000
  C   C307      1.0  0.50046  0.11736  0.04920  1.0000
  C   C308      1.0  0.15402  0.71210  0.98503  1.0000
  H   H249      1.0  0.15062  0.81531  0.05820  1.0000
  Fe  Fe19      1.0  0.30864  0.75006  0.09610  1.0000
  H   H250      1.0  0.11929  0.77775  0.88384  1.0000
  Fe  Fe20      1.0  0.53031  0.92491  0.09148  1.0000
  H   H251      1.0  0.32231  0.66446  0.89346  1.0000
  C   C309      1.0  0.17540  0.72189  0.94392  1.0000
  C   C310      1.0  0.35105  0.95425  0.88403  1.0000
  Fe  Fe21      1.0  0.36400  0.72127  0.00453  1.0000
  C   C311      1.0  0.30706  0.99019  0.10053  1.0000
  S   S36       1.0  0.13507  0.00812  0.94891  1.0000
  H   H252      1.0  0.25843  0.84536  0.95351  1.0000
  P   P11       1.0  0.21031  0.77788  0.88616  1.0000
  H   H253      1.0  0.44238  0.80292  0.87877  1.0000
  Fe  Fe22      1.0  0.12670  0.94148  0.97141  1.0000
  H   H254      1.0  0.18250  0.88567  0.08326  1.0000
  H   H255      1.0  0.50697  0.71768  0.04487  1.0000
  C   C312      1.0  0.50111  0.88756  0.92519  1.0000
  S   S37       1.0  0.18691  0.94403  0.01479  1.0000
  C   C313      1.0  0.05892  0.13555  0.87556  1.0000
  H   H256      1.0  0.18675  0.83379  0.98510  1.0000
  H   H257      1.0  0.10608  0.87706  0.02675  1.0000
  C   C314      1.0  0.39190  0.90212  0.98317  1.0000
  S   S38       1.0  0.37717  0.73505  0.08766  1.0000
  C   C315      1.0  0.36541  0.84162  0.91999  1.0000
  C   C316      1.0  0.36691  0.88844  0.01933  1.0000
  C   C317      1.0  0.32985  0.99188  0.87316  1.0000
  H   H258      1.0  0.32268  0.79790  0.94596  1.0000
  C   C318      1.0  0.34137  0.82744  0.95645  1.0000
  H   H259      1.0  0.34747  0.03811  0.98711  1.0000
  C   C319      1.0  0.42574  0.13073  0.05239  1.0000
  C   C320      1.0  0.29307  0.01960  0.02404  1.0000
  H   H260      1.0  0.20261  0.67383  0.06447  1.0000
  C   C321      1.0  0.34999  0.99497  0.09518  1.0000
  H   H261      1.0  0.39451  0.11768  0.05117  1.0000
  C   C322      1.0  0.04845  0.68105  0.99730  1.0000
  C   C323      1.0  0.52471  0.78874  0.98402  1.0000
  S   S39       1.0  0.10279  0.87971  0.92073  1.0000
  H   H262      1.0  0.29884  0.00023  0.88758  1.0000
  C   C324      1.0  0.39164  0.87846  0.93326  1.0000
  C   C325      1.0  0.34160  0.85117  0.00606  1.0000
  H   H263      1.0  0.39777  0.01594  0.04993  1.0000
  C   C326      1.0  0.15827  0.78920  0.02650  1.0000
  C   C327      1.0  0.25039  0.90650  0.92564  1.0000
  S   S40       1.0  0.29606  0.74163  0.01267  1.0000
  C   C328      1.0  0.33612  0.02465  0.01864  1.0000
  S   S41       1.0  0.08980  0.96949  0.03985  1.0000
  C   C329      1.0  0.07781  0.86097  0.01075  1.0000
  C   C330      1.0  0.47455  0.83206  0.03959  1.0000
  Fe  Fe23      1.0  0.19318  0.01276  0.99793  1.0000
  C   C331      1.0  0.04824  0.84804  0.04264  1.0000
  H   H264      1.0  0.41082  0.93148  0.99403  1.0000
  S   S42       1.0  0.41133  0.73403  0.94841  1.0000
  C   C332      1.0  0.27876  0.00260  0.06527  1.0000
  H   H265      1.0  0.05333  0.72780  0.94705  1.0000
  H   H266      1.0  0.25402  0.69950  0.91558  1.0000
  H   H267      1.0  0.12917  0.73789  0.05844  1.0000
  H   H268      1.0  0.25824  0.09986  0.08517  1.0000
  H   H269      1.0  0.11355  0.14009  0.07819  1.0000
  H   H270      1.0  0.04101  0.70656  0.02980  1.0000
  H   H271      1.0  0.45583  0.98890  0.92134  1.0000
  C   C333      1.0  0.39186  0.94392  0.86665  1.0000
  H   H272      1.0  0.24577  0.99981  0.07095  1.0000
  C   C334      1.0  0.36461  0.01229  0.05424  1.0000
  H   H273      1.0  0.41141  0.80834  0.03213  1.0000
  H   H274      1.0  0.14343  0.67845  0.98433  1.0000
  C   C335      1.0  0.05515  0.69295  0.95050  1.0000
  C   C336      1.0  0.44277  0.80323  0.01803  1.0000
  C   C337      1.0  0.27334  0.71325  0.89005  1.0000
  C   C338      1.0  0.14578  0.74561  0.02657  1.0000
  S   S43       1.0  0.04901  0.08713  0.02632  1.0000
  H   H275      1.0  0.46741  0.86028  0.06887  1.0000
  C   C339      1.0  0.45995  0.10122  0.04894  1.0000
  C   C340      1.0  0.52215  0.72609  0.08159  1.0000
  C   C341      1.0  0.51569  0.82401  0.02384  1.0000
  C   C342      1.0  0.31221  0.69302  0.87740  1.0000
  H   H276      1.0  0.52391  0.01410  0.95674  1.0000
  C   C343      1.0  0.31656  0.13203  0.10855  1.0000
  C   C344      1.0  0.06467  0.66003  0.90851  1.0000
  C   C345      1.0  0.40624  0.81592  0.23492  1.0000
  C   C346      1.0  0.22339  0.93881  0.35587  1.0000
  C   C347      1.0  0.07285  0.10288  0.19004  1.0000
  H   H277      1.0  0.44437  0.13910  0.17119  1.0000
  C   C348      1.0  0.29211  0.67859  0.26284  1.0000
  H   H278      1.0  0.32784  0.66024  0.19526  1.0000
  H   H279      1.0  0.46234  0.13276  0.28410  1.0000
  H   H280      1.0  0.20238  0.03282  0.29695  1.0000
  C   C349      1.0  0.17477  0.72827  0.27053  1.0000
  C   C350      1.0  0.27366  0.09749  0.16281  1.0000
  H   H281      1.0  0.08042  0.78867  0.29714  1.0000
  C   C351      1.0  0.37356  0.84429  0.22535  1.0000
  C   C352      1.0  0.08751  0.03447  0.34220  1.0000
  H   H282      1.0  0.46514  0.74820  0.11912  1.0000
  C   C353      1.0  0.49330  0.73652  0.30478  1.0000
  H   H283      1.0  0.08664  0.73530  0.14147  1.0000
  H   H284      1.0  0.27819  0.88579  0.22934  1.0000
  H   H285      1.0  0.17445  0.09895  0.35638  1.0000
  C   C354      1.0  0.41107  0.01647  0.25637  1.0000
  H   H286      1.0  0.16049  0.91502  0.34682  1.0000
  C   C355      1.0  0.52209  0.88467  0.33931  1.0000
  H   H287      1.0  0.39735  0.98361  0.24762  1.0000
  C   C356      1.0  0.44270  0.81251  0.20631  1.0000
  C   C357      1.0  0.08330  0.81451  0.27481  1.0000
  H   H288      1.0  0.40330  0.79781  0.26556  1.0000
  C   C358      1.0  0.37665  0.86879  0.18668  1.0000
  C   C359      1.0  0.50499  0.84532  0.31247  1.0000
  H   H289      1.0  0.47428  0.83670  0.14684  1.0000
  C   C360      1.0  0.45192  0.02122  0.27524  1.0000
  P   P12       1.0  0.37777  0.14523  0.24550  1.0000
  C   C361      1.0  0.12065  0.83804  0.27574  1.0000
  C   C362      1.0  0.44576  0.83754  0.16792  1.0000
  H   H290      1.0  0.41480  0.88431  0.12798  1.0000
  C   C363      1.0  0.21124  0.73935  0.18050  1.0000
  H   H291      1.0  0.42664  0.95674  0.34705  1.0000
  H   H292      1.0  0.25268  0.68716  0.32801  1.0000
  C   C364      1.0  0.15464  0.07073  0.34267  1.0000
  C   C365      1.0  0.12464  0.86893  0.24346  1.0000
  H   H293      1.0  0.17171  0.06614  0.20817  1.0000
  C   C366      1.0  0.40660  0.09614  0.25582  1.0000
  C   C367      1.0  0.44741  0.10060  0.27586  1.0000
  H   H294      1.0  0.42525  0.71431  0.20451  1.0000
  H   H295      1.0  0.48196  0.82841  0.33072  1.0000
  H   H296      1.0  0.04086  0.09163  0.18875  1.0000
  C   C368      1.0  0.22826  0.92045  0.19811  1.0000
  H   H297      1.0  0.08517  0.96813  0.29540  1.0000
  C   C369      1.0  0.41256  0.86506  0.15771  1.0000
  C   C370      1.0  0.25953  0.85057  0.15587  1.0000
  H   H298      1.0  0.34523  0.84645  0.24693  1.0000
  H   H299      1.0  0.28933  0.95264  0.36208  1.0000
  H   H300      1.0  0.08993  0.67498  0.28185  1.0000
  S   S44       1.0  0.16416  0.96400  0.15921  1.0000
  S   S45       1.0  0.29263  0.80511  0.16068  1.0000
  C   C371      1.0  0.14665  0.08876  0.20131  1.0000
  C   C372      1.0  0.09486  0.67130  0.32051  1.0000
  C   C373      1.0  0.33944  0.13153  0.19491  1.0000
  C   C374      1.0  0.10533  0.07477  0.20087  1.0000
  C   C375      1.0  0.44616  0.67737  0.31390  1.0000
  C   C376      1.0  0.05417  0.85364  0.21140  1.0000
  S   S46       1.0  0.38410  0.97722  0.13957  1.0000
  H   H301      1.0  0.18786  0.14065  0.19089  1.0000
  C   C377      1.0  0.20519  0.86234  0.31965  1.0000
  H   H302      1.0  0.24646  0.07820  0.16778  1.0000
  C   C378      1.0  0.20135  0.92068  0.15682  1.0000
  C   C379      1.0  0.09134  0.87708  0.21190  1.0000
  C   C380      1.0  0.38860  0.05365  0.24597  1.0000
  H   H303      1.0  0.35771  0.04851  0.22933  1.0000
  S   S47       1.0  0.49094  0.04212  0.15717  1.0000
  S   S48       1.0  0.49746  0.93673  0.16552  1.0000
  C   C381      1.0  0.47947  0.70506  0.33223  1.0000
  C   C382      1.0  0.34580  0.14327  0.14781  1.0000
  H   H304      1.0  0.04923  0.09939  0.29350  1.0000
  Fe  Fe24      1.0  0.45352  0.98077  0.13003  1.0000
  H   H305      1.0  0.51926  0.75745  0.31968  1.0000
  C   C383      1.0  0.28039  0.10941  0.11608  1.0000
  C   C384      1.0  0.05012  0.82249  0.24303  1.0000
  H   H306      1.0  0.47016  0.99226  0.28115  1.0000
  H   H307      1.0  0.22474  0.74377  0.14527  1.0000
  H   H308      1.0  0.15962  0.72349  0.30456  1.0000
  C   C385      1.0  0.18497  0.69104  0.23385  1.0000
  H   H309      1.0  0.41633  0.87590  0.32314  1.0000
  P   P13       1.0  0.48816  0.78359  0.22483  1.0000
  H   H310      1.0  0.29555  0.97669  0.13201  1.0000
  H   H311      1.0  0.22683  0.94720  0.23060  1.0000
  H   H312      1.0  0.15724  0.96815  0.26732  1.0000
  C   C386      1.0  0.44049  0.71224  0.24032  1.0000
  C   C387      1.0  0.20436  0.69651  0.18957  1.0000
  C   C388      1.0  0.14509  0.99685  0.29311  1.0000
  H   H313      1.0  0.32077  0.08716  0.31832  1.0000
  H   H314      1.0  0.29732  0.09874  0.23784  1.0000
  H   H315      1.0  0.15401  0.88534  0.24088  1.0000
  C   C389      1.0  0.24783  0.85110  0.31507  1.0000
  H   H316      1.0  0.09491  0.90058  0.18662  1.0000
  C   C390      1.0  0.47282  0.74146  0.25954  1.0000
  C   C391      1.0  0.51621  0.82931  0.26217  1.0000
  C   C392      1.0  0.08168  0.14466  0.17877  1.0000
  H   H317      1.0  0.35098  0.89019  0.17855  1.0000
  C   C393      1.0  0.42720  0.68035  0.26749  1.0000
  C   C394      1.0  0.15560  0.13094  0.19109  1.0000
  H   H318      1.0  0.50178  0.06702  0.29827  1.0000
  C   C395      1.0  0.25740  0.88567  0.19740  1.0000
  H   H319      1.0  0.20550  0.80971  0.20910  1.0000
  C   C396      1.0  0.20069  0.77667  0.21687  1.0000
  C   C397      1.0  0.30291  0.10868  0.20217  1.0000
  C   C398      1.0  0.17049  0.03352  0.30975  1.0000
  H   H320      1.0  0.09868  0.04160  0.20762  1.0000
  H   H321      1.0  0.30286  0.71275  0.27042  1.0000
  C   C399      1.0  0.18346  0.77132  0.26268  1.0000
  C   C400      1.0  0.06073  0.71869  0.15501  1.0000
  C   C401      1.0  0.46987  0.06332  0.28494  1.0000
  H   H322      1.0  0.25782  0.81718  0.29999  1.0000
  P   P14       1.0  0.16626  0.81966  0.30677  1.0000
  C   C402      1.0  0.27800  0.88366  0.33069  1.0000
  C   C403      1.0  0.49849  0.74375  0.12384  1.0000
  C   C404      1.0  0.10389  0.99713  0.30926  1.0000
  C   C405      1.0  0.19319  0.90622  0.34090  1.0000
  C   C406      1.0  0.51802  0.75688  0.17117  1.0000
  H   H323      1.0  0.21369  0.66753  0.16212  1.0000
  H   H324      1.0  0.31085  0.87485  0.32739  1.0000
  C   C407      1.0  0.06830  0.68373  0.18101  1.0000
  C   C408      1.0  0.26581  0.92758  0.35041  1.0000
  H   H325      1.0  0.10000  0.67289  0.18728  1.0000
  H   H326      1.0  0.53323  0.10486  0.23375  1.0000
  C   C409      1.0  0.06956  0.69496  0.35826  1.0000
  C   C410      1.0  0.11325  0.07135  0.35859  1.0000
  H   H327      1.0  0.38806  0.06671  0.35485  1.0000
  C   C411      1.0  0.32114  0.07216  0.35150  1.0000
  C   C412      1.0  0.40728  0.89302  0.36019  1.0000
  C   C413      1.0  0.26393  0.66424  0.29513  1.0000
  Fe  Fe25      1.0  0.53757  0.99706  0.18637  1.0000
  H   H328      1.0  0.40307  0.15105  0.35164  1.0000
  H   H329      1.0  0.51538  0.65958  0.22565  1.0000
  H   H330      1.0  0.25412  0.07372  0.35781  1.0000
  C   C414      1.0  0.23311  0.85089  0.11408  1.0000
  C   C415      1.0  0.20391  0.88605  0.11466  1.0000
  H   H331      1.0  0.20841  0.75792  0.45688  1.0000
  H   H332      1.0  0.08211  0.07148  0.45367  1.0000
  H   H333      1.0  0.17325  0.87616  0.53860  1.0000
  C   C416      1.0  0.35919  0.06065  0.37241  1.0000
  Fe  Fe26      1.0  0.48281  0.82339  0.49590  1.0000
  H   H334      1.0  0.49584  0.14810  0.42381  1.0000
  H   H335      1.0  0.46792  0.99682  0.51122  1.0000
  C   C417      1.0  0.25046  0.93202  0.49451  1.0000
  C   C418      1.0  0.32177  0.03086  0.43550  1.0000
  C   C419      1.0  0.12299  0.77448  0.60823  1.0000
  C   C420      1.0  0.11836  0.81648  0.44576  1.0000
  H   H336      1.0  0.25496  0.03615  0.43163  1.0000
  H   H337      1.0  0.10455  0.74472  0.59740  1.0000
  C   C421      1.0  0.36535  0.74040  0.45458  1.0000
  C   C422      1.0  0.11589  0.96286  0.55084  1.0000
  H   H338      1.0  0.10137  0.10062  0.38368  1.0000
  C   C423      1.0  0.10778  0.81571  0.59980  1.0000
  C   C424      1.0  0.37638  0.89215  0.44115  1.0000
  C   C425      1.0  0.08907  0.93677  0.51632  1.0000
  C   C426      1.0  0.39636  0.08994  0.58390  1.0000
  C   C427      1.0  0.25834  0.93702  0.58491  1.0000
  C   C428      1.0  0.35965  0.04055  0.41507  1.0000
  C   C429      1.0  0.28354  0.06411  0.37334  1.0000
  C   C430      1.0  0.45662  0.04073  0.58197  1.0000
  C   C431      1.0  0.31919  0.77046  0.52381  1.0000
  Fe  Fe27      1.0  0.47856  0.89629  0.58907  1.0000
  C   C432      1.0  0.18854  0.78297  0.39036  1.0000
  C   C433      1.0  0.32727  0.73948  0.47955  1.0000
  H   H339      1.0  0.49377  0.70310  0.36860  1.0000
  C   C434      1.0  0.52685  0.08572  0.39531  1.0000
  C   C435      1.0  0.07647  0.69043  0.40848  1.0000
  H   H340      1.0  0.04273  0.71996  0.53449  1.0000
  H   H341      1.0  0.07263  0.06743  0.54286  1.0000
  C   C436      1.0  0.40386  0.96125  0.42302  1.0000
  C   C437      1.0  0.10933  0.66282  0.42064  1.0000
  S   S49       1.0  0.17570  0.03610  0.46408  1.0000
  C   C438      1.0  0.38380  0.93785  0.45579  1.0000
  C   C439      1.0  0.45597  0.09213  0.42565  1.0000
  Fe  Fe28      1.0  0.53430  0.90732  0.50112  1.0000
  C   C440      1.0  0.15753  0.80659  0.36817  1.0000
  H   H342      1.0  0.38457  0.83372  0.38335  1.0000
  C   C441      1.0  0.52382  0.03927  0.38609  1.0000
  H   H343      1.0  0.32148  0.01363  0.46717  1.0000
  H   H344      1.0  0.07038  0.91895  0.43811  1.0000
  Fe  Fe29      1.0  0.27931  0.14950  0.55485  1.0000
  H   H345      1.0  0.07762  0.81854  0.58169  1.0000
  H   H346      1.0  0.19770  0.89459  0.45977  1.0000
  H   H347      1.0  0.39871  0.97144  0.58735  1.0000
  H   H348      1.0  0.37177  0.71620  0.42072  1.0000
  H   H349      1.0  0.48350  0.02878  0.60090  1.0000
  C   C442      1.0  0.39542  0.77207  0.47417  1.0000
  S   S50       1.0  0.44386  0.77273  0.44491  1.0000
  C   C443      1.0  0.09109  0.93881  0.46495  1.0000
  H   H350      1.0  0.48762  0.98314  0.39461  1.0000
  C   C444      1.0  0.28394  0.04321  0.41513  1.0000
  C   C445      1.0  0.43125  0.07480  0.60789  1.0000
  C   C446      1.0  0.11900  0.96808  0.44862  1.0000
  C   C447      1.0  0.40941  0.68112  0.53734  1.0000
  S   S51       1.0  0.21285  0.15644  0.52951  1.0000
  C   C448      1.0  0.21492  0.90618  0.49463  1.0000
  S   S52       1.0  0.27620  0.07487  0.54590  1.0000
  C   C449      1.0  0.22261  0.91127  0.58560  1.0000
  H   H351      1.0  0.11940  0.97086  0.40927  1.0000
  C   C450      1.0  0.34886  0.80281  0.54226  1.0000
  H   H352      1.0  0.21641  0.77068  0.36983  1.0000
  C   C451      1.0  0.48759  0.01904  0.39830  1.0000
  H   H353      1.0  0.36270  0.08752  0.51422  1.0000
  H   H354      1.0  0.29990  0.96711  0.53958  1.0000
  H   H355      1.0  0.09154  0.83004  0.46759  1.0000
  H   H356      1.0  0.36176  0.87403  0.46704  1.0000
  C   C452      1.0  0.38693  0.80333  0.51784  1.0000
  S   S53       1.0  0.46560  0.89598  0.50690  1.0000
  C   C453      1.0  0.49292  0.11219  0.41516  1.0000
  C   C454      1.0  0.18419  0.77577  0.43968  1.0000
  Fe  Fe30      1.0  0.24368  0.70243  0.54914  1.0000
  S   S54       1.0  0.18891  0.09191  0.60854  1.0000
  S   S55       1.0  0.17720  0.69191  0.52427  1.0000
  H   H357      1.0  0.34298  0.82713  0.57607  1.0000
  C   C455      1.0  0.12273  0.82395  0.39647  1.0000
  C   C456      1.0  0.20100  0.89584  0.53990  1.0000
  C   C457      1.0  0.38898  0.86949  0.39378  1.0000
  H   H358      1.0  0.30409  0.71521  0.46424  1.0000
  S   S56       1.0  0.27247  0.76968  0.55683  1.0000
  H   H359      1.0  0.39994  0.71026  0.56458  1.0000
  C   C458      1.0  0.45297  0.04536  0.41706  1.0000
  H   H360      1.0  0.11465  0.96141  0.59055  1.0000
  C   C459      1.0  0.27227  0.94725  0.53960  1.0000
  C   C460      1.0  0.38798  0.07283  0.53299  1.0000
  C   C461      1.0  0.05081  0.05089  0.51448  1.0000
  H   H361      1.0  0.05650  0.70797  0.43773  1.0000
  H   H362      1.0  0.09945  0.84390  0.38094  1.0000
  P   P15       1.0  0.40769  0.02107  0.43938  1.0000
  H   H363      1.0  0.16506  0.01050  0.56122  1.0000
  Fe  Fe31      1.0  0.20809  0.08270  0.52782  1.0000
  C   C462      1.0  0.44865  0.67940  0.51536  1.0000
  S   S57       1.0  0.49311  0.82284  0.57815  1.0000
  C   C463      1.0  0.05610  0.05299  0.46356  1.0000
  C   C464      1.0  0.41391  0.93885  0.37430  1.0000
  C   C465      1.0  0.44752  0.02248  0.53147  1.0000
  C   C466      1.0  0.14476  0.99542  0.48364  1.0000
  H   H364      1.0  0.12009  0.88528  0.60611  1.0000
  S   S58       1.0  0.05327  0.90252  0.53906  1.0000
  H   H365      1.0  0.40964  0.82816  0.53306  1.0000
  H   H366      1.0  0.37415  0.95470  0.49289  1.0000
  C   C467      1.0  0.41334  0.03865  0.50659  1.0000
  H   H367      1.0  0.43034  0.11299  0.44263  1.0000
  H   H368      1.0  0.14587  0.78683  0.50549  1.0000
  H   H369      1.0  0.26093  0.94041  0.45959  1.0000
  H   H370      1.0  0.46956  0.70736  0.52556  1.0000
  H   H371      1.0  0.33791  0.02477  0.59965  1.0000
  C   C468      1.0  0.14403  0.99152  0.53441  1.0000
  C   C469      1.0  0.14898  0.79228  0.46724  1.0000
  H   H372      1.0  0.37649  0.11597  0.60446  1.0000
  H   H373      1.0  0.21375  0.97249  0.37273  1.0000
  H   H374      1.0  0.51296  0.89685  0.37799  1.0000
  C   C470      1.0  0.13221  0.85360  0.61307  1.0000
  Fe  Fe32      1.0  0.86284  0.51134  0.65161  1.0000
  S   S59       1.0  0.57700  0.21826  0.74086  1.0000
  C   C471      1.0  0.81266  0.65306  0.83389  1.0000
  H   H375      1.0  0.81545  0.62866  0.70620  1.0000
  Fe  Fe33      1.0  0.59861  0.56491  0.69008  1.0000
  H   H376      1.0  0.93198  0.54307  0.73130  1.0000
  Fe  Fe34      1.0  0.86964  0.16682  0.63603  1.0000
  H   H377      1.0  0.03453  0.64381  0.66921  1.0000
  C   C472      1.0  0.99078  0.51572  0.75212  1.0000
  S   S60       1.0  0.91175  0.55513  0.62779  1.0000
  C   C473      1.0  0.92837  0.38096  0.73362  1.0000
  H   H378      1.0  0.85235  0.38178  0.62628  1.0000
  C   C474      1.0  0.78756  0.37825  0.73728  1.0000
  H   H379      1.0  0.55332  0.45717  0.68296  1.0000
  H   H380      1.0  0.76926  0.32511  0.67640  1.0000
  S   S61       1.0  0.55258  0.23281  0.62651  1.0000
  C   C475      1.0  0.73206  0.32672  0.74227  1.0000
  H   H381      1.0  0.59521  0.41055  0.73151  1.0000
  H   H382      1.0  0.67095  0.41946  0.80188  1.0000
  S   S62       1.0  0.83249  0.52530  0.72732  1.0000
  C   C476      1.0  0.58627  0.33726  0.62029  1.0000
  S   S63       1.0  0.90505  0.45113  0.64214  1.0000
  H   H383      1.0  0.53913  0.32754  0.75494  1.0000
  C   C477      1.0  0.96086  0.54962  0.75275  1.0000
  H   H384      1.0  0.93092  0.18999  0.74953  1.0000
  H   H385      1.0  0.79410  0.44125  0.65827  1.0000
  H   H386      1.0  0.99592  0.57365  0.66565  1.0000
  H   H387      1.0  0.70804  0.56446  0.82827  1.0000
  C   C478      1.0  0.82603  0.63448  0.78552  1.0000
  H   H388      1.0  0.61162  0.23898  0.85583  1.0000
  H   H389      1.0  0.81087  0.65218  0.62491  1.0000
  H   H390      1.0  0.71309  0.29876  0.72469  1.0000
  H   H391      1.0  0.66403  0.43305  0.68971  1.0000
  C   C479      1.0  0.77904  0.53918  0.73414  1.0000
  C   C480      1.0  0.03422  0.21137  0.76880  1.0000
  C   C481      1.0  0.58624  0.39753  0.69278  1.0000
  C   C482      1.0  0.74845  0.38488  0.81449  1.0000
  S   S64       1.0  0.85128  0.23580  0.67162  1.0000
  H   H392      1.0  0.68105  0.62627  0.64657  1.0000
  C   C483      1.0  0.00397  0.59966  0.81206  1.0000
  H   H393      1.0  0.92594  0.37885  0.69332  1.0000
  H   H394      1.0  0.78396  0.55047  0.81498  1.0000
  H   H395      1.0  0.79800  0.42917  0.80225  1.0000
  H   H396      1.0  0.68796  0.54437  0.66814  1.0000
  Fe  Fe35      1.0  0.60508  0.25095  0.68215  1.0000
  C   C484      1.0  0.74591  0.64408  0.64149  1.0000
  H   H397      1.0  0.61385  0.47372  0.79989  1.0000
  C   C485      1.0  0.97459  0.27779  0.62122  1.0000
  C   C486      1.0  0.98666  0.35691  0.62748  1.0000
  C   C487      1.0  0.59817  0.35428  0.67033  1.0000
  C   C488      1.0  0.56091  0.28571  0.85191  1.0000
  S   S65       1.0  0.01993  0.48149  0.62908  1.0000
  C   C489      1.0  0.84451  0.28885  0.80137  1.0000
  S   S66       1.0  0.62637  0.32119  0.70584  1.0000
  H   H398      1.0  0.97379  0.24799  0.63744  1.0000
  H   H399      1.0  0.81122  0.39059  0.71562  1.0000
  H   H400      1.0  0.98558  0.48318  0.72895  1.0000
  C   C490      1.0  0.89812  0.40577  0.76392  1.0000
  C   C491      1.0  0.95987  0.20792  0.75166  1.0000
  H   H401      1.0  0.90099  0.20726  0.84297  1.0000
  C   C492      1.0  0.84683  0.32210  0.84457  1.0000
  C   C493      1.0  0.76283  0.43107  0.64562  1.0000
  H   H402      1.0  0.83190  0.35419  0.84479  1.0000
  C   C494      1.0  0.76297  0.54892  0.78290  1.0000
  H   H403      1.0  0.85232  0.61125  0.78105  1.0000
  H   H404      1.0  0.93210  0.26342  0.72404  1.0000
  C   C495      1.0  0.99641  0.18900  0.76780  1.0000
  C   C496      1.0  0.71019  0.61861  0.62697  1.0000
  H   H405      1.0  0.76437  0.53190  0.65481  1.0000
  C   C497      1.0  0.80503  0.64481  0.74306  1.0000
  C   C498      1.0  0.03553  0.25246  0.75306  1.0000
  C   C499      1.0  0.60227  0.27391  0.86142  1.0000
  C   C500      1.0  0.72013  0.55715  0.79036  1.0000
  H   H406      1.0  0.91697  0.54462  0.84575  1.0000
  H   H407      1.0  0.87499  0.42591  0.83927  1.0000
  C   C501      1.0  0.72403  0.34854  0.79156  1.0000
  C   C502      1.0  0.02824  0.57230  0.65487  1.0000
  S   S67       1.0  0.63912  0.56507  0.75936  1.0000
  C   C503      1.0  0.72984  0.43887  0.67951  1.0000
  C   C504      1.0  0.76375  0.34159  0.71505  1.0000
  C   C505      1.0  0.54975  0.40666  0.61562  1.0000
  C   C506      1.0  0.77977  0.40019  0.78655  1.0000
  C   C507      1.0  0.96806  0.59192  0.78144  1.0000
  C   C508      1.0  0.96147  0.36071  0.80786  1.0000
  H   H408      1.0  0.68187  0.65340  0.75099  1.0000
  C   C509      1.0  0.85442  0.31706  0.64615  1.0000
  H   H409      1.0  0.73548  0.45464  0.71846  1.0000
  C   C510      1.0  0.69293  0.55561  0.74892  1.0000
  H   H410      1.0  0.85337  0.32953  0.68627  1.0000
  H   H411      1.0  0.98588  0.34362  0.82549  1.0000
  H   H412      1.0  0.82774  0.29499  0.76794  1.0000
  C   C511      1.0  0.85496  0.27122  0.62830  1.0000
  C   C512      1.0  0.75220  0.53929  0.69262  1.0000
  C   C513      1.0  0.63279  0.47524  0.83393  1.0000
  H   H413      1.0  0.86110  0.22120  0.76828  1.0000
  S   S68       1.0  0.60990  0.52291  0.61399  1.0000
  P   P16       1.0  0.99889  0.32480  0.71666  1.0000
  C   C514      1.0  0.70900  0.54663  0.70010  1.0000
  C   C515      1.0  0.68941  0.42672  0.66327  1.0000
  C   C516      1.0  0.56240  0.42383  0.66528  1.0000
  H   H414      1.0  0.00743  0.63195  0.83602  1.0000
  H   H415      1.0  0.87437  0.42445  0.74715  1.0000
  S   S69       1.0  0.58537  0.62710  0.65921  1.0000
  C   C517      1.0  0.86368  0.24737  0.80131  1.0000
  S   S70       1.0  0.64492  0.19178  0.65028  1.0000
  C   C518      1.0  0.96060  0.35869  0.75537  1.0000
  C   C519      1.0  0.96084  0.24929  0.73672  1.0000
  H   H416      1.0  0.94468  0.61813  0.78209  1.0000
  C   C520      1.0  0.89866  0.40681  0.81584  1.0000
  C   C521      1.0  0.98572  0.31917  0.65039  1.0000
  H   H417      1.0  0.69845  0.33722  0.81147  1.0000
  H   H418      1.0  0.99553  0.38914  0.64912  1.0000
  C   C522      1.0  0.99878  0.27159  0.73662  1.0000
  C   C523      1.0  0.93051  0.38458  0.83792  1.0000
  C   C524      1.0  0.54849  0.33076  0.85874  1.0000
  C   C525      1.0  0.66566  0.44462  0.83524  1.0000
  C   C526      1.0  0.88581  0.23937  0.84386  1.0000
  H   H419      1.0  0.03298  0.40573  0.78244  1.0000
  C   C527      1.0  0.03325  0.56513  0.81364  1.0000
  H   H420      1.0  0.00618  0.17086  0.62788  1.0000
  C   C528      1.0  0.02735  0.52377  0.78131  1.0000
  C   C529      1.0  0.03654  0.16492  0.64325  1.0000
  C   C530      1.0  0.78294  0.63293  0.61457  1.0000
  C   C531      1.0  0.86585  0.37291  0.06978  1.0000
  C   C532      1.0  0.86777  0.31377  0.88788  1.0000
  C   C533      1.0  0.80581  0.62762  0.09935  1.0000
  C   C534      1.0  0.61311  0.58513  0.07950  1.0000
  H   H421      1.0  0.85447  0.40086  0.09731  1.0000
  H   H422      1.0  0.91593  0.21105  0.07346  1.0000
  C   C535      1.0  0.70798  0.27028  0.10043  1.0000
  H   H423      1.0  0.02178  0.50495  0.88123  1.0000
  H   H424      1.0  0.73164  0.16583  0.03684  1.0000
  H   H425      1.0  0.80858  0.40342  0.94875  1.0000
  H   H426      1.0  0.97538  0.54505  0.01762  1.0000
  C   C536      1.0  0.73258  0.37175  0.91856  1.0000
  C   C537      1.0  0.56748  0.41095  0.00545  1.0000
  H   H427      1.0  0.72323  0.28492  0.00651  1.0000
  H   H428      1.0  0.57147  0.56800  0.96356  1.0000
  H   H429      1.0  0.64637  0.53958  0.95037  1.0000
  C   C538      1.0  0.95591  0.58540  0.96316  1.0000
  H   H430      1.0  0.63148  0.50016  0.03139  1.0000
  H   H431      1.0  0.92864  0.47417  0.87605  1.0000
  C   C539      1.0  0.73621  0.19852  0.05979  1.0000
  H   H432      1.0  0.82448  0.22466  0.93044  1.0000
  C   C540      1.0  0.56437  0.50318  0.04306  1.0000
  C   C541      1.0  0.89417  0.30079  0.99703  1.0000
  C   C542      1.0  0.62567  0.61975  0.05561  1.0000
  C   C543      1.0  0.54318  0.58613  0.97662  1.0000
  H   H433      1.0  0.97373  0.24046  0.01728  1.0000
  H   H434      1.0  0.84033  0.26637  0.01827  1.0000
  C   C544      1.0  0.76982  0.57370  0.03578  1.0000
  C   C545      1.0  0.93010  0.54494  0.88310  1.0000
  C   C546      1.0  0.80981  0.43582  0.93800  1.0000
  C   C547      1.0  0.90389  0.58954  0.07820  1.0000
  C   C548      1.0  0.76451  0.54597  0.07092  1.0000
  H   H435      1.0  0.75557  0.26269  0.92295  1.0000
  C   C549      1.0  0.61944  0.35196  0.88523  1.0000
  C   C550      1.0  0.88727  0.20385  0.94777  1.0000
  H   H436      1.0  0.87137  0.52747  0.05796  1.0000
  H   H437      1.0  0.81568  0.33027  0.08102  1.0000
  C   C551      1.0  0.66414  0.64018  0.06814  1.0000
  S   S71       1.0  0.01284  0.39690  0.06948  1.0000
  C   C552      1.0  0.74788  0.32782  0.90342  1.0000
  C   C553      1.0  0.84440  0.19733  0.93736  1.0000
  C   C554      1.0  0.77638  0.21233  0.07626  1.0000
  H   H438      1.0  0.90021  0.59794  0.04109  1.0000
  C   C555      1.0  0.65112  0.51262  0.91853  1.0000
  H   H439      1.0  0.94239  0.28897  0.08380  1.0000
  C   C556      1.0  0.69186  0.44798  0.87829  1.0000
  C   C557      1.0  0.69010  0.62653  0.10471  1.0000
  H   H440      1.0  0.56964  0.39895  0.88264  1.0000
  H   H441      1.0  0.94365  0.34549  0.98537  1.0000
  S   S72       1.0  0.95400  0.45390  0.97096  1.0000
  C   C558      1.0  0.03055  0.26557  0.90025  1.0000
  C   C559      1.0  0.71559  0.38432  0.96682  1.0000
  H   H442      1.0  0.81584  0.55362  0.90359  1.0000
  C   C560      1.0  0.84248  0.50807  0.94787  1.0000
  H   H443      1.0  0.56887  0.37512  0.99221  1.0000
  C   C561      1.0  0.93894  0.58536  0.91489  1.0000
  C   C562      1.0  0.90207  0.37690  0.04312  1.0000
  H   H444      1.0  0.70579  0.41840  0.98067  1.0000
  C   C563      1.0  0.62558  0.50927  0.87542  1.0000
  C   C564      1.0  0.85803  0.29688  0.02453  1.0000
  C   C565      1.0  0.68414  0.48225  0.91990  1.0000
  C   C566      1.0  0.95160  0.50461  0.94905  1.0000
  C   C567      1.0  0.91217  0.16761  0.95686  1.0000
  S   S73       1.0  0.73459  0.49772  0.05418  1.0000
  C   C568      1.0  0.60394  0.43588  0.00915  1.0000
  C   C569      1.0  0.78301  0.49121  0.89134  1.0000
  H   H445      1.0  0.66341  0.29767  0.88565  1.0000
  H   H446      1.0  0.96356  0.61660  0.98752  1.0000
  H   H447      1.0  0.69813  0.36255  0.03519  1.0000
  Fe  Fe36      1.0  0.99777  0.45796  0.03703  1.0000
  H   H448      1.0  0.91870  0.40818  0.04980  1.0000
  C   C570      1.0  0.70192  0.22752  0.07196  1.0000
  S   S74       1.0  0.81931  0.17688  0.06043  1.0000
  C   C571      1.0  0.96581  0.25531  0.94223  1.0000
  P   P17       1.0  0.73797  0.41261  0.87836  1.0000
  P   P18       1.0  0.56159  0.56200  0.06943  1.0000
  C   C572      1.0  0.84394  0.33298  0.06053  1.0000
  H   H449      1.0  0.94529  0.17105  0.96447  1.0000
  H   H450      1.0  0.70472  0.48677  0.95271  1.0000
  H   H451      1.0  0.93143  0.38649  0.87851  1.0000
  S   S75       1.0  0.92733  0.63513  0.89372  1.0000
  P   P19       1.0  0.90935  0.25763  0.94478  1.0000
  C   C573      1.0  0.84067  0.46552  0.95993  1.0000
  C   C574      1.0  0.98685  0.26413  0.89992  1.0000
  C   C575      1.0  0.79046  0.61438  0.04999  1.0000
  H   H452      1.0  0.60585  0.63158  0.02795  1.0000
  C   C576      1.0  0.91625  0.34107  0.00684  1.0000
  H   H453      1.0  0.67096  0.21727  0.05820  1.0000
  H   H454      1.0  0.86597  0.53137  0.96539  1.0000
  H   H455      1.0  0.86299  0.45578  0.98673  1.0000
  C   C577      1.0  0.63152  0.30702  0.87808  1.0000
  C   C578      1.0  0.98923  0.24749  0.98440  1.0000
  H   H456      1.0  0.93668  0.64919  0.10847  1.0000
  C   C579      1.0  0.93629  0.50487  0.90032  1.0000
  H   H457      1.0  0.63346  0.41932  0.99875  1.0000
  C   C580      1.0  0.96281  0.54488  0.98007  1.0000
  C   C581      1.0  0.60257  0.48185  0.02799  1.0000
  C   C582      1.0  0.03288  0.24880  0.98452  1.0000
  C   C583      1.0  0.81405  0.52070  0.91309  1.0000
  H   H458      1.0  0.79276  0.63607  0.02319  1.0000
  C   C584      1.0  0.74445  0.29668  0.93508  1.0000
  C   C585      1.0  0.78041  0.44871  0.90388  1.0000
  H   H459      1.0  0.03391  0.43174  0.90513  1.0000
  H   H460      1.0  0.64194  0.37760  0.89874  1.0000
  C   C586      1.0  0.72618  0.30917  0.98226  1.0000
  H   H461      1.0  0.86807  0.33984  0.92111  1.0000
  C   C587      1.0  0.88726  0.55007  0.08781  1.0000
  C   C588      1.0  0.88726  0.27208  0.88783  1.0000
  H   H462      1.0  0.75695  0.56433  0.99796  1.0000
  C   C589      1.0  0.71189  0.35296  0.99822  1.0000
  H   H463      1.0  0.96978  0.27066  0.86696  1.0000
  H   H464      1.0  0.60096  0.53373  0.87334  1.0000
  C   C590      1.0  0.57813  0.36392  0.87566  1.0000
  C   C591      1.0  0.78220  0.25438  0.10613  1.0000
  S   S76       1.0  0.66623  0.30854  0.10998  1.0000
  C   C592      1.0  0.91321  0.23398  0.10921  1.0000
  S   S77       1.0  0.99742  0.50464  0.11201  1.0000
  H   H465      1.0  0.76046  0.50176  0.86541  1.0000
  H   H466      1.0  0.82852  0.64391  0.86644  1.0000
  H   H467      1.0  0.76248  0.31720  0.86730  1.0000
  H   H468      1.0  0.75254  0.31529  0.14231  1.0000
  C   C593      1.0  0.93064  0.40576  0.26777  1.0000
  C   C594      1.0  0.55327  0.46012  0.30918  1.0000
  C   C595      1.0  0.59654  0.17669  0.19000  1.0000
  C   C596      1.0  0.59621  0.34538  0.29424  1.0000
  C   C597      1.0  0.73849  0.22215  0.21661  1.0000
  C   C598      1.0  0.78979  0.58670  0.33300  1.0000
  H   H469      1.0  0.93381  0.16976  0.20967  1.0000
  H   H470      1.0  0.00272  0.33453  0.23911  1.0000
  S   S78       1.0  0.75346  0.40208  0.12765  1.0000
  C   C599      1.0  0.61034  0.20150  0.23613  1.0000
  C   C600      1.0  0.96798  0.62266  0.26758  1.0000
  C   C601      1.0  0.80048  0.59974  0.13445  1.0000
  C   C602      1.0  0.80958  0.24440  0.24114  1.0000
  H   H471      1.0  0.53935  0.50273  0.14065  1.0000
  C   C603      1.0  0.54018  0.57215  0.13205  1.0000
  C   C604      1.0  0.92757  0.27769  0.11472  1.0000
  H   H472      1.0  0.85972  0.65034  0.22657  1.0000
  C   C605      1.0  0.97654  0.62324  0.35760  1.0000
  C   C606      1.0  0.88818  0.40403  0.27838  1.0000
  C   C607      1.0  0.92657  0.61007  0.16591  1.0000
  C   C608      1.0  0.99558  0.55719  0.29723  1.0000
  C   C609      1.0  0.92406  0.61899  0.11681  1.0000
  H   H473      1.0  0.81216  0.60957  0.17262  1.0000
  H   H474      1.0  0.56679  0.47842  0.34366  1.0000
  C   C610      1.0  0.83253  0.55199  0.26257  1.0000
  H   H475      1.0  0.56287  0.28428  0.28712  1.0000
  H   H476      1.0  0.82345  0.25754  0.34519  1.0000
  C   C611      1.0  0.64115  0.61418  0.25866  1.0000
  C   C612      1.0  0.79590  0.57435  0.28078  1.0000
  C   C613      1.0  0.69607  0.20379  0.34040  1.0000
  P   P20       1.0  0.86445  0.23154  0.24809  1.0000
  H   H477      1.0  0.63472  0.40348  0.30861  1.0000
  H   H478      1.0  0.60829  0.18357  0.15478  1.0000
  H   H479      1.0  0.79050  0.17674  0.21124  1.0000
  C   C614      1.0  0.71705  0.51875  0.34827  1.0000
  H   H480      1.0  0.54057  0.64397  0.13840  1.0000
  H   H481      1.0  0.69866  0.58024  0.15551  1.0000
  H   H482      1.0  0.03221  0.33632  0.15551  1.0000
  H   H483      1.0  0.03109  0.28087  0.29058  1.0000
  S   S79       1.0  0.80550  0.41915  0.26529  1.0000
  C   C615      1.0  0.96387  0.64446  0.31804  1.0000
  H   H484      1.0  0.00655  0.52284  0.28890  1.0000
  H   H485      1.0  0.65720  0.57490  0.31430  1.0000
  H   H486      1.0  0.63071  0.54430  0.13455  1.0000
  H   H487      1.0  0.01340  0.16922  0.28171  1.0000
  S   S80       1.0  0.72520  0.49580  0.20216  1.0000
  C   C616      1.0  0.98482  0.57911  0.25754  1.0000
  C   C617      1.0  0.88919  0.24945  0.19578  1.0000
  H   H488      1.0  0.63265  0.22767  0.23587  1.0000
  H   H489      1.0  0.94076  0.50008  0.34623  1.0000
  Fe  Fe37      1.0  0.71986  0.46539  0.11973  1.0000
  Fe  Fe38      1.0  0.01794  0.44450  0.14361  1.0000
  H   H490      1.0  0.71660  0.19621  0.20100  1.0000
  C   C618      1.0  0.78076  0.55856  0.11994  1.0000
  H   H491      1.0  0.63310  0.65769  0.20472  1.0000
  S   S81       1.0  0.65588  0.43825  0.12608  1.0000
  P   P21       1.0  0.73954  0.60711  0.35697  1.0000
  H   H492      1.0  0.74322  0.33427  0.25875  1.0000
  Fe  Fe39      1.0  0.68984  0.37700  0.14063  1.0000
  H   H493      1.0  0.84711  0.44948  0.18215  1.0000
  H   H494      1.0  0.81304  0.26427  0.12061  1.0000
  P   P22       1.0  0.95066  0.64977  0.21628  1.0000
  H   H495      1.0  0.90940  0.56348  0.21311  1.0000
  C   C619      1.0  0.70615  0.62153  0.30744  1.0000
  C   C620      1.0  0.57160  0.46187  0.26298  1.0000
  S   S82       1.0  0.61459  0.49649  0.26181  1.0000
  H   H496      1.0  0.69831  0.22150  0.30940  1.0000
  H   H497      1.0  0.89196  0.52484  0.28200  1.0000
  C   C621      1.0  0.94347  0.42394  0.22678  1.0000
  Fe  Fe40      1.0  0.66376  0.46365  0.20898  1.0000
  C   C622      1.0  0.66739  0.60107  0.29549  1.0000
  H   H498      1.0  0.92328  0.45238  0.16287  1.0000
  C   C623      1.0  0.91339  0.43905  0.19513  1.0000
  C   C624      1.0  0.67818  0.59146  0.12781  1.0000
  Fe  Fe41      1.0  0.75448  0.43017  0.21048  1.0000
  H   H499      1.0  0.81751  0.31558  0.26673  1.0000
  C   C625      1.0  0.59061  0.30206  0.30247  1.0000
  C   C626      1.0  0.63116  0.36948  0.31434  1.0000
  H   H500      1.0  0.56890  0.43809  0.18250  1.0000
  H   H501      1.0  0.98906  0.56182  0.21901  1.0000
  H   H502      1.0  0.69903  0.45018  0.33886  1.0000
  H   H503      1.0  0.93099  0.34202  0.16316  1.0000
  H   H504      1.0  0.72853  0.51457  0.31022  1.0000
  H   H505      1.0  0.95361  0.39337  0.29189  1.0000
  C   C627      1.0  0.88966  0.54071  0.13648  1.0000
  H   H506      1.0  0.87862  0.38999  0.31036  1.0000
  C   C628      1.0  0.02775  0.31145  0.22481  1.0000
  C   C629      1.0  0.90169  0.29386  0.19992  1.0000
  H   H507      1.0  0.61162  0.59748  0.24908  1.0000
  C   C630      1.0  0.85498  0.27022  0.34906  1.0000
  C   C631      1.0  0.59542  0.19243  0.28186  1.0000
  C   C632      1.0  0.90876  0.57080  0.17553  1.0000
  C   C633      1.0  0.87050  0.43718  0.20580  1.0000
  H   H508      1.0  0.77796  0.53679  0.14676  1.0000
  H   H509      1.0  0.82263  0.16667  0.29696  1.0000
  C   C634      1.0  0.65739  0.19951  0.36243  1.0000
  C   C635      1.0  0.71832  0.65519  0.28185  1.0000
  C   C636      1.0  0.85811  0.55539  0.34814  1.0000
  C   C637      1.0  0.86379  0.54271  0.29618  1.0000
  H   H510      1.0  0.69237  0.27538  0.22427  1.0000
  C   C638      1.0  0.74799  0.28331  0.11826  1.0000
  C   C639      1.0  0.88196  0.26325  0.30777  1.0000
  C   C640      1.0  0.78069  0.21111  0.22226  1.0000
  H   H511      1.0  0.83601  0.54076  0.22237  1.0000
  H   H512      1.0  0.57343  0.36022  0.27205  1.0000
  C   C641      1.0  0.65333  0.64798  0.23365  1.0000
  C   C642      1.0  0.87613  0.17393  0.25152  1.0000
  C   C643      1.0  0.55471  0.43705  0.21836  1.0000
  C   C644      1.0  0.72481  0.26652  0.23010  1.0000
  S   S83       1.0  0.69321  0.40055  0.22386  1.0000
  H   H513      1.0  0.87575  0.51064  0.14396  1.0000
  C   C645      1.0  0.92129  0.30774  0.15977  1.0000
  C   C646      1.0  0.85804  0.42009  0.24793  1.0000
  C   C647      1.0  0.79568  0.28897  0.25370  1.0000
  C   C648      1.0  0.92319  0.27846  0.31454  1.0000
  C   C649      1.0  0.75341  0.29980  0.24905  1.0000
  H   H514      1.0  0.77179  0.57996  0.25392  1.0000
  C   C650      1.0  0.62063  0.28188  0.32987  1.0000
  C   C651      1.0  0.89385  0.21998  0.14953  1.0000
  H   H515      1.0  0.94487  0.27211  0.28360  1.0000
  H   H516      1.0  0.89588  0.31785  0.23396  1.0000
  S   S84       1.0  0.99736  0.42661  0.21662  1.0000
  H   H517      1.0  0.88179  0.18641  0.14415  1.0000
  C   C652      1.0  0.96865  0.16788  0.34014  1.0000
  H   H518      1.0  0.76165  0.18764  0.34003  1.0000
  P   P23       1.0  0.61135  0.22637  0.34119  1.0000
  C   C653      1.0  0.99224  0.57959  0.34729  1.0000
  H   H519      1.0  0.57306  0.60918  0.34356  1.0000
  C   C654      1.0  0.65629  0.30591  0.34909  1.0000
  C   C655      1.0  0.66143  0.34964  0.34133  1.0000
  H   H520      1.0  0.95217  0.19775  0.33427  1.0000
  C   C656      1.0  0.73215  0.18468  0.35781  1.0000
  H   H521      1.0  0.78778  0.35500  0.35831  1.0000
  H   H522      1.0  0.71974  0.64269  0.11460  1.0000
  H   H523      1.0  0.68866  0.36840  0.35639  1.0000
  C   C657      1.0  0.93667  0.30184  0.36158  1.0000
  C   C658      1.0  0.63978  0.57093  0.11551  1.0000
  C   C659      1.0  0.72221  0.22280  0.52519  1.0000
  H   H524      1.0  0.96822  0.31425  0.36663  1.0000
  Fe  Fe42      1.0  0.88526  0.53145  0.54980  1.0000
  C   C660      1.0  0.92497  0.42130  0.41750  1.0000
  H   H525      1.0  0.64825  0.30505  0.54017  1.0000
  H   H526      1.0  0.02233  0.56988  0.54967  1.0000
  S   S85       1.0  0.92861  0.47274  0.53413  1.0000
  H   H527      1.0  0.91930  0.32768  0.43855  1.0000
  H   H528      1.0  0.81607  0.58346  0.40695  1.0000
  H   H529      1.0  0.55429  0.25491  0.51392  1.0000
  H   H530      1.0  0.74434  0.45748  0.51468  1.0000
  H   H531      1.0  0.97305  0.38809  0.45361  1.0000
  H   H532      1.0  0.74220  0.32735  0.41854  1.0000
  C   C661      1.0  0.56171  0.58909  0.36944  1.0000
  C   C662      1.0  0.56158  0.36327  0.59304  1.0000
  C   C663      1.0  0.71149  0.31256  0.51633  1.0000
  C   C664      1.0  0.65328  0.38540  0.49452  1.0000
  C   C665      1.0  0.96663  0.41120  0.42839  1.0000
  C   C666      1.0  0.72985  0.16017  0.39653  1.0000
  C   C667      1.0  0.94796  0.47549  0.36937  1.0000
  H   H533      1.0  0.97424  0.38330  0.55991  1.0000
  C   C668      1.0  0.86007  0.28402  0.54260  1.0000
  C   C669      1.0  0.96340  0.31251  0.54822  1.0000
  C   C670      1.0  0.56974  0.23288  0.38665  1.0000
  C   C671      1.0  0.85787  0.25442  0.57652  1.0000
  H   H534      1.0  0.78164  0.40296  0.57029  1.0000
  H   H535      1.0  0.55245  0.35022  0.55433  1.0000
  H   H536      1.0  0.67956  0.29156  0.37111  1.0000
  C   C672      1.0  0.59002  0.56692  0.39647  1.0000
  H   H537      1.0  0.00191  0.56346  0.37826  1.0000
  C   C673      1.0  0.89306  0.64957  0.46340  1.0000
  C   C674      1.0  0.75550  0.41023  0.59561  1.0000
  H   H538      1.0  0.88347  0.46301  0.38206  1.0000
  C   C675      1.0  0.70479  0.56459  0.43037  1.0000
  H   H539      1.0  0.65027  0.39682  0.60142  1.0000
  H   H540      1.0  0.72639  0.18827  0.52893  1.0000
  Fe  Fe43      1.0  0.87868  0.43528  0.56350  1.0000
  C   C676      1.0  0.77855  0.37693  0.39290  1.0000
  H   H541      1.0  0.74992  0.54334  0.52926  1.0000
  S   S86       1.0  0.87986  0.56726  0.48464  1.0000
  S   S87       1.0  0.83318  0.49256  0.57458  1.0000
  H   H542      1.0  0.70610  0.59619  0.45652  1.0000
  H   H543      1.0  0.84713  0.30025  0.42722  1.0000
  C   C677      1.0  0.90924  0.30944  0.40213  1.0000
  H   H544      1.0  0.88200  0.54813  0.37451  1.0000
  C   C678      1.0  0.85882  0.33016  0.56067  1.0000
  H   H545      1.0  0.01185  0.49075  0.51304  1.0000
  S   S88       1.0  0.86332  0.36750  0.51920  1.0000
  C   C679      1.0  0.96366  0.27453  0.57026  1.0000
  H   H546      1.0  0.59646  0.30426  0.60254  1.0000
  Fe  Fe44      1.0  0.95175  0.49293  0.61337  1.0000
  H   H547      1.0  0.95361  0.31009  0.50927  1.0000
  S   S89       1.0  0.62838  0.60827  0.52421  1.0000
  Fe  Fe45      1.0  0.59178  0.58388  0.58302  1.0000
  C   C680      1.0  0.97477  0.35371  0.57682  1.0000
  C   C681      1.0  0.74249  0.65771  0.40413  1.0000
  H   H548      1.0  0.67677  0.53077  0.48461  1.0000
  C   C682      1.0  0.68550  0.48645  0.41348  1.0000
  H   H549      1.0  0.89964  0.40553  0.43340  1.0000
  C   C683      1.0  0.71468  0.39912  0.57862  1.0000
  C   C684      1.0  0.65496  0.17293  0.39962  1.0000
  C   C685      1.0  0.78406  0.59711  0.57384  1.0000
  C   C686      1.0  0.03706  0.50825  0.49958  1.0000
  P   P24       1.0  0.70516  0.37117  0.51458  1.0000
  H   H550      1.0  0.56994  0.34040  0.42315  1.0000
  C   C687      1.0  0.74058  0.39006  0.47175  1.0000
  H   H551      1.0  0.67216  0.45800  0.42576  1.0000
  H   H552      1.0  0.79078  0.48393  0.45462  1.0000
  H   H553      1.0  0.86309  0.27107  0.50270  1.0000
  H   H554      1.0  0.61097  0.24412  0.45250  1.0000
  C   C688      1.0  0.78019  0.44970  0.44710  1.0000
  H   H555      1.0  0.96175  0.62860  0.58683  1.0000
  H   H556      1.0  0.89712  0.63254  0.42480  1.0000
  C   C689      1.0  0.54680  0.24907  0.47382  1.0000
  C   C690      1.0  0.75409  0.43448  0.48117  1.0000
  C   C691      1.0  0.67812  0.28877  0.53088  1.0000
  C   C692      1.0  0.70037  0.48201  0.36450  1.0000
  C   C693      1.0  0.99917  0.43345  0.40975  1.0000
  H   H557      1.0  0.62525  0.16620  0.41495  1.0000
  C   C694      1.0  0.57299  0.40833  0.46301  1.0000
  H   H558      1.0  0.81172  0.43306  0.37603  1.0000
  C   C695      1.0  0.63743  0.42901  0.50940  1.0000
  C   C696      1.0  0.71192  0.58205  0.58705  1.0000
  H   H559      1.0  0.64041  0.32000  0.45081  1.0000
  C   C697      1.0  0.59729  0.44021  0.49409  1.0000
  H   H560      1.0  0.58441  0.47327  0.50758  1.0000
  H   H561      1.0  0.65746  0.22564  0.54586  1.0000
  C   C698      1.0  0.98949  0.46512  0.37950  1.0000
  C   C699      1.0  0.57555  0.54121  0.43018  1.0000
  H   H562      1.0  0.62320  0.56999  0.39184  1.0000
  C   C700      1.0  0.91569  0.45417  0.38907  1.0000
  H   H563      1.0  0.78619  0.23025  0.50569  1.0000
  H   H564      1.0  0.95412  0.24271  0.54825  1.0000
  C   C701      1.0  0.74868  0.57148  0.56029  1.0000
  C   C702      1.0  0.86843  0.29386  0.39581  1.0000
  H   H565      1.0  0.00802  0.64690  0.52133  1.0000
  C   C703      1.0  0.68825  0.52749  0.44658  1.0000
  Fe  Fe46      1.0  0.58993  0.17068  0.59913  1.0000
  C   C704      1.0  0.71866  0.56053  0.38062  1.0000
  C   C705      1.0  0.75588  0.24650  0.51192  1.0000
  C   C706      1.0  0.57896  0.24235  0.43871  1.0000
  H   H566      1.0  0.59770  0.52500  0.45181  1.0000
  C   C707      1.0  0.62877  0.35364  0.46305  1.0000
  C   C708      1.0  0.58882  0.36509  0.44725  1.0000
  C   C709      1.0  0.68335  0.24390  0.53468  1.0000
  H   H567      1.0  0.81238  0.58873  0.55285  1.0000
  C   C710      1.0  0.88456  0.62522  0.50101  1.0000
  H   H568      1.0  0.68462  0.56180  0.57704  1.0000
  H   H569      1.0  0.65578  0.45422  0.53347  1.0000
  H   H570      1.0  0.87401  0.62859  0.58027  1.0000
  C   C711      1.0  0.75282  0.36144  0.42716  1.0000
  C   C712      1.0  0.79220  0.42100  0.40289  1.0000
  H   H571      1.0  0.54163  0.41705  0.45200  1.0000
  H   H572      1.0  0.97446  0.64098  0.39629  1.0000
  C   C713      1.0  0.75074  0.29142  0.50810  1.0000
  H   H573      1.0  0.77762  0.30981  0.49993  1.0000
  H   H574      1.0  0.85827  0.21878  0.56264  1.0000
  C   C714      1.0  0.87937  0.64737  0.55087  1.0000
  H   H575      1.0  0.01416  0.48286  0.36511  1.0000
  C   C715      1.0  0.85518  0.34651  0.61233  1.0000
  Fe  Fe47      1.0  0.54121  0.50990  0.61171  1.0000
  C   C716      1.0  0.68180  0.40657  0.61309  1.0000
  C   C717      1.0  0.82088  0.57629  0.36651  1.0000
  H   H576      1.0  0.02088  0.92561  0.64110  1.0000
  C   C718      1.0  0.59359  0.99006  0.71512  1.0000
  H   H577      1.0  0.00262  0.74027  0.78743  1.0000
  C   C719      1.0  0.94458  0.82342  0.68344  1.0000
  C   C720      1.0  0.94769  0.75074  0.74284  1.0000
  H   H578      1.0  0.80930  0.92517  0.64662  1.0000
  C   C721      1.0  0.72041  0.11294  0.70257  1.0000
  H   H579      1.0  0.88982  0.93323  0.66002  1.0000
  C   C722      1.0  0.76281  0.04595  0.67583  1.0000
  H   H580      1.0  0.78961  0.76659  0.75235  1.0000
  H   H581      1.0  0.66434  0.76736  0.81709  1.0000
  H   H582      1.0  0.84229  0.82613  0.63605  1.0000
  C   C723      1.0  0.80615  0.83245  0.84141  1.0000
  S   S90       1.0  0.55985  0.13227  0.65207  1.0000
  C   C724      1.0  0.82194  0.80187  0.64741  1.0000
  H   H583      1.0  0.65708  0.91233  0.64481  1.0000
  C   C725      1.0  0.78599  0.90783  0.66378  1.0000
  C   C726      1.0  0.83143  0.08287  0.79314  1.0000
  S   S91       1.0  0.00360  0.09049  0.67164  1.0000
  H   H584      1.0  0.78149  0.11246  0.67029  1.0000
  C   C727      1.0  0.72415  0.86522  0.70813  1.0000
  H   H585      1.0  0.54891  0.85965  0.84207  1.0000
  C   C728      1.0  0.77923  0.68345  0.84009  1.0000
  C   C729      1.0  0.86225  0.11161  0.81690  1.0000
  C   C730      1.0  0.61361  0.01317  0.63727  1.0000
  C   C731      1.0  0.77214  0.73632  0.67600  1.0000
  H   H586      1.0  0.97497  0.99181  0.64166  1.0000
  C   C732      1.0  0.62726  0.69530  0.75184  1.0000
  P   P25       1.0  0.74494  0.69053  0.69416  1.0000
  C   C733      1.0  0.81690  0.80062  0.69850  1.0000
  C   C734      1.0  0.63754  0.82879  0.85664  1.0000
  H   H587      1.0  0.57321  0.05120  0.69143  1.0000
  C   C735      1.0  0.73166  0.02052  0.69157  1.0000
  H   H588      1.0  0.60929  0.67547  0.77304  1.0000
  C   C736      1.0  0.69172  0.70723  0.71029  1.0000
  P   P26       1.0  0.56004  0.99645  0.76952  1.0000
  C   C737      1.0  0.63153  0.75624  0.70618  1.0000
  C   C738      1.0  0.59164  0.02098  0.68245  1.0000
  H   H589      1.0  0.94784  0.03387  0.72149  1.0000
  C   C739      1.0  0.80325  0.87451  0.82760  1.0000
  H   H590      1.0  0.88803  0.75240  0.70468  1.0000
  C   C740      1.0  0.67302  0.74424  0.69412  1.0000
  H   H591      1.0  0.81599  0.01521  0.76121  1.0000
  H   H592      1.0  0.87971  0.90695  0.74039  1.0000
  C   C741      1.0  0.99896  0.06921  0.84541  1.0000
  H   H593      1.0  0.55691  0.09380  0.78540  1.0000
  Fe  Fe48      1.0  0.94194  0.10196  0.63489  1.0000
  Fe  Fe49      1.0  0.85215  0.06890  0.62991  1.0000
  C   C742      1.0  0.90456  0.90238  0.66637  1.0000
  H   H594      1.0  0.56010  0.94036  0.84824  1.0000
  C   C743      1.0  0.83961  0.90016  0.82984  1.0000
  H   H595      1.0  0.90565  0.90399  0.84773  1.0000
  C   C744      1.0  0.54230  0.94063  0.77031  1.0000
  H   H596      1.0  0.61990  0.92621  0.72545  1.0000
  C   C745      1.0  0.01834  0.92934  0.72166  1.0000
  C   C746      1.0  0.91033  0.04877  0.81496  1.0000
  C   C747      1.0  0.90170  0.09477  0.82779  1.0000
  C   C748      1.0  0.02725  0.07988  0.81036  1.0000
  C   C749      1.0  0.66781  0.80312  0.82735  1.0000
  C   C750      1.0  0.72567  0.86048  0.65557  1.0000
  C   C751      1.0  0.88038  0.84164  0.85822  1.0000
  S   S92       1.0  0.80933  0.01935  0.65234  1.0000
  C   C752      1.0  0.60858  0.73167  0.73481  1.0000
  H   H597      1.0  0.67320  0.02186  0.72962  1.0000
  Fe  Fe50      1.0  0.61267  0.15737  0.70493  1.0000
  H   H598      1.0  0.99546  0.15622  0.77756  1.0000
  C   C753      1.0  0.62796  0.00444  0.83758  1.0000
  C   C754      1.0  0.98222  0.98048  0.67671  1.0000
  H   H599      1.0  0.70254  0.84060  0.63198  1.0000
  S   S93       1.0  0.88733  0.11844  0.68588  1.0000
  C   C755      1.0  0.67797  0.89505  0.85634  1.0000
  H   H600      1.0  0.72529  0.97724  0.77152  1.0000
  H   H601      1.0  0.80764  0.93318  0.73901  1.0000
  C   C756      1.0  0.75327  0.95494  0.83595  1.0000
  H   H602      1.0  0.80119  0.09605  0.78374  1.0000
  H   H603      1.0  0.57608  0.74015  0.74282  1.0000
  C   C757      1.0  0.75726  0.09231  0.68141  1.0000
  C   C758      1.0  0.69601  0.04136  0.71491  1.0000
  C   C759      1.0  0.75627  0.88217  0.63339  1.0000
  H   H604      1.0  0.91457  0.83812  0.75600  1.0000
  C   C760      1.0  0.94971  0.83836  0.63772  1.0000
  C   C761      1.0  0.54296  0.87507  0.80965  1.0000
  C   C762      1.0  0.79222  0.76788  0.71276  1.0000
  C   C763      1.0  0.96808  0.69278  0.63574  1.0000
  C   C764      1.0  0.00830  0.94335  0.67644  1.0000
  C   C765      1.0  0.89899  0.88767  0.71171  1.0000
  C   C766      1.0  0.90461  0.74398  0.73704  1.0000
  C   C767      1.0  0.90436  0.71362  0.81384  1.0000
  H   H605      1.0  0.92525  0.11767  0.84577  1.0000
  H   H606      1.0  0.96403  0.70854  0.85045  1.0000
  H   H607      1.0  0.85533  0.14694  0.82650  1.0000
  C   C768      1.0  0.02039  0.80283  0.73210  1.0000
  C   C769      1.0  0.61831  0.95117  0.70167  1.0000
  C   C770      1.0  0.83979  0.03714  0.78055  1.0000
  H   H608      1.0  0.72480  0.80314  0.78721  1.0000
  H   H609      1.0  0.84966  0.72177  0.76917  1.0000
  H   H610      1.0  0.69899  0.84940  0.72385  1.0000
  C   C771      1.0  0.75899  0.69511  0.79787  1.0000
  S   S94       1.0  0.64521  0.11225  0.75046  1.0000
  C   C772      1.0  0.96920  0.73699  0.78329  1.0000
  C   C773      1.0  0.63978  0.94319  0.65607  1.0000
  C   C774      1.0  0.78505  0.91209  0.71629  1.0000
  H   H611      1.0  0.64510  0.98291  0.80819  1.0000
  C   C775      1.0  0.70868  0.86959  0.82696  1.0000
  H   H612      1.0  0.83280  0.82442  0.72707  1.0000
  C   C776      1.0  0.68993  0.08737  0.71991  1.0000
  C   C777      1.0  0.91884  0.84848  0.72027  1.0000
  H   H613      1.0  0.73535  0.98475  0.68660  1.0000
  H   H614      1.0  0.88529  0.98472  0.78052  1.0000
  H   H615      1.0  0.68996  0.76337  0.67134  1.0000
  C   C778      1.0  0.77507  0.73966  0.62486  1.0000
  C   C779      1.0  0.77120  0.67526  0.74880  1.0000
  H   H616      1.0  0.61683  0.78403  0.69231  1.0000
  H   H617      1.0  0.71627  0.14875  0.70710  1.0000
  C   C780      1.0  0.01436  0.83397  0.77702  1.0000
  C   C781      1.0  0.88298  0.72604  0.77289  1.0000
  C   C782      1.0  0.75436  0.89053  0.73907  1.0000
  H   H618      1.0  0.94726  0.68385  0.66320  1.0000
  C   C783      1.0  0.87902  0.02011  0.79138  1.0000
  H   H619      1.0  0.98346  0.84132  0.79216  1.0000
  C   C784      1.0  0.66845  0.68274  0.73908  1.0000
  C   C785      1.0  0.54897  0.92090  0.81296  1.0000
  P   P27       1.0  0.75405  0.89643  0.80723  1.0000
  C   C786      1.0  0.73833  0.98723  0.80903  1.0000
  P   P28       1.0  0.97512  0.77687  0.69863  1.0000
  H   H620      1.0  0.73372  0.71940  0.80386  1.0000
  C   C787      1.0  0.96675  0.00415  0.72227  1.0000
  C   C788      1.0  0.98646  0.73515  0.64290  1.0000
  H   H621      1.0  0.72714  0.05760  0.81054  1.0000
  H   H622      1.0  0.83824  0.93328  0.82089  1.0000
  P   P29       1.0  0.96106  0.02558  0.82712  1.0000
  C   C789      1.0  0.70269  0.82347  0.81157  1.0000
  C   C790      1.0  0.58687  0.01806  0.82852  1.0000
  C   C791      1.0  0.97741  0.99100  0.76825  1.0000
  C   C792      1.0  0.94751  0.71881  0.81889  1.0000
  C   C793      1.0  0.73924  0.03261  0.83103  1.0000
  C   C794      1.0  0.00297  0.95298  0.76749  1.0000
  C   C795      1.0  0.87790  0.88385  0.84529  1.0000
  H   H623      1.0  0.88760  0.69965  0.84159  1.0000
  C   C796      1.0  0.63756  0.97420  0.62394  1.0000
  H   H624      1.0  0.02638  0.06315  0.77122  1.0000
  H   H625      1.0  0.77901  0.81247  0.84288  1.0000
  C   C797      1.0  0.84451  0.81602  0.85609  1.0000
  C   C798      1.0  0.92986  0.87767  0.62946  1.0000
  H   H626      1.0  0.01180  0.94203  0.80201  1.0000
  H   H627      1.0  0.79343  0.15136  0.92963  1.0000
  Fe  Fe51      1.0  0.90308  0.68852  0.95442  1.0000
  H   H628      1.0  0.69650  0.82545  0.94032  1.0000
  H   H629      1.0  0.89023  0.96946  0.96501  1.0000
  H   H630      1.0  0.55651  0.78272  0.97138  1.0000
  C   C799      1.0  0.68891  0.74547  0.01984  1.0000
  S   S95       1.0  0.97279  0.81637  0.06378  1.0000
  C   C800      1.0  0.03476  0.83139  0.93799  1.0000
  H   H631      1.0  0.63972  0.05578  0.96076  1.0000
  H   H632      1.0  0.77803  0.02371  0.94685  1.0000
  H   H633      1.0  0.76897  0.69794  0.87773  1.0000
  C   C801      1.0  0.00124  0.09202  0.89575  1.0000
  Fe  Fe52      1.0  0.91993  0.77384  0.02764  1.0000
  C   C802      1.0  0.76826  0.01374  0.90783  1.0000
  C   C803      1.0  0.62512  0.04559  0.92380  1.0000
  H   H634      1.0  0.95553  0.93996  0.99809  1.0000
  C   C804      1.0  0.73353  0.92686  0.99599  1.0000
  H   H635      1.0  0.67885  0.72937  0.98235  1.0000
  C   C805      1.0  0.99416  0.95907  0.94126  1.0000
  H   H636      1.0  0.02899  0.82567  0.89771  1.0000
  C   C806      1.0  0.89420  0.12587  0.95590  1.0000
  C   C807      1.0  0.85158  0.11987  0.94547  1.0000
  Fe  Fe53      1.0  0.80293  0.11256  0.08234  1.0000
  H   H637      1.0  0.63075  0.78154  0.03709  1.0000
  C   C808      1.0  0.93551  0.06382  0.07841  1.0000
  C   C809      1.0  0.01860  0.04077  0.09511  1.0000
  H   H638      1.0  0.90348  0.07343  0.07248  1.0000
  C   C810      1.0  0.01133  0.82764  0.02245  1.0000
  C   C811      1.0  0.70517  0.89446  0.97404  1.0000
  S   S96       1.0  0.85359  0.78082  0.05396  1.0000
  C   C812      1.0  0.95849  0.99581  0.87926  1.0000
  C   C813      1.0  0.56534  0.72073  0.08639  1.0000
  H   H639      1.0  0.58362  0.70861  0.05315  1.0000
  H   H640      1.0  0.56766  0.08099  0.94490  1.0000
  C   C814      1.0  0.54866  0.94798  0.95588  1.0000
  C   C815      1.0  0.72922  0.73747  0.03720  1.0000
  C   C816      1.0  0.00525  0.81808  0.96993  1.0000
  H   H641      1.0  0.82068  0.86060  0.99455  1.0000
  H   H642      1.0  0.77516  0.75453  0.09590  1.0000
  C   C817      1.0  0.56495  0.04486  0.86811  1.0000
  S   S97       1.0  0.83597  0.68825  0.97427  1.0000
  C   C818      1.0  0.91944  0.97177  0.94592  1.0000
  C   C819      1.0  0.99544  0.97988  0.89925  1.0000
  C   C820      1.0  0.94488  0.03137  0.10773  1.0000
  C   C821      1.0  0.76019  0.83811  0.96467  1.0000
  H   H643      1.0  0.77782  0.94401  0.90818  1.0000
  C   C822      1.0  0.77501  0.91454  0.00486  1.0000
  H   H644      1.0  0.56289  0.87874  0.95543  1.0000
  C   C823      1.0  0.64239  0.87486  0.87054  1.0000
  C   C824      1.0  0.53993  0.90245  0.94584  1.0000
  H   H645      1.0  0.57825  0.95967  0.97336  1.0000
  S   S98       1.0  0.55587  0.85773  0.05407  1.0000
  H   H646      1.0  0.68130  0.94534  0.08360  1.0000
  H   H647      1.0  0.79696  0.93947  0.02256  1.0000
  C   C825      1.0  0.74338  0.76022  0.08425  1.0000
  C   C826      1.0  0.96778  0.08297  0.05538  1.0000
  H   H648      1.0  0.02550  0.98446  0.88331  1.0000
  H   H649      1.0  0.67283  0.90376  0.96912  1.0000
  H   H650      1.0  0.96063  0.10695  0.03154  1.0000
  C   C827      1.0  0.67584  0.79715  0.09780  1.0000
  H   H651      1.0  0.91300  0.09803  0.96371  1.0000
  Fe  Fe54      1.0  0.85737  0.70755  0.05453  1.0000
  C   C828      1.0  0.58446  0.05957  0.91492  1.0000
  H   H652      1.0  0.02275  0.94676  0.95647  1.0000
  S   S99       1.0  0.73843  0.09454  0.10099  1.0000
  H   H653      1.0  0.67789  0.00680  0.89333  1.0000
  C   C829      1.0  0.03084  0.12528  0.91056  1.0000
  C   C830      1.0  0.64670  0.01789  0.88534  1.0000
  H   H654      1.0  0.83763  0.08784  0.94584  1.0000
  S   S100      1.0  0.92517  0.70206  0.03462  1.0000
  C   C831      1.0  0.76766  0.96846  0.88587  1.0000
  S   S101      1.0  0.90137  0.75995  0.94553  1.0000
  C   C832      1.0  0.78841  0.86998  0.98909  1.0000
  H   H655      1.0  0.75377  0.08082  0.89797  1.0000
  H   H656      1.0  0.03262  0.14229  0.94963  1.0000
  H   H657      1.0  0.89160  0.00545  0.89052  1.0000
  H   H658      1.0  0.98075  0.08357  0.92395  1.0000
  C   C833      1.0  0.71850  0.85026  0.95809  1.0000
  H   H659      1.0  0.75019  0.71494  0.01328  1.0000
  C   C834      1.0  0.92046  0.99206  0.90343  1.0000
  C   C835      1.0  0.00925  0.06982  0.06195  1.0000
  S   S102      1.0  0.77627  0.78346  0.93935  1.0000
  H   H660      1.0  0.71851  0.87483  0.08682  1.0000
  H   H661      1.0  0.97717  0.80203  0.95399  1.0000
  C   C836      1.0  0.75436  0.04586  0.88037  1.0000
  C   C837      1.0  0.95623  0.95514  0.96470  1.0000
  S   S103      1.0  0.71654  0.98266  0.00954  1.0000
  Fe  Fe55      1.0  0.75827  0.02489  0.06562  1.0000
  H   H662      1.0  0.67399  0.66655  0.04947  1.0000
  C   C838      1.0  0.66192  0.77468  0.05057  1.0000
  H   H663      1.0  0.61942  0.89494  0.89396  1.0000
  S   S104      1.0  0.82087  0.04434  0.04167  1.0000
  Fe  Fe56      1.0  0.83554  0.76106  0.97270  1.0000
  C   C839      1.0  0.82672  0.15557  0.93607  1.0000
  S   S105      1.0  0.54288  0.08004  0.04648  1.0000
  H   H664      1.0  0.61068  0.81291  0.86916  1.0000
  H   H665      1.0  0.84587  0.78378  0.86744  1.0000
  H   H666      1.0  0.90985  0.82909  0.87090  1.0000
  H   H667      1.0  0.68170  0.93033  0.86957  1.0000
  C   C840      1.0  0.89840  0.76911  0.28332  1.0000
  C   C841      1.0  0.02334  0.11221  0.31743  1.0000
  C   C842      1.0  0.55374  0.13270  0.23452  1.0000
  C   C843      1.0  0.69729  0.78262  0.31581  1.0000
  C   C844      1.0  0.71485  0.88219  0.16848  1.0000
  H   H668      1.0  0.95183  0.67829  0.32726  1.0000
  H   H669      1.0  0.80922  0.70913  0.26294  1.0000
  H   H670      1.0  0.89920  0.97336  0.31056  1.0000
  C   C845      1.0  0.70846  0.89564  0.12180  1.0000
  H   H671      1.0  0.68884  0.92365  0.34570  1.0000
  C   C846      1.0  0.79457  0.95925  0.27319  1.0000
  C   C847      1.0  0.67626  0.96413  0.16382  1.0000
  C   C848      1.0  0.92064  0.10762  0.23168  1.0000
  H   H672      1.0  0.95227  0.89594  0.22654  1.0000
  H   H673      1.0  0.80564  0.96220  0.23621  1.0000
  S   S106      1.0  0.57366  0.98213  0.11476  1.0000
  H   H674      1.0  0.87016  0.90480  0.15004  1.0000
  H   H675      1.0  0.70239  0.69307  0.22406  1.0000
  H   H676      1.0  0.83268  0.90133  0.27801  1.0000
  H   H677      1.0  0.99412  0.99679  0.14094  1.0000
  C   C849      1.0  0.92712  0.73588  0.26308  1.0000
  C   C850      1.0  0.79615  0.92182  0.34504  1.0000
  H   H678      1.0  0.96007  0.74370  0.26479  1.0000
  C   C851      1.0  0.03502  0.66215  0.19866  1.0000
  S   S107      1.0  0.90517  0.00332  0.13238  1.0000
  C   C852      1.0  0.56095  0.89353  0.26580  1.0000
  H   H679      1.0  0.74810  0.67136  0.29061  1.0000
  H   H680      1.0  0.75744  0.80546  0.34599  1.0000
  H   H681      1.0  0.88253  0.77198  0.18096  1.0000
  S   S108      1.0  0.83000  0.10177  0.15561  1.0000
  H   H682      1.0  0.58155  0.91319  0.24737  1.0000
  H   H683      1.0  0.94736  0.09044  0.21248  1.0000
  C   C853      1.0  0.85018  0.15077  0.27883  1.0000
  C   C854      1.0  0.73654  0.80134  0.31345  1.0000
  H   H684      1.0  0.91492  0.84096  0.16435  1.0000
  C   C855      1.0  0.85599  0.87497  0.15847  1.0000
  C   C856      1.0  0.66442  0.07979  0.21530  1.0000
  C   C857      1.0  0.88127  0.83928  0.16715  1.0000
  C   C858      1.0  0.58484  0.73169  0.13383  1.0000
  H   H685      1.0  0.90916  0.80244  0.29870  1.0000
  Fe  Fe57      1.0  0.76688  0.07876  0.17222  1.0000
  C   C859      1.0  0.74863  0.81537  0.26939  1.0000
  C   C860      1.0  0.68379  0.95194  0.21069  1.0000
  C   C861      1.0  0.72191  0.80978  0.22681  1.0000
  C   C862      1.0  0.69185  0.08549  0.25678  1.0000
  C   C863      1.0  0.96796  0.92255  0.25182  1.0000
  C   C864      1.0  0.68814  0.93590  0.11961  1.0000
  H   H686      1.0  0.98400  0.03380  0.26690  1.0000
  H   H687      1.0  0.98976  0.88014  0.30236  1.0000
  C   C865      1.0  0.98924  0.91368  0.29458  1.0000
  H   H688      1.0  0.01368  0.75902  0.12600  1.0000
  H   H689      1.0  0.95473  0.72206  0.15797  1.0000
  H   H690      1.0  0.63909  0.76488  0.27663  1.0000
  C   C866      1.0  0.00947  0.08885  0.35412  1.0000
  C   C867      1.0  0.61400  0.04600  0.26228  1.0000
  C   C868      1.0  0.91231  0.15243  0.22939  1.0000
  H   H691      1.0  0.63150  0.04366  0.33930  1.0000
  H   H692      1.0  0.70030  0.07878  0.33441  1.0000
  H   H693      1.0  0.80603  0.76658  0.18431  1.0000
  C   C869      1.0  0.54390  0.85411  0.23876  1.0000
  S   S109      1.0  0.74311  0.10293  0.25087  1.0000
  C   C870      1.0  0.64032  0.05433  0.30493  1.0000
  C   C871      1.0  0.79382  0.83272  0.16854  1.0000
  C   C872      1.0  0.62537  0.06044  0.21829  1.0000
  H   H694      1.0  0.83750  0.08797  0.30081  1.0000
  C   C873      1.0  0.80955  0.92486  0.29666  1.0000
  C   C874      1.0  0.55005  0.90880  0.31607  1.0000
  C   C875      1.0  0.56121  0.74958  0.17624  1.0000
  H   H695      1.0  0.94996  0.97254  0.20880  1.0000
  H   H696      1.0  0.57662  0.75880  0.21268  1.0000
  C   C876      1.0  0.69224  0.66795  0.24463  1.0000
  C   C877      1.0  0.96650  0.96587  0.24202  1.0000
  P   P30       1.0  0.73752  0.82811  0.16997  1.0000
  H   H697      1.0  0.60484  0.05509  0.18560  1.0000
  H   H698      1.0  0.83417  0.78527  0.30042  1.0000
  C   C878      1.0  0.84214  0.71653  0.26342  1.0000
  C   C879      1.0  0.91339  0.69288  0.24167  1.0000
  S   S110      1.0  0.56888  0.01427  0.26291  1.0000
  H   H699      1.0  0.61832  0.72716  0.13739  1.0000
  H   H700      1.0  0.70849  0.90173  0.24961  1.0000
  C   C880      1.0  0.86303  0.80045  0.17667  1.0000
  H   H701      1.0  0.77867  0.83100  0.26881  1.0000
  C   C881      1.0  0.76548  0.99009  0.29762  1.0000
  C   C882      1.0  0.66986  0.77848  0.27428  1.0000
  C   C883      1.0  0.67919  0.07424  0.30220  1.0000
  C   C884      1.0  0.85874  0.10610  0.28138  1.0000
  C   C885      1.0  0.98567  0.00057  0.27540  1.0000
  C   C886      1.0  0.87077  0.68334  0.24239  1.0000
  H   H702      1.0  0.02877  0.85913  0.18593  1.0000
  H   H703      1.0  0.66041  0.78875  0.19823  1.0000
  H   H704      1.0  0.67458  0.97429  0.24493  1.0000
  H   H705      1.0  0.79377  0.89957  0.15095  1.0000
  C   C887      1.0  0.00881  0.94811  0.32789  1.0000
  C   C888      1.0  0.00661  0.99202  0.31899  1.0000
  C   C889      1.0  0.81245  0.87169  0.15884  1.0000
  C   C890      1.0  0.98634  0.71100  0.16469  1.0000
  C   C891      1.0  0.56800  0.14248  0.18918  1.0000
  Fe  Fe58      1.0  0.84277  0.03207  0.11723  1.0000
  H   H706      1.0  0.89941  0.04928  0.25767  1.0000
  C   C892      1.0  0.75169  0.98695  0.34575  1.0000
  H   H707      1.0  0.75363  0.01648  0.27908  1.0000
  H   H708      1.0  0.89249  0.05298  0.35220  1.0000
  S   S111      1.0  0.78148  0.00713  0.13867  1.0000
  H   H709      1.0  0.55087  0.84435  0.19899  1.0000
  H   H710      1.0  0.55783  0.12274  0.15339  1.0000
  H   H711      1.0  0.02558  0.94049  0.36058  1.0000
  C   C893      1.0  0.85602  0.75937  0.28412  1.0000
  H   H712      1.0  0.67366  0.08911  0.18036  1.0000
  C   C894      1.0  0.81954  0.79727  0.17776  1.0000
  H   H713      1.0  0.66131  0.99538  0.16090  1.0000
  C   C895      1.0  0.68212  0.79188  0.22986  1.0000
  H   H714      1.0  0.62989  0.87220  0.33150  1.0000
  C   C896      1.0  0.70292  0.91083  0.21312  1.0000
  C   C897      1.0  0.89368  0.08437  0.25730  1.0000
  C   C898      1.0  0.00305  0.15173  0.31061  1.0000
  H   H715      1.0  0.02164  0.80364  0.24218  1.0000
  C   C899      1.0  0.01969  0.73209  0.14647  1.0000
  S   S112      1.0  0.90194  0.89265  0.35175  1.0000
  C   C900      1.0  0.89397  0.98202  0.35069  1.0000
  H   H716      1.0  0.68784  0.77215  0.35018  1.0000
  H   H717      1.0  0.56302  0.93959  0.33684  1.0000
  C   C901      1.0  0.99381  0.67619  0.19160  1.0000
  C   C902      1.0  0.98655  0.02090  0.11725  1.0000
  S   S113      1.0  0.02990  0.72977  0.34081  1.0000
  P   P31       1.0  0.03338  0.03624  0.36090  1.0000
  H   H718      1.0  0.55777  0.14772  0.31540  1.0000
  H   H719      1.0  0.80897  0.89548  0.36275  1.0000
  H   H720      1.0  0.65489  0.82118  0.11988  1.0000
  S   S114      1.0  0.83045  0.67924  0.11838  1.0000
  C   C903      1.0  0.56795  0.15695  0.28074  1.0000
  H   H721      1.0  0.72845  0.01069  0.36354  1.0000
  C   C904      1.0  0.71730  0.79147  0.11421  1.0000
  H   H722      1.0  0.01452  0.02442  0.56817  1.0000
  S   S115      1.0  0.60170  0.14760  0.51649  1.0000
  Fe  Fe59      1.0  0.55925  0.84139  0.56740  1.0000
  H   H723      1.0  0.92737  0.15647  0.39875  1.0000
  H   H724      1.0  0.71217  0.11714  0.55415  1.0000
  C   C905      1.0  0.79398  0.87659  0.45697  1.0000
  H   H725      1.0  0.81166  0.73345  0.46672  1.0000
  C   C906      1.0  0.62627  0.66620  0.54203  1.0000
  S   S116      1.0  0.94094  0.87503  0.48899  1.0000
  H   H726      1.0  0.77927  0.85629  0.42439  1.0000
  H   H727      1.0  0.70637  0.89489  0.49579  1.0000
  H   H728      1.0  0.60825  0.83244  0.39864  1.0000
  H   H729      1.0  0.68959  0.75575  0.57513  1.0000
  Fe  Fe60      1.0  0.00981  0.86221  0.48294  1.0000
  C   C907      1.0  0.66117  0.73683  0.56810  1.0000
  H   H730      1.0  0.68050  0.98024  0.50304  1.0000
  H   H731      1.0  0.79919  0.98368  0.52264  1.0000
  H   H732      1.0  0.82797  0.82081  0.47798  1.0000
  H   H733      1.0  0.55901  0.66898  0.54406  1.0000
  C   C908      1.0  0.97500  0.10540  0.38354  1.0000
  H   H734      1.0  0.69310  0.67351  0.54526  1.0000
  H   H735      1.0  0.55015  0.01884  0.37059  1.0000
  C   C909      1.0  0.89701  0.69597  0.47573  1.0000
  H   H736      1.0  0.96453  0.98626  0.50330  1.0000
  C   C910      1.0  0.75143  0.08054  0.49578  1.0000
  C   C911      1.0  0.64705  0.87673  0.36698  1.0000
  H   H737      1.0  0.75778  0.14465  0.40926  1.0000
  H   H738      1.0  0.86090  0.86609  0.55374  1.0000
  S   S117      1.0  0.61988  0.81651  0.59552  1.0000
  H   H739      1.0  0.67736  0.73854  0.46645  1.0000
  S   S118      1.0  0.92923  0.78543  0.40211  1.0000
  H   H740      1.0  0.68909  0.13442  0.44659  1.0000
  C   C912      1.0  0.70524  0.67997  0.42137  1.0000
  C   C913      1.0  0.80482  0.94811  0.51190  1.0000
  H   H741      1.0  0.96903  0.82028  0.60821  1.0000
  Fe  Fe61      1.0  0.93907  0.85806  0.40461  1.0000
  C   C914      1.0  0.01326  0.74462  0.60585  1.0000
  H   H742      1.0  0.80414  0.77319  0.57111  1.0000
  H   H743      1.0  0.54836  0.08759  0.55657  1.0000
  C   C915      1.0  0.68064  0.90596  0.37527  1.0000
  C   C916      1.0  0.88473  0.95970  0.43117  1.0000
  C   C917      1.0  0.66314  0.69053  0.55092  1.0000
  S   S119      1.0  0.88143  0.09443  0.45586  1.0000
  C   C918      1.0  0.01806  0.02657  0.52879  1.0000
  C   C919      1.0  0.69300  0.04908  0.53189  1.0000
  H   H744      1.0  0.84722  0.94785  0.57461  1.0000
  C   C920      1.0  0.61468  0.06537  0.45801  1.0000
  C   C921      1.0  0.88146  0.69404  0.56280  1.0000
  C   C922      1.0  0.02867  0.03058  0.42635  1.0000
  C   C923      1.0  0.75967  0.03916  0.46505  1.0000
  S   S120      1.0  0.00861  0.85143  0.39852  1.0000
  C   C924      1.0  0.88300  0.03822  0.42599  1.0000
  C   C925      1.0  0.83204  0.92773  0.54212  1.0000
  C   C926      1.0  0.78189  0.71867  0.45382  1.0000
  H   H745      1.0  0.66713  0.05316  0.55772  1.0000
  Fe  Fe62      1.0  0.88764  0.10084  0.53996  1.0000
  C   C927      1.0  0.89092  0.71827  0.52533  1.0000
  C   C928      1.0  0.70635  0.72152  0.45371  1.0000
  C   C929      1.0  0.65665  0.86058  0.45107  1.0000
  C   C930      1.0  0.70283  0.91234  0.42143  1.0000
  H   H746      1.0  0.55579  0.10096  0.38767  1.0000
  C   C931      1.0  0.88968  0.02695  0.37403  1.0000
  C   C932      1.0  0.89286  0.94849  0.37967  1.0000
  H   H747      1.0  0.74532  0.77247  0.49628  1.0000
  C   C933      1.0  0.97621  0.66102  0.59227  1.0000
  H   H748      1.0  0.53957  0.00588  0.53430  1.0000
  C   C934      1.0  0.87903  0.00445  0.45408  1.0000
  C   C935      1.0  0.59362  0.09007  0.49925  1.0000
  C   C936      1.0  0.83983  0.88182  0.53026  1.0000
  S   S121      1.0  0.92623  0.15367  0.58808  1.0000
  H   H749      1.0  0.93485  0.88950  0.59470  1.0000
  S   S122      1.0  0.89477  0.77636  0.54068  1.0000
  C   C937      1.0  0.76772  0.95338  0.37047  1.0000
  C   C938      1.0  0.82107  0.85629  0.48752  1.0000
  H   H750      1.0  0.90407  0.71439  0.44658  1.0000
  C   C939      1.0  0.56636  0.06856  0.52654  1.0000
  H   H751      1.0  0.67521  0.66535  0.40945  1.0000
  C   C940      1.0  0.78091  0.67770  0.42022  1.0000
  C   C941      1.0  0.71829  0.08540  0.52951  1.0000
  P   P32       1.0  0.74780  0.94803  0.43148  1.0000
  H   H752      1.0  0.78657  0.03559  0.44068  1.0000
  H   H753      1.0  0.65394  0.96782  0.58850  1.0000
  C   C942      1.0  0.70071  0.00778  0.50068  1.0000
  S   S123      1.0  0.00530  0.78945  0.48544  1.0000
  C   C943      1.0  0.00256  0.67112  0.55550  1.0000
  C   C944      1.0  0.60858  0.01933  0.44433  1.0000
  H   H754      1.0  0.63550  0.08164  0.43641  1.0000
  C   C945      1.0  0.56061  0.02242  0.51322  1.0000
  H   H755      1.0  0.62434  0.00037  0.41189  1.0000
  H   H756      1.0  0.81026  0.66240  0.40674  1.0000
  C   C946      1.0  0.99495  0.00751  0.44146  1.0000
  S   S124      1.0  0.54601  0.91473  0.58431  1.0000
  H   H757      1.0  0.77146  0.10849  0.49416  1.0000
  H   H758      1.0  0.64653  0.84402  0.48098  1.0000
  C   C947      1.0  0.95461  0.14468  0.37648  1.0000
  C   C948      1.0  0.73422  0.00247  0.46714  1.0000
  H   H759      1.0  0.88215  0.93380  0.45318  1.0000
  S   S125      1.0  0.56902  0.94233  0.44907  1.0000
  Fe  Fe63      1.0  0.93610  0.80152  0.48615  1.0000
  H   H760      1.0  0.96325  0.08757  0.41142  1.0000
  C   C949      1.0  0.63508  0.85402  0.40476  1.0000
  C   C950      1.0  0.74462  0.74067  0.47042  1.0000
  H   H761      1.0  0.75886  0.71660  0.59569  1.0000
  H   H762      1.0  0.97201  0.99178  0.41427  1.0000
  C   C951      1.0  0.69038  0.88968  0.45945  1.0000
  C   C952      1.0  0.58093  0.99812  0.47139  1.0000
  C   C953      1.0  0.78565  0.92275  0.46878  1.0000
  H   H763      1.0  0.87139  0.01270  0.49339  1.0000
  S   S126      1.0  0.55021  0.83452  0.48405  1.0000
  C   C954      1.0  0.58557  0.73430  0.56597  1.0000
  C   C955      1.0  0.58753  0.68793  0.55012  1.0000
  S   S127      1.0  0.90830  0.04748  0.58295  1.0000
  Fe  Fe64      1.0  0.99903  0.77942  0.40123  1.0000
  S   S128      1.0  0.82957  0.11891  0.58420  1.0000
  H   H764      1.0  0.55554  0.75094  0.57199  1.0000
  C   C956      1.0  0.62235  0.75868  0.57528  1.0000
  C   C957      1.0  0.99012  0.00492  0.49226  1.0000
  H   H765      1.0  0.87713  0.71121  0.60130  1.0000
  H   H766      1.0  0.75685  0.87932  0.59271  1.0000
  C   C958      1.0  0.02163  0.71260  0.56268  1.0000
  H   H767      1.0  0.02756  0.77685  0.61026  1.0000
  H   H768      1.0  0.61172  0.03733  0.61252  1.0000
  C   C959      1.0  0.80036  0.77197  0.61069  1.0000
  C   C960      1.0  0.69118  0.15416  0.41727  1.0000
