data_image0
_chemical_formula_structural       CFeCHC3HC3HCHCH2C2FeCFeSHCH2C2HCSHCSCH2SCHSC4H2C3HC5H2CHCH2SFeC3H2CSH2C2H2CHC5HCHCH2C3H2FeHFeH3CHCHC4H2C2H2SHCHCFeC2HSC2H2CH2C2SCH2FeHSCH5C2H2C2HCSHCH2CH2C3HFeCH3CHCHCH2SHCH3C2H4CHC3PH3C2HSCH3C7SH3C2SH2FeH2C2SHCHSHSC2SPSHC2H2C3H2C2HC2HC5H3CHCHCHC3HC4S2C3HCH4C2H2SHFeSC2HCPC2PH3CPH3CH5C2HCHC7HSH2S2H2CHPCH2C9HCH2SFeHCH3C2HCH4C4HC2HC2FeC2H2CSH2PC3SC3H3CHCSFeCHC5FeCH2C2SH2C2HC2SC3HC2SHCHC2HC2PCHC2HCH5CHC3SCH3FeHCSCHCFeC2S2FeC3H2SC2HCHCH5C2H2C2HCH3C2H5C3HCHC2SFeH2C2H3CSCHC5H2C4SCFeCHSC2HSHFeHCHCPCSH2C2SC2HCH3CH2C3H2C2HCHC3HC2H2C3H2C2SC4HCH3CHCHC4HPC5H4C3H2SCSHC2HFeSHC2HCH2CH2C2H2C3PHC4SHCH3FeC4HCFeC3H3CHCH2CH2PCFeCHCHC3H2FeC5HSH2CPHCHCPC2H2C2HC2SC2H3C2HC2HC2H2FeC2H2SCHC2HC6H3C2HC3H3C2FeCHC2H8CHC3H2CFeC3HC2H2CHC3FeC2SCHFeCH4CSC2H2C2H3C3H3SC4SH2PH2PHCH3CHPCHCSHC2HSHCSHC2SCSCHCHC2HCHC2S2H2CHCSCHCHSC4H2CHC5FeH2CHC2HC2H2C6HCH2CH2SC2H3C2HC2HC3HC2HC3H2C5HCFeSCHSHC2H2CH6C2HC2H2C3HSC2HCHC4FeC2HC4HCH2FeCHC2PC2H2SC5H2C4HCH2CH2CH3CHCHC2FeC2H3C5HSHC2H3CHSH2CHC2HC2HC4HCH2C2HC2H2FeH2C3H3CHC2HC2H2SC3HC2FeC2HCFeC3HFeHCS2C3H2CHCFeHC2PH2CH2CH2CFeSC3SH2CSC2H2C3H2C6HCH2C3PH4CHC8H2CHC2H2CHC2SC2HC2H3C3PSCPCHCHC2H2C4HCH2C4H10C3HCHCSC2SC4HC3H2C2FeCH5CPH4C2HCH2CHCSCHC3FeC2H7C4HC2H3C2HFeH3C4SCH2CHC2SHCHC6HC2HCHSH2CSHCHCSCFeCHSHC4SCHCS2HC7HC2H2CH4C4HCH2C2HCH3CH2C2HCHCH2CSH2C3H4CHCHCHC3HCHC5HC2HC2H2C2H2CH2C5SH2PH2CHCPCPC2PC3H3SC2SH4C6HCHCHC4HCHC2HS2CH2C9HCFeCHSCH2C3SC3PFeHCH2CHCFeC5HC2S3CH2CSC2SCHC2HC5H2CPFeCHC5SC3SCH4C3SHCHCHCH2CH5SH9CH2CHCHCHC2H3C2H6C4PHC3HC2SH4C3H2C2H2C2HFeHCHC4HCHSC2HCH4SCHSC2FeSH2CH6C2HC2H2CHC3H4CHC3FeHC3S2CHC2H2CH2CHC2HC2H2CH4FeHCFeH2CHCH2CSHC4SC6HCPC2SC4HCHC6HCHC2HC2H2CH2CHC2HCFeC2H3FeC2H3CH3SC2H3C2HCHCHCH3SFeCSCHC2HCSH3CHC4HFe2CFeCSPCH3CPFeHCHCHCHCS2C3FeH3FeHC4HCSC4HCHCH2CHC4HFeCHC3H3C3HCH2C4SCSHCH3C2HPC3HFeH2C2HC2HCHCHC5H5CHC4HCHCS2HC3H2C2H2C3HC4HCH7CH5C2H3FeC2HC3FeCH2C2HC6H2SH2C5HC2H3PHC2H4C2HPC6SC3SCHSHCHSCH2CHC3H2C4HC2H2C2HSC3Fe2HSHCH2CH2CHC2HCHC2FeC2HC4PH2CS2PC2HSC2FeSC2H4FeHC4HSC6HC3HCHC3SHC2HCFeC2SHCH2CHCSCHCH3CHCH3FeCH4CHC2HC3HC3HCHCHCHCHPH2C2HCHCHCH2SHCSHC2HCHCFeHC2HC4H2C2HC2FeHCHPC2HC3HCHC2H2C3HC2H4CH2CH2C4HCHCH3CHC2SHCH3C4H3C2SCSC3H3SCHCH2CSCHC2SC2H2CSC2H4C6FeCHCH2C2H3C2H2SCH2CHFeH2CH3CH2SHC3H2C4SHCSHC2H4C3SFeCH2CHCHPHCHC2HC3H3C3FeC4H2CH3C2FeSCHCH3C2S2PHCH2PSHCFeH3CSCHC5HCSC2H3CH3CFeS2CH3C2HCPCHCSPFeHCHC3HCH2C4HCHC2H3CHC2HCHC2H2SH4CH5CHCHCH3C2HC8H3CFeC2FeHCHC3HC2HC4SC4SCH2SHC3H2C2HCH2C2H2CHCHCHCH4C4HC2HC2HC2HCPHPC2HC5H3C3HC6HCH3C4FeHSCHC2HC4HCPHSH2C2HCFeH2C2SC3SCHCH2C3HCFeH2C5SHCHFeSCHCHC2SHC3HC3HCHCHC2HSH3C4SHC3H2SC2HFeCH2C2H2SHSCH2CHC3H3CSFeH2C3HCFeC2HCH2FeH5CHC2H2CHCH2PSHCHCH3SCPH2FeCHC2HC6HPH4C2HCHCHCFeCPSC2SH4CSCHFeHC2HFeHCSHC3HC2H2CS3H2C2H5C8H2CHCHCSCH2CHCSC2H2C2HC5FeHCSHSCH2C2HSC2HCPCH2C2PC2SH5CSC2HC4HCH3C4H2C3HCH2FeCHSH2C2HC3HC3H2CH2CSCH2C2SFeHCFeCHCFeHC2HC3S2H2C2HC2H2SCSCH7C4H2CH2CHC2HFeC2H2C6HCHCHCH2C2HCSH2CHCHC3H2CHCSCHC2H3CHCH2CHPFeHCFeHCHC2HC2SC2HSC3H3C2H2C3HC5HCH2CSHC2HC2H2FeC2HCSHC2FeHCSC4SHCHCSHCH2CHC6SC2H2FeCHSCHFeHFeSCHCHCH4C2HCH2C2H5C2HSCHC2HC2H3FeC2HC4H2SC2H2C3HC2H3PHC3H2CHCH2CH2CFeH2C2HC2HC2H2SH3C2HSC3H4FeCH2CH4SC2H2C2SC5SCFeH3C2H2CSCH3C3H2CHCSCHC3H3C4HSC3HC2H2C2SHC2H3FeC2HC2SH2CHCHCH5CH2CHCHFeCHCH2SCH4C5PCPHCHFePC3HCH2C2FeSHS2C6HSC2FeC2HC3SCHSC2HCFeC2HC3H3CHCHCHC3HCFeCHC3SCFeCH2CH2CH2CH2C2H2CH2C3HCHPCSHCPC7SFeC3H4C3H2CH2C5H2CHC5SCHCHCFeCH2CH3C2HC2HCHCHCSC2SHCSCHPHC4H2SC3SC2H3C4H4CH2CH5C2HCHCHCHCH2SHPHSC2SHCHCH2C3PHCH2C2H2C2H2CSHCHCH2CHC3H4FeHC6FeHC2HCHC2HCHC4HC6HC2HCH2CH
_chemical_formula_sum              "C1920 Fe128 H1536 S256 P64"
_cell_length_a       40.3562
_cell_length_b       51.6373
_cell_length_c       28.6068
_cell_angle_alpha    82.5551
_cell_angle_beta     72.4323
_cell_angle_gamma    87.5626

_space_group_name_H-M_alt    "P 1"
_space_group_IT_number       1

loop_
  _space_group_symop_operation_xyz
  'x, y, z'

loop_
  _atom_site_type_symbol
  _atom_site_label
  _atom_site_symmetry_multiplicity
  _atom_site_fract_x
  _atom_site_fract_y
  _atom_site_fract_z
  _atom_site_occupancy
  C   C1        1.0  0.32033  0.17488  0.56499  1.0000
  Fe  Fe1       1.0  0.31283  0.06065  0.78574  1.0000
  C   C2        1.0  0.10033  0.10995  0.87159  1.0000
  H   H1        1.0  0.92625  0.50240  0.62017  1.0000
  C   C3        1.0  0.23712  0.23918  0.82353  1.0000
  C   C4        1.0  0.29657  0.41879  0.01719  1.0000
  C   C5        1.0  0.15952  0.46605  0.78864  1.0000
  H   H2        1.0  0.22701  0.52454  0.91277  1.0000
  C   C6        1.0  0.92322  0.33126  0.78975  1.0000
  C   C7        1.0  0.92291  0.50829  0.80621  1.0000
  C   C8        1.0  0.40155  0.27871  0.97442  1.0000
  H   H3        1.0  0.94114  0.28145  0.53367  1.0000
  C   C9        1.0  0.20520  0.53340  0.01996  1.0000
  H   H4        1.0  0.91352  0.50639  0.88477  1.0000
  C   C10       1.0  0.93741  0.12164  0.85808  1.0000
  H   H5        1.0  0.92050  0.20414  0.99452  1.0000
  H   H6        1.0  0.06660  0.29087  0.96052  1.0000
  C   C11       1.0  0.21805  0.44863  0.01328  1.0000
  C   C12       1.0  0.92939  0.31133  0.92961  1.0000
  Fe  Fe2       1.0  0.35140  0.49719  0.98271  1.0000
  C   C13       1.0  0.91901  0.30561  0.78113  1.0000
  Fe  Fe3       1.0  0.31547  0.11907  0.75210  1.0000
  S   S1        1.0  0.16754  0.41106  0.55625  1.0000
  H   H7        1.0  0.33342  0.16015  0.90095  1.0000
  C   C14       1.0  0.13533  0.40680  0.96121  1.0000
  H   H8        1.0  0.27097  0.38860  0.74836  1.0000
  H   H9        1.0  0.22586  0.08120  0.55825  1.0000
  C   C15       1.0  0.18361  0.31006  0.67098  1.0000
  C   C16       1.0  0.21590  0.25023  0.61208  1.0000
  H   H10       1.0  0.18522  0.38751  0.94451  1.0000
  C   C17       1.0  0.21146  0.13602  0.53828  1.0000
  S   S2        1.0  0.35652  0.50335  0.90174  1.0000
  H   H11       1.0  0.26384  0.46597  0.79284  1.0000
  C   C18       1.0  0.95455  0.11328  0.94644  1.0000
  S   S3        1.0  0.27449  0.48113  0.88248  1.0000
  C   C19       1.0  0.17614  0.51031  0.91812  1.0000
  H   H12       1.0  0.02952  0.30619  0.90126  1.0000
  H   H13       1.0  0.97283  0.24662  0.85313  1.0000
  S   S4        1.0  0.19392  0.43418  0.66346  1.0000
  C   C20       1.0  0.03914  0.09024  0.02655  1.0000
  H   H14       1.0  0.01213  0.43432  0.64454  1.0000
  S   S5        1.0  0.90699  0.25295  0.70554  1.0000
  C   C21       1.0  0.98077  0.18304  0.89597  1.0000
  C   C22       1.0  0.12051  0.08279  0.67536  1.0000
  C   C23       1.0  0.40179  0.07064  0.65545  1.0000
  C   C24       1.0  0.09961  0.07039  0.77800  1.0000
  H   H15       1.0  0.96121  0.11073  0.98070  1.0000
  H   H16       1.0  0.99576  0.16577  0.88487  1.0000
  C   C25       1.0  0.38730  0.40635  0.56800  1.0000
  C   C26       1.0  0.25651  0.39243  0.57104  1.0000
  C   C27       1.0  0.15039  0.51092  0.80553  1.0000
  H   H17       1.0  0.22406  0.04449  0.96902  1.0000
  C   C28       1.0  0.37124  0.17490  0.93010  1.0000
  C   C29       1.0  0.26863  0.53104  0.62146  1.0000
  C   C30       1.0  0.16251  0.10468  0.85756  1.0000
  C   C31       1.0  0.25641  0.27489  0.99446  1.0000
  C   C32       1.0  0.21726  0.04128  0.73392  1.0000
  H   H18       1.0  0.17126  0.35296  0.77877  1.0000
  H   H19       1.0  0.13322  0.52602  0.82252  1.0000
  C   C33       1.0  0.98522  0.33195  0.91369  1.0000
  H   H20       1.0  0.34416  0.24395  0.69358  1.0000
  C   C34       1.0  0.22988  0.48565  0.89198  1.0000
  H   H21       1.0  0.14379  0.30346  0.57586  1.0000
  H   H22       1.0  0.39507  0.10247  0.96673  1.0000
  S   S6        1.0  0.09130  0.36235  0.57077  1.0000
  Fe  Fe4       1.0  0.35931  0.33963  0.69826  1.0000
  C   C35       1.0  0.99480  0.41407  0.94864  1.0000
  C   C36       1.0  0.97166  0.48278  0.76318  1.0000
  C   C37       1.0  0.28367  0.27631  0.89196  1.0000
  H   H23       1.0  0.09738  0.20320  0.98630  1.0000
  H   H24       1.0  0.29430  0.27686  0.85219  1.0000
  C   C38       1.0  0.19399  0.43368  0.00206  1.0000
  S   S7        1.0  0.28765  0.12916  0.82847  1.0000
  H   H25       1.0  0.23784  0.31387  0.97905  1.0000
  H   H26       1.0  0.29804  0.10945  0.62099  1.0000
  C   C39       1.0  0.94392  0.23616  0.67309  1.0000
  C   C40       1.0  0.33903  0.03597  0.93217  1.0000
  H   H27       1.0  0.96151  0.36791  0.60615  1.0000
  H   H28       1.0  0.30354  0.37361  0.82628  1.0000
  C   C41       1.0  0.10077  0.24908  0.84031  1.0000
  H   H29       1.0  0.22930  0.39377  0.59188  1.0000
  C   C42       1.0  0.91142  0.12361  0.90308  1.0000
  C   C43       1.0  0.14049  0.13419  0.80033  1.0000
  C   C44       1.0  0.95421  0.33796  0.79797  1.0000
  C   C45       1.0  0.34760  0.22452  0.71066  1.0000
  C   C46       1.0  0.93629  0.37027  0.63262  1.0000
  H   H30       1.0  0.91630  0.20609  0.77474  1.0000
  C   C47       1.0  0.24475  0.04223  0.03092  1.0000
  H   H31       1.0  0.01973  0.42215  0.55810  1.0000
  C   C48       1.0  0.92020  0.11904  0.94737  1.0000
  H   H32       1.0  0.94050  0.50803  0.72722  1.0000
  H   H33       1.0  0.11043  0.48167  0.82914  1.0000
  C   C49       1.0  0.36048  0.04816  0.57975  1.0000
  C   C50       1.0  0.21155  0.21253  0.03133  1.0000
  C   C51       1.0  0.24575  0.38836  0.74249  1.0000
  H   H34       1.0  0.04794  0.10199  0.99086  1.0000
  H   H35       1.0  0.07401  0.10503  0.89370  1.0000
  Fe  Fe5       1.0  0.31326  0.30725  0.66048  1.0000
  H   H36       1.0  0.31709  0.05442  0.64356  1.0000
  Fe  Fe6       1.0  0.07893  0.52371  0.94447  1.0000
  H   H37       1.0  0.28539  0.18688  0.94654  1.0000
  H   H38       1.0  0.35189  0.33848  0.56226  1.0000
  H   H39       1.0  0.00042  0.34920  0.91091  1.0000
  C   C52       1.0  0.19993  0.29834  0.74567  1.0000
  H   H40       1.0  0.16887  0.32003  0.96904  1.0000
  C   C53       1.0  0.36860  0.31692  0.95424  1.0000
  H   H41       1.0  0.22904  0.29017  0.58074  1.0000
  C   C54       1.0  0.37439  0.03993  0.92484  1.0000
  C   C55       1.0  0.00358  0.20803  0.62724  1.0000
  C   C56       1.0  0.99279  0.41855  0.75236  1.0000
  C   C57       1.0  0.22639  0.05412  0.99938  1.0000
  H   H42       1.0  0.39586  0.13366  0.60783  1.0000
  H   H43       1.0  0.23821  0.25568  0.84270  1.0000
  C   C58       1.0  0.33813  0.17335  0.92482  1.0000
  C   C59       1.0  0.94426  0.22854  0.92585  1.0000
  H   H44       1.0  0.22285  0.32997  0.68965  1.0000
  H   H45       1.0  0.12969  0.11609  0.54988  1.0000
  S   S8        1.0  0.09669  0.43712  0.53675  1.0000
  H   H46       1.0  0.05673  0.24526  0.95037  1.0000
  C   C60       1.0  0.04614  0.26244  0.54768  1.0000
  H   H47       1.0  0.28592  0.20733  0.55888  1.0000
  C   C61       1.0  0.27860  0.41346  0.56542  1.0000
  Fe  Fe7       1.0  0.08415  0.23239  0.71876  1.0000
  C   C62       1.0  0.03267  0.45760  0.89290  1.0000
  C   C63       1.0  0.23689  0.27259  0.59966  1.0000
  H   H48       1.0  0.32859  0.26523  0.01836  1.0000
  S   S9        1.0  0.02783  0.51758  0.93235  1.0000
  C   C64       1.0  0.28831  0.25403  0.92284  1.0000
  C   C65       1.0  0.26546  0.29784  0.91216  1.0000
  H   H49       1.0  0.91102  0.24010  0.85352  1.0000
  H   H50       1.0  0.96907  0.18587  0.60339  1.0000
  C   C66       1.0  0.21131  0.07872  0.00636  1.0000
  H   H51       1.0  0.26143  0.07238  0.62004  1.0000
  H   H52       1.0  0.18271  0.27272  0.98030  1.0000
  C   C67       1.0  0.09125  0.34148  0.66463  1.0000
  C   C68       1.0  0.10862  0.50104  0.71114  1.0000
  S   S10       1.0  0.12168  0.20566  0.74555  1.0000
  C   C69       1.0  0.18058  0.38802  0.72659  1.0000
  H   H53       1.0  0.00722  0.10838  0.90072  1.0000
  H   H54       1.0  0.37126  0.29272  0.56234  1.0000
  Fe  Fe8       1.0  0.08688  0.45482  0.60707  1.0000
  H   H55       1.0  0.09192  0.06636  0.81794  1.0000
  S   S11       1.0  0.36680  0.30101  0.66858  1.0000
  C   C70       1.0  0.21129  0.46532  0.88425  1.0000
  H   H56       1.0  0.14504  0.28545  0.66127  1.0000
  H   H57       1.0  0.02799  0.50837  0.78981  1.0000
  H   H58       1.0  0.19510  0.12747  0.79283  1.0000
  H   H59       1.0  0.99499  0.26640  0.91502  1.0000
  H   H60       1.0  0.25243  0.35340  0.55419  1.0000
  C   C71       1.0  0.35895  0.19589  0.77807  1.0000
  C   C72       1.0  0.26954  0.36974  0.54995  1.0000
  H   H61       1.0  0.97405  0.43327  0.74709  1.0000
  H   H62       1.0  0.33648  0.20559  0.65439  1.0000
  C   C73       1.0  0.33193  0.15054  0.55004  1.0000
  C   C74       1.0  0.97895  0.49453  0.62158  1.0000
  H   H63       1.0  0.05924  0.36423  0.76864  1.0000
  C   C75       1.0  0.15701  0.12057  0.53286  1.0000
  S   S12       1.0  0.35315  0.09115  0.77561  1.0000
  H   H64       1.0  0.35641  0.15464  0.77420  1.0000
  C   C76       1.0  0.34343  0.20274  0.68830  1.0000
  H   H65       1.0  0.25489  0.42355  0.69142  1.0000
  H   H66       1.0  0.15815  0.20278  0.86463  1.0000
  C   C77       1.0  0.04524  0.27984  0.98675  1.0000
  H   H67       1.0  0.31999  0.04935  0.95174  1.0000
  H   H68       1.0  0.05281  0.09175  0.77701  1.0000
  C   C78       1.0  0.39120  0.11161  0.89300  1.0000
  C   C79       1.0  0.01433  0.42176  0.78159  1.0000
  C   C80       1.0  0.12833  0.09847  0.88592  1.0000
  H   H69       1.0  0.91419  0.38978  0.57784  1.0000
  Fe  Fe9       1.0  0.11082  0.40096  0.57961  1.0000
  C   C81       1.0  0.98039  0.11195  0.90150  1.0000
  H   H70       1.0  0.38221  0.05631  0.93908  1.0000
  H   H71       1.0  0.08390  0.51304  0.54201  1.0000
  H   H72       1.0  0.26168  0.31500  0.88802  1.0000
  C   C82       1.0  0.03755  0.40156  0.78847  1.0000
  H   H73       1.0  0.15165  0.33896  0.89594  1.0000
  C   C83       1.0  0.10628  0.12781  0.82889  1.0000
  H   H74       1.0  0.09475  0.27360  0.55597  1.0000
  C   C84       1.0  0.07752  0.08469  0.75491  1.0000
  H   H75       1.0  0.94184  0.26738  0.77406  1.0000
  H   H76       1.0  0.01066  0.42484  0.00900  1.0000
  S   S13       1.0  0.34690  0.10376  0.91193  1.0000
  H   H77       1.0  0.14924  0.05225  0.76913  1.0000
  C   C85       1.0  0.97715  0.47258  0.80818  1.0000
  H   H78       1.0  0.10193  0.35979  0.66776  1.0000
  H   H79       1.0  0.28627  0.41411  0.98853  1.0000
  H   H80       1.0  0.39589  0.12228  0.81589  1.0000
  C   C86       1.0  0.98624  0.20620  0.86366  1.0000
  C   C87       1.0  0.07892  0.51331  0.73841  1.0000
  H   H81       1.0  0.10456  0.17673  0.89582  1.0000
  H   H82       1.0  0.19182  0.25055  0.60291  1.0000
  H   H83       1.0  0.18662  0.32246  0.63641  1.0000
  H   H84       1.0  0.23740  0.18162  0.74859  1.0000
  C   C88       1.0  0.01250  0.23951  0.01507  1.0000
  H   H85       1.0  0.95101  0.42197  0.65488  1.0000
  C   C89       1.0  0.94175  0.48768  0.00864  1.0000
  C   C90       1.0  0.30220  0.43953  0.75552  1.0000
  C   C91       1.0  0.17705  0.26574  0.91040  1.0000
  P   P1        1.0  0.18709  0.06236  0.66193  1.0000
  H   H86       1.0  0.23094  0.37230  0.97175  1.0000
  H   H87       1.0  0.94430  0.28528  0.61744  1.0000
  H   H88       1.0  0.08869  0.36189  0.02508  1.0000
  C   C92       1.0  0.27007  0.11062  0.63580  1.0000
  C   C93       1.0  0.92912  0.49919  0.85098  1.0000
  H   H89       1.0  0.39775  0.43729  0.88959  1.0000
  S   S14       1.0  0.29344  0.49484  0.00580  1.0000
  C   C94       1.0  0.99577  0.39622  0.72843  1.0000
  H   H90       1.0  0.33081  0.18317  0.59042  1.0000
  H   H91       1.0  0.16612  0.34840  0.54646  1.0000
  H   H92       1.0  0.93637  0.35238  0.93112  1.0000
  C   C95       1.0  0.95621  0.48150  0.85200  1.0000
  C   C96       1.0  0.34586  0.17748  0.71161  1.0000
  C   C97       1.0  0.94524  0.28707  0.78098  1.0000
  C   C98       1.0  0.21906  0.13372  0.67926  1.0000
  C   C99       1.0  0.00621  0.32958  0.55148  1.0000
  C   C100      1.0  0.95691  0.18249  0.94305  1.0000
  C   C101      1.0  0.01472  0.44256  0.87111  1.0000
  S   S15       1.0  0.11196  0.48800  0.93291  1.0000
  H   H93       1.0  0.18921  0.38448  0.85770  1.0000
  H   H94       1.0  0.90420  0.39968  0.92064  1.0000
  H   H95       1.0  0.30285  0.23781  0.90600  1.0000
  C   C102      1.0  0.97180  0.11610  0.85733  1.0000
  C   C103      1.0  0.16807  0.30773  0.94160  1.0000
  S   S16       1.0  0.20449  0.19780  0.64151  1.0000
  H   H96       1.0  0.26813  0.43118  0.58124  1.0000
  H   H97       1.0  0.93129  0.12493  0.82343  1.0000
  Fe  Fe10      1.0  0.08668  0.17298  0.74800  1.0000
  H   H98       1.0  0.35569  0.21980  0.01070  1.0000
  H   H99       1.0  0.21212  0.06006  0.74799  1.0000
  C   C104      1.0  0.20908  0.23603  0.80540  1.0000
  C   C105      1.0  0.13292  0.23779  0.84051  1.0000
  S   S17       1.0  0.11093  0.22924  0.63864  1.0000
  H   H100      1.0  0.19818  0.49106  0.66999  1.0000
  C   C106      1.0  0.94138  0.21618  0.64549  1.0000
  H   H101      1.0  0.17993  0.18948  0.56441  1.0000
  S   S18       1.0  0.33490  0.15035  0.68802  1.0000
  H   H102      1.0  0.12857  0.08846  0.63584  1.0000
  S   S19       1.0  0.19640  0.08952  0.87763  1.0000
  C   C107      1.0  0.22689  0.22717  0.63442  1.0000
  C   C108      1.0  0.07273  0.29699  0.69923  1.0000
  S   S20       1.0  0.04687  0.19988  0.72874  1.0000
  P   P2        1.0  0.17179  0.25740  0.81837  1.0000
  S   S21       1.0  0.09769  0.41802  0.65145  1.0000
  H   H103      1.0  0.08861  0.42015  0.87943  1.0000
  C   C109      1.0  0.31690  0.20558  0.98188  1.0000
  C   C110      1.0  0.20752  0.49664  0.75865  1.0000
  H   H104      1.0  0.97897  0.25841  0.69604  1.0000
  H   H105      1.0  0.34005  0.41593  0.70849  1.0000
  C   C111      1.0  0.95892  0.44217  0.64531  1.0000
  C   C112      1.0  0.35035  0.20714  0.98665  1.0000
  C   C113      1.0  0.98192  0.28513  0.91510  1.0000
  H   H106      1.0  0.96124  0.47543  0.88683  1.0000
  H   H107      1.0  0.03108  0.23419  0.65475  1.0000
  C   C114      1.0  0.00606  0.22871  0.65295  1.0000
  C   C115      1.0  0.96820  0.22886  0.87855  1.0000
  H   H108      1.0  0.05415  0.40337  0.81139  1.0000
  C   C116      1.0  0.13399  0.21179  0.86203  1.0000
  C   C117      1.0  0.25682  0.36917  0.94775  1.0000
  H   H109      1.0  0.98694  0.31508  0.62895  1.0000
  C   C118      1.0  0.08790  0.09084  0.70361  1.0000
  C   C119      1.0  0.24925  0.08973  0.63537  1.0000
  C   C120      1.0  0.23666  0.40813  0.71032  1.0000
  C   C121      1.0  0.07046  0.23411  0.85819  1.0000
  C   C122      1.0  0.26414  0.37356  0.89640  1.0000
  H   H110      1.0  0.07107  0.10259  0.68600  1.0000
  H   H111      1.0  0.00220  0.24736  0.53305  1.0000
  H   H112      1.0  0.18941  0.21360  0.76058  1.0000
  C   C123      1.0  0.01218  0.42946  0.97040  1.0000
  H   H113      1.0  0.39277  0.31246  0.01307  1.0000
  C   C124      1.0  0.29796  0.37016  0.86612  1.0000
  H   H114      1.0  0.06476  0.31128  0.58373  1.0000
  C   C125      1.0  0.31724  0.35780  0.93877  1.0000
  H   H115      1.0  0.21078  0.45603  0.74629  1.0000
  C   C126      1.0  0.95970  0.29467  0.53844  1.0000
  C   C127      1.0  0.27783  0.24973  0.63715  1.0000
  C   C128      1.0  0.31402  0.41149  0.54015  1.0000
  H   H116      1.0  0.26681  0.20907  0.66360  1.0000
  C   C129      1.0  0.31098  0.18852  0.95078  1.0000
  C   C130      1.0  0.28876  0.52759  0.76730  1.0000
  C   C131      1.0  0.20422  0.40802  0.70219  1.0000
  C   C132      1.0  0.13747  0.48582  0.80944  1.0000
  S   S22       1.0  0.40062  0.36972  0.68521  1.0000
  S   S23       1.0  0.35678  0.24825  0.78619  1.0000
  C   C133      1.0  0.21144  0.51339  0.59884  1.0000
  C   C134      1.0  0.21303  0.09087  0.65647  1.0000
  C   C135      1.0  0.07060  0.31394  0.61719  1.0000
  H   H117      1.0  0.16106  0.45069  0.89124  1.0000
  C   C136      1.0  0.19809  0.11306  0.67859  1.0000
  H   H118      1.0  0.22456  0.44778  0.87126  1.0000
  H   H119      1.0  0.19846  0.43009  0.96442  1.0000
  H   H120      1.0  0.05564  0.27492  0.65216  1.0000
  H   H121      1.0  0.92404  0.46247  0.96643  1.0000
  C   C137      1.0  0.97123  0.20200  0.62280  1.0000
  C   C138      1.0  0.25794  0.22694  0.64685  1.0000
  H   H122      1.0  0.98922  0.47784  0.72864  1.0000
  H   H123      1.0  0.98648  0.51488  0.61352  1.0000
  S   S24       1.0  0.29365  0.30052  0.59742  1.0000
  H   H124      1.0  0.95192  0.35220  0.69437  1.0000
  Fe  Fe11      1.0  0.07538  0.19506  0.64994  1.0000
  S   S25       1.0  0.07044  0.14146  0.81184  1.0000
  C   C139      1.0  0.25198  0.29716  0.96342  1.0000
  C   C140      1.0  0.16985  0.27692  0.86707  1.0000
  H   H125      1.0  0.29508  0.50803  0.78066  1.0000
  C   C141      1.0  0.13231  0.06243  0.74994  1.0000
  P   P3        1.0  0.13111  0.40645  0.02593  1.0000
  C   C142      1.0  0.23470  0.53084  0.56473  1.0000
  C   C143      1.0  0.08516  0.32115  0.70397  1.0000
  P   P4        1.0  0.28144  0.22495  0.01532  1.0000
  H   H126      1.0  0.28601  0.22342  0.83039  1.0000
  H   H127      1.0  0.14067  0.40011  0.82517  1.0000
  H   H128      1.0  0.20749  0.15039  0.69774  1.0000
  C   C144      1.0  0.15638  0.27325  0.72959  1.0000
  P   P5        1.0  0.25015  0.50467  0.71688  1.0000
  H   H129      1.0  0.27675  0.35837  0.00853  1.0000
  H   H130      1.0  0.04737  0.47455  0.87195  1.0000
  H   H131      1.0  0.91635  0.21098  0.64312  1.0000
  C   C145      1.0  0.28315  0.36115  0.96878  1.0000
  H   H132      1.0  0.18984  0.50622  0.58933  1.0000
  H   H133      1.0  0.98073  0.40929  0.88377  1.0000
  H   H134      1.0  0.13018  0.51241  0.68660  1.0000
  H   H135      1.0  0.00506  0.20674  0.82747  1.0000
  H   H136      1.0  0.09916  0.26938  0.82580  1.0000
  C   C146      1.0  0.19444  0.47137  0.76363  1.0000
  C   C147      1.0  0.00312  0.47532  0.62874  1.0000
  H   H137      1.0  0.17047  0.11437  0.69685  1.0000
  C   C148      1.0  0.94912  0.33375  0.92460  1.0000
  H   H138      1.0  0.15542  0.38792  0.72046  1.0000
  C   C149      1.0  0.21251  0.50847  0.90805  1.0000
  C   C150      1.0  0.32194  0.44811  0.66632  1.0000
  C   C151      1.0  0.98054  0.31937  0.79719  1.0000
  C   C152      1.0  0.06549  0.29343  0.65577  1.0000
  C   C153      1.0  0.26721  0.53185  0.73657  1.0000
  C   C154      1.0  0.17639  0.28119  0.94741  1.0000
  C   C155      1.0  0.23710  0.19751  0.77002  1.0000
  H   H139      1.0  0.36160  0.06850  0.56477  1.0000
  S   S26       1.0  0.04091  0.18930  0.60327  1.0000
  H   H140      1.0  0.35148  0.14013  0.56399  1.0000
  H   H141      1.0  0.29930  0.48117  0.63384  1.0000
  S   S27       1.0  0.28669  0.28775  0.73636  1.0000
  S   S28       1.0  0.27738  0.08779  0.75544  1.0000
  H   H142      1.0  0.12350  0.08474  0.91918  1.0000
  H   H143      1.0  0.16392  0.13302  0.59844  1.0000
  C   C156      1.0  0.17238  0.52243  0.03088  1.0000
  H   H144      1.0  0.24091  0.45614  0.98429  1.0000
  P   P6        1.0  0.01435  0.45175  0.80829  1.0000
  C   C157      1.0  0.99333  0.44910  0.63939  1.0000
  H   H145      1.0  0.02289  0.35991  0.71393  1.0000
  H   H146      1.0  0.94621  0.50426  0.98023  1.0000
  C   C158      1.0  0.25494  0.13269  0.65750  1.0000
  C   C159      1.0  0.21639  0.50492  0.64460  1.0000
  C   C160      1.0  0.15746  0.48888  0.91422  1.0000
  C   C161      1.0  0.36211  0.30443  0.91700  1.0000
  C   C162      1.0  0.00162  0.30769  0.90838  1.0000
  C   C163      1.0  0.26762  0.27246  0.61280  1.0000
  C   C164      1.0  0.99553  0.42082  0.89941  1.0000
  C   C165      1.0  0.32452  0.36255  0.88713  1.0000
  C   C166      1.0  0.08272  0.45884  0.74653  1.0000
  H   H147      1.0  0.99205  0.11569  0.82245  1.0000
  C   C167      1.0  0.05086  0.49835  0.76937  1.0000
  H   H148      1.0  0.30294  0.42785  0.78951  1.0000
  H   H149      1.0  0.24380  0.37971  0.87985  1.0000
  S   S29       1.0  0.37241  0.46460  0.02571  1.0000
  Fe  Fe12      1.0  0.28457  0.32767  0.75975  1.0000
  H   H150      1.0  0.21557  0.30189  0.76876  1.0000
  C   C168      1.0  0.97609  0.29400  0.78849  1.0000
  H   H151      1.0  0.39861  0.42207  0.62772  1.0000
  H   H152      1.0  0.95845  0.35758  0.80413  1.0000
  H   H153      1.0  0.36467  0.19316  0.81297  1.0000
  C   C169      1.0  0.97643  0.24257  0.67612  1.0000
  C   C170      1.0  0.37737  0.19175  0.96101  1.0000
  H   H154      1.0  0.33750  0.44286  0.96661  1.0000
  C   C171      1.0  0.11065  0.47387  0.71570  1.0000
  H   H155      1.0  0.16253  0.52788  0.92988  1.0000
  H   H156      1.0  0.20878  0.23170  0.01265  1.0000
  H   H157      1.0  0.35895  0.09589  0.64984  1.0000
  H   H158      1.0  0.09142  0.32376  0.73725  1.0000
  C   C172      1.0  0.22227  0.36847  0.76728  1.0000
  C   C173      1.0  0.03947  0.25414  0.98068  1.0000
  C   C174      1.0  0.07184  0.20811  0.87848  1.0000
  C   C175      1.0  0.27463  0.25311  0.97443  1.0000
  H   H159      1.0  0.00464  0.32460  0.80284  1.0000
  C   C176      1.0  0.10359  0.19695  0.88033  1.0000
  C   C177      1.0  0.16232  0.03518  0.60132  1.0000
  H   H160      1.0  0.08494  0.42414  0.96563  1.0000
  C   C178      1.0  0.32315  0.43293  0.70997  1.0000
  C   C179      1.0  0.20819  0.06613  0.55828  1.0000
  Fe  Fe13      1.0  0.14608  0.20033  0.66617  1.0000
  C   C180      1.0  0.17576  0.27794  0.76075  1.0000
  C   C181      1.0  0.15877  0.31854  0.90005  1.0000
  H   H161      1.0  0.27096  0.14881  0.65857  1.0000
  H   H162      1.0  0.28482  0.18586  0.78519  1.0000
  C   C182      1.0  0.98517  0.31383  0.59223  1.0000
  S   S30       1.0  0.11301  0.16559  0.66999  1.0000
  H   H163      1.0  0.04582  0.24284  0.85699  1.0000
  H   H164      1.0  0.14947  0.44672  0.79095  1.0000
  P   P7        1.0  0.91942  0.25754  0.94383  1.0000
  C   C183      1.0  0.18948  0.36839  0.75977  1.0000
  C   C184      1.0  0.14302  0.06852  0.69828  1.0000
  C   C185      1.0  0.10788  0.41557  0.94252  1.0000
  S   S31       1.0  0.02957  0.32384  0.03221  1.0000
  C   C186      1.0  0.37538  0.27943  0.90848  1.0000
  C   C187      1.0  0.27884  0.47665  0.71385  1.0000
  C   C188      1.0  0.29995  0.46990  0.66816  1.0000
  H   H165      1.0  0.93914  0.28131  0.02025  1.0000
  H   H166      1.0  0.11492  0.46123  0.02090  1.0000
  H   H167      1.0  0.38388  0.03911  0.77323  1.0000
  C   C189      1.0  0.38600  0.37360  0.94099  1.0000
  H   H168      1.0  0.35266  0.40354  0.91812  1.0000
  C   C190      1.0  0.38696  0.09401  0.64076  1.0000
  S   S32       1.0  0.04441  0.48453  0.62874  1.0000
  Fe  Fe14      1.0  0.15364  0.43072  0.62503  1.0000
  C   C191      1.0  0.26401  0.20003  0.79031  1.0000
  H   H169      1.0  0.99278  0.07709  0.01450  1.0000
  C   C192      1.0  0.02301  0.29137  0.02615  1.0000
  C   C193      1.0  0.37850  0.39856  0.92045  1.0000
  C   C194      1.0  0.18536  0.51632  0.78049  1.0000
  C   C195      1.0  0.16441  0.39520  0.93041  1.0000
  C   C196      1.0  0.94433  0.50020  0.76226  1.0000
  Fe  Fe15      1.0  0.25247  0.09572  0.83362  1.0000
  C   C197      1.0  0.35421  0.17409  0.75614  1.0000
  H   H170      1.0  0.19724  0.08793  0.98170  1.0000
  H   H171      1.0  0.04829  0.19669  0.89354  1.0000
  C   C198      1.0  0.94564  0.28677  0.92508  1.0000
  C   C199      1.0  0.39536  0.26669  0.93683  1.0000
  S   S33       1.0  0.33514  0.32269  0.77704  1.0000
  H   H172      1.0  0.15194  0.31194  0.83127  1.0000
  H   H173      1.0  0.36194  0.39942  0.59100  1.0000
  C   C200      1.0  0.09912  0.23531  0.02676  1.0000
  C   C201      1.0  0.33487  0.04028  0.62421  1.0000
  H   H174      1.0  0.14517  0.14806  0.76732  1.0000
  C   C202      1.0  0.32574  0.43491  0.00470  1.0000
  C   C203      1.0  0.16651  0.39317  0.88136  1.0000
  S   S34       1.0  0.00655  0.20712  0.00727  1.0000
  C   C204      1.0  0.93072  0.36157  0.68277  1.0000
  C   C205      1.0  0.29481  0.18834  0.54774  1.0000
  C   C206      1.0  0.28002  0.46118  0.75740  1.0000
  H   H175      1.0  0.95336  0.16486  0.96895  1.0000
  C   C207      1.0  0.26438  0.22106  0.81632  1.0000
  C   C208      1.0  0.20389  0.31434  0.70101  1.0000
  S   S35       1.0  0.30834  0.34748  0.68312  1.0000
  H   H176      1.0  0.13395  0.46444  0.69526  1.0000
  C   C209      1.0  0.20995  0.21566  0.77694  1.0000
  H   H177      1.0  0.30161  0.24952  0.64712  1.0000
  C   C210      1.0  0.38817  0.30367  0.98319  1.0000
  C   C211      1.0  0.13911  0.40195  0.86305  1.0000
  H   H178      1.0  0.99666  0.27975  0.78719  1.0000
  C   C212      1.0  0.04054  0.37932  0.76433  1.0000
  C   C213      1.0  0.24442  0.51441  0.65691  1.0000
  P   P8        1.0  0.35204  0.34943  0.96581  1.0000
  C   C214      1.0  0.35490  0.22113  0.75585  1.0000
  H   H179      1.0  0.04449  0.46301  0.95968  1.0000
  C   C215      1.0  0.93472  0.46135  0.63836  1.0000
  C   C216      1.0  0.16870  0.12254  0.81463  1.0000
  H   H180      1.0  0.18357  0.24520  0.91521  1.0000
  C   C217      1.0  0.18603  0.05397  0.60285  1.0000
  H   H181      1.0  0.97988  0.39737  0.97050  1.0000
  H   H182      1.0  0.38536  0.05415  0.67483  1.0000
  H   H183      1.0  0.11482  0.24743  0.99465  1.0000
  H   H184      1.0  0.35076  0.36058  0.86306  1.0000
  H   H185      1.0  0.97965  0.39417  0.70505  1.0000
  C   C218      1.0  0.17523  0.46676  0.89627  1.0000
  H   H186      1.0  0.39213  0.16305  0.91016  1.0000
  C   C219      1.0  0.08379  0.33785  0.62125  1.0000
  C   C220      1.0  0.02010  0.37688  0.73354  1.0000
  C   C221      1.0  0.10980  0.41319  0.89361  1.0000
  S   S36       1.0  0.28593  0.06681  0.86371  1.0000
  C   C222      1.0  0.08939  0.21036  0.02202  1.0000
  H   H187      1.0  0.34664  0.31361  0.89453  1.0000
  H   H188      1.0  0.03045  0.27069  0.58014  1.0000
  H   H189      1.0  0.08516  0.43791  0.74881  1.0000
  Fe  Fe16      1.0  0.32328  0.09940  0.85195  1.0000
  H   H190      1.0  0.37000  0.26996  0.87982  1.0000
  C   C223      1.0  0.15933  0.30316  0.86311  1.0000
  S   S37       1.0  0.14146  0.46898  0.58712  1.0000
  C   C224      1.0  0.20712  0.03641  0.69300  1.0000
  H   H191      1.0  0.13824  0.25738  0.73964  1.0000
  C   C225      1.0  0.93851  0.20506  0.95779  1.0000
  Fe  Fe17      1.0  0.33954  0.28439  0.74666  1.0000
  C   C226      1.0  0.05220  0.47092  0.77281  1.0000
  C   C227      1.0  0.94492  0.48750  0.62541  1.0000
  S   S38       1.0  0.23477  0.34361  0.80658  1.0000
  S   S39       1.0  0.06746  0.27111  0.74700  1.0000
  Fe  Fe18      1.0  0.29845  0.50361  0.92550  1.0000
  C   C228      1.0  0.03109  0.45115  0.94255  1.0000
  C   C229      1.0  0.96142  0.29681  0.58577  1.0000
  C   C230      1.0  0.16020  0.28928  0.68498  1.0000
  H   H192      1.0  0.33774  0.44286  0.63097  1.0000
  H   H193      1.0  0.02392  0.34304  0.55748  1.0000
  S   S40       1.0  0.91068  0.41267  0.02647  1.0000
  C   C231      1.0  0.92915  0.46417  0.00084  1.0000
  C   C232      1.0  0.90954  0.38260  0.61654  1.0000
  H   H194      1.0  0.22568  0.14330  0.56046  1.0000
  C   C233      1.0  0.17626  0.13004  0.56023  1.0000
  H   H195      1.0  0.91380  0.17593  0.85009  1.0000
  C   C234      1.0  0.16619  0.30692  0.54347  1.0000
  H   H196      1.0  0.22666  0.52136  0.02522  1.0000
  H   H197      1.0  0.90429  0.44423  0.87708  1.0000
  H   H198      1.0  0.93393  0.16028  0.53997  1.0000
  H   H199      1.0  0.33067  0.42806  0.53595  1.0000
  H   H200      1.0  0.96804  0.44350  0.53974  1.0000
  C   C235      1.0  0.33688  0.34894  0.03212  1.0000
  C   C236      1.0  0.08231  0.26415  0.53412  1.0000
  H   H201      1.0  0.34920  0.11775  0.02859  1.0000
  H   H202      1.0  0.30809  0.08358  0.03107  1.0000
  C   C237      1.0  0.27040  0.26690  0.34213  1.0000
  C   C238      1.0  0.22354  0.31618  0.45954  1.0000
  H   H203      1.0  0.17336  0.04944  0.25571  1.0000
  C   C239      1.0  0.35841  0.43748  0.19399  1.0000
  H   H204      1.0  0.06337  0.23205  0.27451  1.0000
  H   H205      1.0  0.07453  0.34816  0.35318  1.0000
  H   H206      1.0  0.38338  0.47711  0.22152  1.0000
  C   C240      1.0  0.29364  0.23499  0.43964  1.0000
  C   C241      1.0  0.07619  0.15580  0.37900  1.0000
  H   H207      1.0  0.18836  0.23719  0.39945  1.0000
  H   H208      1.0  0.31399  0.26427  0.17317  1.0000
  H   H209      1.0  0.91558  0.21362  0.28168  1.0000
  H   H210      1.0  0.19589  0.30181  0.29953  1.0000
  H   H211      1.0  0.13303  0.51307  0.46539  1.0000
  C   C242      1.0  0.97370  0.13284  0.37678  1.0000
  C   C243      1.0  0.09347  0.37295  0.42021  1.0000
  C   C244      1.0  0.01097  0.38355  0.47438  1.0000
  H   H212      1.0  0.99350  0.13622  0.34126  1.0000
  C   C245      1.0  0.39996  0.40171  0.51842  1.0000
  H   H213      1.0  0.23990  0.45079  0.16263  1.0000
  C   C246      1.0  0.37351  0.22490  0.15196  1.0000
  C   C247      1.0  0.33874  0.44168  0.04151  1.0000
  S   S41       1.0  0.17352  0.12031  0.30331  1.0000
  Fe  Fe19      1.0  0.15233  0.44879  0.52006  1.0000
  H   H214      1.0  0.04156  0.18648  0.36503  1.0000
  H   H215      1.0  0.08169  0.39086  0.40836  1.0000
  C   C248      1.0  0.94142  0.17985  0.52225  1.0000
  C   C249      1.0  0.30488  0.36778  0.52434  1.0000
  H   H216      1.0  0.39415  0.38656  0.31076  1.0000
  H   H217      1.0  0.32990  0.53351  0.35211  1.0000
  H   H218      1.0  0.23309  0.20711  0.34717  1.0000
  C   C250      1.0  0.03017  0.24927  0.52053  1.0000
  S   S42       1.0  0.22435  0.07201  0.36549  1.0000
  C   C251      1.0  0.27833  0.16517  0.40780  1.0000
  H   H219      1.0  0.33334  0.04148  0.25640  1.0000
  C   C252      1.0  0.16098  0.36188  0.06312  1.0000
  C   C253      1.0  0.38352  0.38622  0.38890  1.0000
  C   C254      1.0  0.18233  0.28610  0.51821  1.0000
  C   C255      1.0  0.26892  0.48820  0.48595  1.0000
  C   C256      1.0  0.98454  0.24803  0.20315  1.0000
  H   H220      1.0  0.97179  0.07629  0.25597  1.0000
  H   H221      1.0  0.93623  0.30822  0.28236  1.0000
  C   C257      1.0  0.02422  0.27419  0.30634  1.0000
  C   C258      1.0  0.22018  0.48677  0.45281  1.0000
  C   C259      1.0  0.08275  0.46594  0.17124  1.0000
  C   C260      1.0  0.27922  0.42964  0.42070  1.0000
  S   S43       1.0  0.24267  0.10059  0.22165  1.0000
  C   C261      1.0  0.09941  0.51125  0.16057  1.0000
  Fe  Fe20      1.0  0.17594  0.33146  0.21876  1.0000
  C   C262      1.0  0.31696  0.19123  0.33746  1.0000
  H   H222      1.0  0.22425  0.06854  0.47844  1.0000
  S   S44       1.0  0.18319  0.47133  0.44884  1.0000
  C   C263      1.0  0.30890  0.06455  0.45463  1.0000
  C   C264      1.0  0.32774  0.38816  0.52130  1.0000
  H   H223      1.0  0.31378  0.18184  0.23034  1.0000
  S   S45       1.0  0.31680  0.52816  0.45893  1.0000
  H   H224      1.0  0.35653  0.08519  0.17080  1.0000
  Fe  Fe21      1.0  0.26382  0.14105  0.21292  1.0000
  H   H225      1.0  0.34885  0.37911  0.12482  1.0000
  C   C265      1.0  0.94246  0.21909  0.26327  1.0000
  H   H226      1.0  0.96899  0.45533  0.34318  1.0000
  C   C266      1.0  0.09308  0.15577  0.45321  1.0000
  P   P9        1.0  0.02660  0.35239  0.45354  1.0000
  C   C267      1.0  0.27253  0.35400  0.33487  1.0000
  S   S46       1.0  0.17150  0.29308  0.19335  1.0000
  H   H227      1.0  0.02789  0.41561  0.33079  1.0000
  H   H228      1.0  0.97936  0.30761  0.46148  1.0000
  C   C268      1.0  0.11334  0.32772  0.05118  1.0000
  C   C269      1.0  0.05168  0.27679  0.32570  1.0000
  S   S47       1.0  0.39461  0.25434  0.15016  1.0000
  C   C270      1.0  0.27493  0.22700  0.11538  1.0000
  C   C271      1.0  0.94090  0.48312  0.22808  1.0000
  H   H229      1.0  0.23049  0.41189  0.46398  1.0000
  C   C272      1.0  0.32301  0.06296  0.40408  1.0000
  H   H230      1.0  0.97194  0.05132  0.09596  1.0000
  H   H231      1.0  0.13721  0.30862  0.45769  1.0000
  H   H232      1.0  0.08983  0.44238  0.37172  1.0000
  C   C273      1.0  0.21608  0.04441  0.19090  1.0000
  H   H233      1.0  0.17343  0.34706  0.41303  1.0000
  H   H234      1.0  0.14530  0.45696  0.23014  1.0000
  C   C274      1.0  0.16880  0.49243  0.32725  1.0000
  C   C275      1.0  0.10434  0.48655  0.14444  1.0000
  C   C276      1.0  0.34130  0.52123  0.32336  1.0000
  H   H235      1.0  0.21719  0.35664  0.47184  1.0000
  H   H236      1.0  0.33450  0.16303  0.38666  1.0000
  C   C277      1.0  0.23179  0.51003  0.42221  1.0000
  C   C278      1.0  0.31687  0.34532  0.13561  1.0000
  H   H237      1.0  0.05373  0.45032  0.45566  1.0000
  C   C279      1.0  0.31274  0.03734  0.29071  1.0000
  H   H238      1.0  0.13050  0.25511  0.48188  1.0000
  C   C280      1.0  0.24971  0.17808  0.39690  1.0000
  C   C281      1.0  0.98122  0.30998  0.49747  1.0000
  C   C282      1.0  0.05849  0.08945  0.05977  1.0000
  H   H239      1.0  0.23255  0.49872  0.14523  1.0000
  C   C283      1.0  0.06608  0.05847  0.25635  1.0000
  C   C284      1.0  0.33750  0.40684  0.26787  1.0000
  H   H240      1.0  0.14557  0.38816  0.38980  1.0000
  H   H241      1.0  0.14307  0.17678  0.51613  1.0000
  C   C285      1.0  0.33525  0.18058  0.15216  1.0000
  C   C286      1.0  0.20724  0.23497  0.46341  1.0000
  C   C287      1.0  0.18421  0.44300  0.09955  1.0000
  H   H242      1.0  0.18062  0.37460  0.06612  1.0000
  H   H243      1.0  0.06224  0.07467  0.13128  1.0000
  C   C288      1.0  0.09505  0.14477  0.41035  1.0000
  C   C289      1.0  0.11913  0.11940  0.18743  1.0000
  S   S48       1.0  0.95719  0.32742  0.16374  1.0000
  C   C290      1.0  0.32015  0.32319  0.31069  1.0000
  C   C291      1.0  0.32175  0.06535  0.14300  1.0000
  C   C292      1.0  0.33802  0.43231  0.24345  1.0000
  C   C293      1.0  0.27991  0.40971  0.06668  1.0000
  H   H244      1.0  0.28106  0.33220  0.27305  1.0000
  C   C294      1.0  0.15983  0.45248  0.29713  1.0000
  H   H245      1.0  0.32270  0.35011  0.41199  1.0000
  H   H246      1.0  0.10647  0.31637  0.21613  1.0000
  H   H247      1.0  0.09275  0.05430  0.25563  1.0000
  C   C295      1.0  0.37898  0.39276  0.19483  1.0000
  H   H248      1.0  0.95228  0.52952  0.31041  1.0000
  C   C296      1.0  0.11157  0.20365  0.17485  1.0000
  H   H249      1.0  0.03852  0.33298  0.12638  1.0000
  C   C297      1.0  0.28502  0.05498  0.30344  1.0000
  C   C298      1.0  0.10256  0.25346  0.49245  1.0000
  C   C299      1.0  0.25082  0.46396  0.18058  1.0000
  C   C300      1.0  0.31351  0.32958  0.06101  1.0000
  H   H250      1.0  0.02174  0.28754  0.27507  1.0000
  P   P10       1.0  0.31125  0.45787  0.27378  1.0000
  C   C301      1.0  0.30703  0.25709  0.14348  1.0000
  C   C302      1.0  0.12793  0.18736  0.24779  1.0000
  C   C303      1.0  0.28471  0.47093  0.23523  1.0000
  C   C304      1.0  0.97659  0.18609  0.50032  1.0000
  C   C305      1.0  0.38444  0.42825  0.41747  1.0000
  H   H251      1.0  0.22339  0.17342  0.41921  1.0000
  H   H252      1.0  0.15799  0.43138  0.30231  1.0000
  H   H253      1.0  0.28249  0.22096  0.42388  1.0000
  H   H254      1.0  0.00062  0.47793  0.46612  1.0000
  C   C306      1.0  0.04800  0.29222  0.14572  1.0000
  C   C307      1.0  0.18209  0.19990  0.52832  1.0000
  C   C308      1.0  0.95357  0.04097  0.20401  1.0000
  H   H255      1.0  0.33400  0.30938  0.28625  1.0000
  H   H256      1.0  0.92047  0.43552  0.32592  1.0000
  S   S49       1.0  0.99228  0.14319  0.09566  1.0000
  C   C309      1.0  0.97939  0.48451  0.27867  1.0000
  S   S50       1.0  0.92327  0.13864  0.19299  1.0000
  H   H257      1.0  0.11587  0.52729  0.13923  1.0000
  C   C310      1.0  0.20759  0.33692  0.48507  1.0000
  C   C311      1.0  0.15321  0.49426  0.25148  1.0000
  H   H258      1.0  0.05087  0.12837  0.13981  1.0000
  Fe  Fe22      1.0  0.22559  0.10361  0.30316  1.0000
  S   S51       1.0  0.95646  0.38692  0.23691  1.0000
  H   H259      1.0  0.29231  0.21761  0.29340  1.0000
  C   C312      1.0  0.98630  0.21167  0.47844  1.0000
  C   C313      1.0  0.16143  0.50728  0.28676  1.0000
  H   H260      1.0  0.91232  0.23306  0.37471  1.0000
  C   C314      1.0  0.98074  0.34179  0.34716  1.0000
  H   H261      1.0  0.18503  0.32747  0.09015  1.0000
  H   H262      1.0  0.27305  0.43301  0.21944  1.0000
  C   C315      1.0  0.15341  0.26435  0.28491  1.0000
  H   H263      1.0  0.30515  0.12403  0.35880  1.0000
  H   H264      1.0  0.39750  0.16209  0.19052  1.0000
  C   C316      1.0  0.33148  0.19092  0.19631  1.0000
  C   C317      1.0  0.07281  0.35114  0.44469  1.0000
  H   H265      1.0  0.97251  0.40652  0.31616  1.0000
  H   H266      1.0  0.99602  0.17104  0.50084  1.0000
  C   C318      1.0  0.31201  0.17243  0.37853  1.0000
  C   C319      1.0  0.35087  0.21296  0.19619  1.0000
  C   C320      1.0  0.33200  0.32837  0.34988  1.0000
  P   P11       1.0  0.05691  0.23926  0.17465  1.0000
  H   H267      1.0  0.05564  0.14088  0.28277  1.0000
  C   C321      1.0  0.91592  0.19896  0.52178  1.0000
  C   C322      1.0  0.31418  0.34636  0.38113  1.0000
  C   C323      1.0  0.02823  0.40816  0.29700  1.0000
  C   C324      1.0  0.29336  0.11000  0.43723  1.0000
  S   S52       1.0  0.36958  0.31364  0.36024  1.0000
  H   H268      1.0  0.28990  0.42786  0.45144  1.0000
  C   C325      1.0  0.12963  0.37146  0.40928  1.0000
  H   H269      1.0  0.92576  0.42826  0.11061  1.0000
  H   H270      1.0  0.33448  0.04487  0.39100  1.0000
  H   H271      1.0  0.08613  0.44680  0.15873  1.0000
  Fe  Fe23      1.0  0.97451  0.18391  0.07688  1.0000
  C   C326      1.0  0.09200  0.42378  0.05500  1.0000
  C   C327      1.0  0.04275  0.34187  0.30843  1.0000
  C   C328      1.0  0.02784  0.48170  0.34038  1.0000
  C   C329      1.0  0.32206  0.08472  0.37005  1.0000
  H   H272      1.0  0.34757  0.22119  0.22996  1.0000
  C   C330      1.0  0.05999  0.39274  0.21946  1.0000
  Fe  Fe24      1.0  0.19974  0.15905  0.28993  1.0000
  C   C331      1.0  0.01201  0.23165  0.20977  1.0000
  C   C332      1.0  0.06821  0.13515  0.24665  1.0000
  C   C333      1.0  0.23994  0.27377  0.37772  1.0000
  H   H273      1.0  0.31425  0.35007  0.50800  1.0000
  H   H274      1.0  0.33289  0.08353  0.33075  1.0000
  H   H275      1.0  0.94592  0.46999  0.12541  1.0000
  C   C334      1.0  0.16141  0.19264  0.50105  1.0000
  H   H276      1.0  0.91108  0.18619  0.36764  1.0000
  C   C335      1.0  0.21321  0.28671  0.36190  1.0000
  H   H277      1.0  0.31390  0.05167  0.17611  1.0000
  H   H278      1.0  0.32730  0.12077  0.50692  1.0000
  C   C336      1.0  0.16815  0.46520  0.33216  1.0000
  H   H279      1.0  0.33501  0.28544  0.49418  1.0000
  H   H280      1.0  0.97936  0.25180  0.31121  1.0000
  P   P12       1.0  0.03076  0.21972  0.44456  1.0000
  C   C337      1.0  0.04536  0.07401  0.29048  1.0000
  Fe  Fe25      1.0  0.93625  0.13304  0.11284  1.0000
  C   C338      1.0  0.38891  0.10274  0.41787  1.0000
  H   H281      1.0  0.14610  0.50495  0.22091  1.0000
  C   C339      1.0  0.08876  0.32791  0.45810  1.0000
  H   H282      1.0  0.10232  0.50828  0.35959  1.0000
  C   C340      1.0  0.94146  0.46844  0.09058  1.0000
  C   C341      1.0  0.39169  0.44042  0.36884  1.0000
  C   C342      1.0  0.08675  0.24030  0.46520  1.0000
  H   H283      1.0  0.92114  0.05489  0.34052  1.0000
  H   H284      1.0  0.05625  0.51674  0.43434  1.0000
  Fe  Fe26      1.0  0.21081  0.36546  0.26933  1.0000
  C   C343      1.0  0.05989  0.40289  0.26258  1.0000
  C   C344      1.0  0.04637  0.45894  0.42362  1.0000
  C   C345      1.0  0.23184  0.42306  0.38828  1.0000
  C   C346      1.0  0.24574  0.42064  0.42782  1.0000
  C   C347      1.0  0.36578  0.51202  0.10797  1.0000
  H   H285      1.0  0.39482  0.22343  0.07372  1.0000
  S   S53       1.0  0.15968  0.36600  0.17535  1.0000
  H   H286      1.0  0.38170  0.44011  0.44704  1.0000
  H   H287      1.0  0.07180  0.18641  0.49751  1.0000
  C   C348      1.0  0.10379  0.20404  0.27497  1.0000
  P   P13       1.0  0.01699  0.49838  0.28736  1.0000
  H   H288      1.0  0.27975  0.40959  0.14197  1.0000
  C   C349      1.0  0.25495  0.19724  0.35606  1.0000
  H   H289      1.0  0.34294  0.19612  0.31440  1.0000
  C   C350      1.0  0.17885  0.33229  0.52701  1.0000
  P   P14       1.0  0.27306  0.13987  0.45913  1.0000
  C   C351      1.0  0.20511  0.22084  0.50949  1.0000
  C   C352      1.0  0.06441  0.27381  0.17202  1.0000
  H   H290      1.0  0.28460  0.07276  0.27913  1.0000
  H   H291      1.0  0.14212  0.29713  0.08091  1.0000
  C   C353      1.0  0.34221  0.24896  0.46316  1.0000
  C   C354      1.0  0.32354  0.27122  0.47903  1.0000
  H   H292      1.0  0.93643  0.53013  0.49949  1.0000
  C   C355      1.0  0.18555  0.17111  0.07339  1.0000
  C   C356      1.0  0.05543  0.19016  0.43136  1.0000
  S   S54       1.0  0.17244  0.19028  0.33599  1.0000
  C   C357      1.0  0.00383  0.23639  0.36637  1.0000
  C   C358      1.0  0.28014  0.49800  0.22540  1.0000
  H   H293      1.0  0.34174  0.21355  0.43088  1.0000
  H   H294      1.0  0.14856  0.19994  0.43310  1.0000
  H   H295      1.0  0.06886  0.03646  0.19663  1.0000
  C   C359      1.0  0.13999  0.31792  0.07038  1.0000
  C   C360      1.0  0.27511  0.25773  0.45399  1.0000
  H   H296      1.0  0.11136  0.12781  0.40123  1.0000
  C   C361      1.0  0.10304  0.12714  0.23400  1.0000
  C   C362      1.0  0.92567  0.22445  0.50031  1.0000
  H   H297      1.0  0.07446  0.46263  0.29879  1.0000
  C   C363      1.0  0.01647  0.47443  0.42948  1.0000
  C   C364      1.0  0.39712  0.07715  0.43327  1.0000
  H   H298      1.0  0.36837  0.24601  0.46560  1.0000
  H   H299      1.0  0.96364  0.18434  0.29403  1.0000
  Fe  Fe27      1.0  0.39455  0.28212  0.31427  1.0000
  C   C365      1.0  0.08591  0.28275  0.19702  1.0000
  C   C366      1.0  0.90899  0.31021  0.30245  1.0000
  H   H300      1.0  0.16890  0.50169  0.04256  1.0000
  H   H301      1.0  0.37439  0.11806  0.09775  1.0000
  S   S55       1.0  0.96458  0.19394  0.15354  1.0000
  C   C367      1.0  0.09900  0.52797  0.36921  1.0000
  H   H302      1.0  0.25805  0.52879  0.18551  1.0000
  C   C368      1.0  0.05599  0.20472  0.10856  1.0000
  C   C369      1.0  0.19825  0.04001  0.24140  1.0000
  H   H303      1.0  0.23650  0.09055  0.10468  1.0000
  C   C370      1.0  0.17300  0.11700  0.48344  1.0000
  C   C371      1.0  0.99096  0.25078  0.05542  1.0000
  C   C372      1.0  0.30668  0.10796  0.38637  1.0000
  C   C373      1.0  0.34950  0.36687  0.05557  1.0000
  C   C374      1.0  0.31837  0.08342  0.06200  1.0000
  C   C375      1.0  0.06214  0.46557  0.06490  1.0000
  H   H304      1.0  0.11278  0.11403  0.11717  1.0000
  H   H305      1.0  0.22303  0.52348  0.30323  1.0000
  H   H306      1.0  0.92898  0.25402  0.22307  1.0000
  C   C376      1.0  0.29174  0.15282  0.50118  1.0000
  C   C377      1.0  0.14536  0.34821  0.42246  1.0000
  H   H307      1.0  0.28311  0.47976  0.51084  1.0000
  C   C378      1.0  0.21657  0.29195  0.31152  1.0000
  C   C379      1.0  0.98241  0.39625  0.46303  1.0000
  C   C380      1.0  0.01135  0.08012  0.29028  1.0000
  H   H308      1.0  0.23998  0.43596  0.31155  1.0000
  H   H309      1.0  0.33098  0.43881  0.11955  1.0000
  H   H310      1.0  0.98906  0.26508  0.17625  1.0000
  C   C381      1.0  0.93004  0.44477  0.08215  1.0000
  C   C382      1.0  0.17354  0.26594  0.23534  1.0000
  Fe  Fe28      1.0  0.91026  0.17976  0.16853  1.0000
  C   C383      1.0  0.35644  0.10290  0.09870  1.0000
  H   H311      1.0  0.09571  0.26416  0.07542  1.0000
  C   C384      1.0  0.99798  0.07081  0.25596  1.0000
  C   C385      1.0  0.90286  0.26706  0.08921  1.0000
  H   H312      1.0  0.99541  0.09255  0.31592  1.0000
  H   H313      1.0  0.96748  0.25087  0.46361  1.0000
  H   H314      1.0  0.17302  0.45396  0.36411  1.0000
  H   H315      1.0  0.16314  0.15833  0.08750  1.0000
  H   H316      1.0  0.21413  0.20729  0.23725  1.0000
  H   H317      1.0  0.05594  0.08183  0.31628  1.0000
  H   H318      1.0  0.10278  0.23156  0.43368  1.0000
  H   H319      1.0  0.20412  0.05696  0.16728  1.0000
  C   C386      1.0  0.20715  0.05918  0.51299  1.0000
  H   H320      1.0  0.18957  0.29244  0.38842  1.0000
  C   C387      1.0  0.32409  0.26669  0.09458  1.0000
  C   C388      1.0  0.13003  0.52892  0.48771  1.0000
  C   C389      1.0  0.05116  0.31892  0.14701  1.0000
  H   H321      1.0  0.22027  0.11988  0.42307  1.0000
  H   H322      1.0  0.13671  0.28046  0.29814  1.0000
  C   C390      1.0  0.28462  0.44433  0.33438  1.0000
  Fe  Fe29      1.0  0.97804  0.15244  0.17375  1.0000
  C   C391      1.0  0.28272  0.23712  0.15386  1.0000
  C   C392      1.0  0.16432  0.20591  0.45437  1.0000
  C   C393      1.0  0.29037  0.33614  0.30307  1.0000
  H   H323      1.0  0.40081  0.43481  0.29255  1.0000
  C   C394      1.0  0.39418  0.12327  0.44208  1.0000
  C   C395      1.0  0.27351  0.27201  0.29176  1.0000
  H   H324      1.0  0.02414  0.19512  0.24803  1.0000
  H   H325      1.0  0.02809  0.37878  0.17912  1.0000
  C   C396      1.0  0.95738  0.12003  0.46502  1.0000
  H   H326      1.0  0.00497  0.33683  0.27089  1.0000
  C   C397      1.0  0.31778  0.13952  0.51811  1.0000
  C   C398      1.0  0.06684  0.45460  0.37636  1.0000
  C   C399      1.0  0.05782  0.46609  0.33486  1.0000
  Fe  Fe30      1.0  0.95238  0.37040  0.16973  1.0000
  C   C400      1.0  0.03028  0.23971  0.38782  1.0000
  C   C401      1.0  0.23842  0.47609  0.48544  1.0000
  S   S56       1.0  0.98011  0.38231  0.08962  1.0000
  C   C402      1.0  0.16011  0.42812  0.08837  1.0000
  H   H327      1.0  0.36180  0.18380  0.07443  1.0000
  Fe  Fe31      1.0  0.14584  0.38514  0.24403  1.0000
  C   C403      1.0  0.05045  0.23793  0.47914  1.0000
  H   H328      1.0  0.15106  0.17451  0.17657  1.0000
  H   H329      1.0  0.90317  0.12180  0.50397  1.0000
  H   H330      1.0  0.03917  0.45394  0.23365  1.0000
  H   H331      1.0  0.03337  0.28606  0.12318  1.0000
  C   C404      1.0  0.07227  0.53265  0.41154  1.0000
  S   S57       1.0  0.00512  0.14369  0.23209  1.0000
  C   C405      1.0  0.25119  0.43475  0.34163  1.0000
  C   C406      1.0  0.28485  0.35926  0.37336  1.0000
  H   H332      1.0  0.22081  0.22633  0.53129  1.0000
  H   H333      1.0  0.29713  0.26669  0.26462  1.0000
  C   C407      1.0  0.20819  0.12290  0.46140  1.0000
  C   C408      1.0  0.24835  0.05507  0.06957  1.0000
  H   H334      1.0  0.08445  0.38906  0.19252  1.0000
  H   H335      1.0  0.96467  0.11335  0.49806  1.0000
  H   H336      1.0  0.90850  0.37711  0.37828  1.0000
  C   C409      1.0  0.15422  0.24144  0.31684  1.0000
  C   C410      1.0  0.24658  0.49091  0.17087  1.0000
  C   C411      1.0  0.04682  0.07475  0.10627  1.0000
  H   H337      1.0  0.20604  0.41570  0.39382  1.0000
  H   H338      1.0  0.36645  0.38271  0.03452  1.0000
  H   H339      1.0  0.24848  0.28786  0.23751  1.0000
  S   S58       1.0  0.92047  0.09924  0.08292  1.0000
  C   C412      1.0  0.98593  0.34618  0.39168  1.0000
  C   C413      1.0  0.08736  0.24500  0.07240  1.0000
  C   C414      1.0  0.29857  0.44140  0.37423  1.0000
  C   C415      1.0  0.08590  0.21964  0.20252  1.0000
  S   S59       1.0  0.23061  0.34468  0.20251  1.0000
  H   H340      1.0  0.30928  0.04763  0.48088  1.0000
  H   H341      1.0  0.18087  0.44599  0.13746  1.0000
  P   P15       1.0  0.37379  0.38533  0.49010  1.0000
  H   H342      1.0  0.93220  0.14348  0.34588  1.0000
  H   H343      1.0  0.27672  0.29320  0.48681  1.0000
  P   P16       1.0  0.23343  0.26416  0.44301  1.0000
  H   H344      1.0  0.29195  0.25768  0.35274  1.0000
  C   C416      1.0  0.32229  0.50048  0.31773  1.0000
  H   H345      1.0  0.00956  0.46424  0.11292  1.0000
  H   H346      1.0  0.18254  0.03547  0.47656  1.0000
  H   H347      1.0  0.21949  0.14361  0.09976  1.0000
  C   C417      1.0  0.32211  0.43256  0.09102  1.0000
  H   H348      1.0  0.26057  0.18789  0.50347  1.0000
  P   P17       1.0  0.00050  0.04129  0.17982  1.0000
  C   C418      1.0  0.28051  0.17732  0.51618  1.0000
  H   H349      1.0  0.27071  0.22890  0.19176  1.0000
  C   C419      1.0  0.17532  0.22043  0.29913  1.0000
  S   S60       1.0  0.16258  0.10883  0.17168  1.0000
  H   H350      1.0  0.15835  0.10947  0.46204  1.0000
  C   C420      1.0  0.07231  0.32754  0.17229  1.0000
  C   C421      1.0  0.33700  0.48413  0.28113  1.0000
  H   H351      1.0  0.22943  0.45824  0.50957  1.0000
  S   S61       1.0  0.21427  0.16024  0.20741  1.0000
  H   H352      1.0  0.95474  0.34111  0.34410  1.0000
  C   C422      1.0  0.31565  0.25724  0.05606  1.0000
  S   S62       1.0  0.31123  0.15347  0.14982  1.0000
  H   H353      1.0  0.34439  0.28108  0.08682  1.0000
  C   C423      1.0  0.38920  0.35185  0.49185  1.0000
  C   C424      1.0  0.08960  0.30952  0.19729  1.0000
  S   S63       1.0  0.25100  0.14248  0.29474  1.0000
  C   C425      1.0  0.05590  0.17817  0.38987  1.0000
  S   S64       1.0  0.24273  0.39045  0.08113  1.0000
  C   C426      1.0  0.12495  0.32650  0.44715  1.0000
  H   H354      1.0  0.07804  0.14732  0.34567  1.0000
  C   C427      1.0  0.37737  0.21436  0.10799  1.0000
  H   H355      1.0  0.21770  0.51849  0.39724  1.0000
  C   C428      1.0  0.07321  0.51524  0.20409  1.0000
  C   C429      1.0  0.10036  0.11998  0.15329  1.0000
  H   H356      1.0  0.04680  0.38436  0.51737  1.0000
  C   C430      1.0  0.99681  0.40324  0.28850  1.0000
  H   H357      1.0  0.98393  0.49774  0.39339  1.0000
  C   C431      1.0  0.99583  0.27689  0.06051  1.0000
  C   C432      1.0  0.37907  0.41789  0.16991  1.0000
  S   S65       1.0  0.90782  0.47485  0.50716  1.0000
  S   S66       1.0  0.23411  0.36969  0.32974  1.0000
  H   H358      1.0  0.13778  0.23969  0.35454  1.0000
  H   H359      1.0  0.32431  0.44838  0.36958  1.0000
  C   C433      1.0  0.04809  0.34610  0.35282  1.0000
  H   H360      1.0  0.07076  0.29204  0.30925  1.0000
  C   C434      1.0  0.29018  0.27565  0.47449  1.0000
  S   S67       1.0  0.09873  0.40954  0.27445  1.0000
  C   C435      1.0  0.29427  0.08798  0.47118  1.0000
  H   H361      1.0  0.93308  0.49073  0.19592  1.0000
  C   C436      1.0  0.05252  0.04857  0.22273  1.0000
  H   H362      1.0  0.11730  0.12676  0.26044  1.0000
  S   S68       1.0  0.36771  0.24967  0.29514  1.0000
  C   C437      1.0  0.02460  0.39349  0.50820  1.0000
  C   C438      1.0  0.33966  0.36489  0.10708  1.0000
  C   C439      1.0  0.05619  0.47000  0.21397  1.0000
  C   C440      1.0  0.93874  0.13705  0.37964  1.0000
  H   H363      1.0  0.38001  0.36525  0.39581  1.0000
  H   H364      1.0  0.98262  0.51040  0.21149  1.0000
  C   C441      1.0  0.06214  0.41112  0.08691  1.0000
  H   H365      1.0  0.91083  0.28175  0.36359  1.0000
  C   C442      1.0  0.93397  0.06268  0.19278  1.0000
  C   C443      1.0  0.00398  0.20883  0.24351  1.0000
  C   C444      1.0  0.38102  0.40097  0.42768  1.0000
  C   C445      1.0  0.96135  0.46353  0.31115  1.0000
  C   C446      1.0  0.22763  0.13261  0.48853  1.0000
  Fe  Fe32      1.0  0.21401  0.37986  0.16107  1.0000
  H   H366      1.0  0.10024  0.26933  0.21601  1.0000
  H   H367      1.0  0.39370  0.06177  0.41291  1.0000
  C   C447      1.0  0.07311  0.17823  0.46396  1.0000
  H   H368      1.0  0.28498  0.31312  0.13463  1.0000
  C   C448      1.0  0.18360  0.04042  0.51184  1.0000
  C   C449      1.0  0.00914  0.33938  0.30571  1.0000
  H   H369      1.0  0.07650  0.34815  0.17080  1.0000
  C   C450      1.0  0.95004  0.24184  0.22995  1.0000
  C   C451      1.0  0.04929  0.13541  0.21295  1.0000
  H   H370      1.0  0.00965  0.41654  0.13407  1.0000
  H   H371      1.0  0.39347  0.19108  0.25405  1.0000
  C   C452      1.0  0.06555  0.22980  0.11362  1.0000
  C   C453      1.0  0.00815  0.07622  0.03978  1.0000
  C   C454      1.0  0.18264  0.19601  0.04904  1.0000
  C   C455      1.0  0.40266  0.17135  0.25930  1.0000
  C   C456      1.0  0.21142  0.29059  0.47618  1.0000
  C   C457      1.0  0.18707  0.22704  0.43547  1.0000
  H   H372      1.0  0.24561  0.31989  0.42697  1.0000
  C   C458      1.0  0.15259  0.46697  0.25660  1.0000
  H   H373      1.0  0.14368  0.17462  0.26548  1.0000
  H   H374      1.0  0.06477  0.34141  0.27574  1.0000
  C   C459      1.0  0.35788  0.38720  0.24351  1.0000
  H   H375      1.0  0.30902  0.34408  0.17557  1.0000
  H   H376      1.0  0.17339  0.50187  0.35646  1.0000
  S   S69       1.0  0.15690  0.34914  0.28982  1.0000
  C   C460      1.0  0.26977  0.45397  0.21265  1.0000
  C   C461      1.0  0.00713  0.48569  0.38810  1.0000
  H   H377      1.0  0.29163  0.51166  0.24152  1.0000
  H   H378      1.0  0.04032  0.19224  0.14025  1.0000
  H   H379      1.0  0.39421  0.46149  0.36124  1.0000
  C   C462      1.0  0.01550  0.06075  0.12006  1.0000
  C   C463      1.0  0.00040  0.25394  0.32658  1.0000
  H   H380      1.0  0.96364  0.34789  0.42355  1.0000
  C   C464      1.0  0.30343  0.32788  0.11255  1.0000
  C   C465      1.0  0.19501  0.24521  0.21816  1.0000
  H   H381      1.0  0.13795  0.42003  0.11794  1.0000
  C   C466      1.0  0.96731  0.41790  0.48629  1.0000
  C   C467      1.0  0.37106  0.48911  0.25008  1.0000
  C   C468      1.0  0.96944  0.20265  0.27015  1.0000
  H   H382      1.0  0.94529  0.42751  0.47751  1.0000
  C   C469      1.0  0.91954  0.03460  0.35628  1.0000
  C   C470      1.0  0.13293  0.37206  0.04705  1.0000
  H   H383      1.0  0.21031  0.24649  0.17976  1.0000
  C   C471      1.0  0.09187  0.45110  0.04479  1.0000
  C   C472      1.0  0.32721  0.23076  0.44358  1.0000
  C   C473      1.0  0.25857  0.04992  0.34820  1.0000
  H   H384      1.0  0.97860  0.28577  0.09104  1.0000
  H   H385      1.0  0.35416  0.49297  0.11265  1.0000
  C   C474      1.0  0.29267  0.41655  0.10370  1.0000
  C   C475      1.0  0.92353  0.46183  0.25990  1.0000
  C   C476      1.0  0.03254  0.45298  0.09688  1.0000
  C   C477      1.0  0.16466  0.42357  0.03940  1.0000
  C   C478      1.0  0.06544  0.12817  0.16593  1.0000
  H   H386      1.0  0.38767  0.14308  0.43013  1.0000
  C   C479      1.0  0.16408  0.33500  0.07572  1.0000
  Fe  Fe33      1.0  0.92805  0.38197  0.07698  1.0000
  S   S70       1.0  0.91901  0.17319  0.08965  1.0000
  C   C480      1.0  0.03268  0.42588  0.10838  1.0000
  H   H387      1.0  0.10211  0.20499  0.31312  1.0000
  S   S71       1.0  0.96139  0.51945  0.06548  1.0000
  H   H388      1.0  0.11575  0.20319  0.13591  1.0000
  C   C481      1.0  0.24636  0.28417  0.27648  1.0000
  C   C482      1.0  0.94769  0.48984  0.05374  1.0000
  H   H389      1.0  0.39470  0.37745  0.17617  1.0000
  H   H390      1.0  0.39107  0.20495  0.52390  1.0000
  C   C483      1.0  0.28004  0.51184  0.45599  1.0000
  H   H391      1.0  0.28365  0.08898  0.51040  1.0000
  H   H392      1.0  0.32132  0.40192  0.30556  1.0000
  H   H393      1.0  0.10736  0.14715  0.47786  1.0000
  H   H394      1.0  0.25638  0.21125  0.12463  1.0000
  H   H395      1.0  0.37893  0.10678  0.38651  1.0000
  H   H396      1.0  0.27113  0.37288  0.39819  1.0000
  C   C484      1.0  0.98305  0.12427  0.41940  1.0000
  C   C485      1.0  0.13211  0.18737  0.19765  1.0000
  H   H397      1.0  0.07548  0.26284  0.38142  1.0000
  C   C486      1.0  0.05453  0.25984  0.36654  1.0000
  C   C487      1.0  0.39124  0.39836  0.34036  1.0000
  H   H398      1.0  0.07327  0.31088  0.47638  1.0000
  H   H399      1.0  0.01016  0.12086  0.41703  1.0000
  C   C488      1.0  0.01966  0.34813  0.39519  1.0000
  C   C489      1.0  0.39524  0.42545  0.33023  1.0000
  C   C490      1.0  0.28848  0.20343  0.32586  1.0000
  H   H400      1.0  0.29599  0.49724  0.34194  1.0000
  S   S72       1.0  0.19899  0.40232  0.22624  1.0000
  C   C491      1.0  0.05161  0.49449  0.23139  1.0000
  C   C492      1.0  0.38986  0.51010  0.25552  1.0000
  H   H401      1.0  0.96988  0.23965  0.08184  1.0000
  C   C493      1.0  0.08247  0.21978  0.25271  1.0000
  H   H402      1.0  0.35736  0.36762  0.26259  1.0000
  C   C494      1.0  0.19667  0.22283  0.25040  1.0000
  C   C495      1.0  0.00919  0.41494  0.53169  1.0000
  C   C496      1.0  0.00378  0.32837  0.50383  1.0000
  C   C497      1.0  0.99667  0.39321  0.24542  1.0000
  Fe  Fe34      1.0  0.19217  0.12013  0.22122  1.0000
  C   C498      1.0  0.01825  0.05455  0.22251  1.0000
  C   C499      1.0  0.02830  0.38749  0.21132  1.0000
  H   H403      1.0  0.98525  0.22065  0.38110  1.0000
  C   C500      1.0  0.96889  0.49431  0.23719  1.0000
  C   C501      1.0  0.26090  0.52294  0.42492  1.0000
  C   C502      1.0  0.26103  0.50788  0.19354  1.0000
  C   C503      1.0  0.34619  0.08430  0.14018  1.0000
  H   H404      1.0  0.35789  0.45660  0.17363  1.0000
  C   C504      1.0  0.98022  0.42697  0.52124  1.0000
  H   H405      1.0  0.97128  0.38961  0.43683  1.0000
  H   H406      1.0  0.12452  0.48335  0.11091  1.0000
  Fe  Fe35      1.0  0.98164  0.33966  0.08261  1.0000
  C   C505      1.0  0.37499  0.52613  0.29223  1.0000
  H   H407      1.0  0.94654  0.07975  0.16886  1.0000
  C   C506      1.0  0.30737  0.06483  0.10405  1.0000
  C   C507      1.0  0.96060  0.23091  0.47967  1.0000
  P   P18       1.0  0.27455  0.04112  0.10802  1.0000
  C   C508      1.0  0.99635  0.06158  0.08626  1.0000
  C   C509      1.0  0.35854  0.19212  0.10828  1.0000
  H   H408      1.0  0.06163  0.39010  0.09539  1.0000
  H   H409      1.0  0.06002  0.17588  0.05905  1.0000
  S   S73       1.0  0.93174  0.34005  0.06410  1.0000
  C   C510      1.0  0.29129  0.23710  0.06606  1.0000
  C   C511      1.0  0.21734  0.16274  0.08015  1.0000
  C   C512      1.0  0.10950  0.35469  0.04007  1.0000
  C   C513      1.0  0.06802  0.19504  0.06298  1.0000
  C   C514      1.0  0.34231  0.10263  0.05985  1.0000
  H   H410      1.0  0.23237  0.46424  0.07064  1.0000
  H   H411      1.0  0.91427  0.27786  0.11046  1.0000
  C   C515      1.0  0.24631  0.17910  0.06230  1.0000
  C   C516      1.0  0.00769  0.53158  0.30074  1.0000
  C   C517      1.0  0.21314  0.45333  0.06194  1.0000
  C   C518      1.0  0.93359  0.45223  0.30155  1.0000
  H   H412      1.0  0.27073  0.17231  0.06827  1.0000
  C   C519      1.0  0.23346  0.07997  0.07584  1.0000
  H   H413      1.0  0.06214  0.48655  0.05577  1.0000
  H   H414      1.0  0.90623  0.23948  0.49987  1.0000
  C   C520      1.0  0.92239  0.12476  0.46818  1.0000
  H   H415      1.0  0.39447  0.42211  0.13151  1.0000
  H   H416      1.0  0.15792  0.20247  0.04404  1.0000
  C   C521      1.0  0.21467  0.09156  0.04474  1.0000
  H   H417      1.0  0.08240  0.10049  0.04970  1.0000
  H   H418      1.0  0.09537  0.31440  0.04535  1.0000
  H   H419      1.0  0.20287  0.11060  0.05026  1.0000
  C   C522      1.0  0.24364  0.20413  0.03771  1.0000
  H   H420      1.0  0.24570  0.27468  0.03414  1.0000
  C   C523      1.0  0.10230  0.52895  0.53095  1.0000
  H   H421      1.0  0.31753  0.53252  0.11341  1.0000
  C   C524      1.0  0.91668  0.26904  0.03790  1.0000
  C   C525      1.0  0.40147  0.51438  0.10028  1.0000
  Fe  Fe36      1.0  0.90652  0.33191  0.14608  1.0000
  C   C526      1.0  0.91272  0.13338  0.42549  1.0000
  C   C527      1.0  0.92380  0.44263  0.03734  1.0000
  H   H422      1.0  0.30297  0.31587  0.04364  1.0000
  H   H423      1.0  0.11904  0.52953  0.03405  1.0000
  H   H424      1.0  0.17201  0.26670  0.53191  1.0000
  C   C528      1.0  0.38456  0.30714  0.53220  1.0000
  C   C529      1.0  0.37320  0.33312  0.53160  1.0000
  C   C530      1.0  0.99816  0.60909  0.65193  1.0000
  C   C531      1.0  0.39581  0.74627  0.71292  1.0000
  C   C532      1.0  0.39142  0.60452  0.99908  1.0000
  H   H425      1.0  0.29137  0.53762  0.62910  1.0000
  S   S74       1.0  0.07214  0.61554  0.99102  1.0000
  H   H426      1.0  0.29360  0.59854  0.00946  1.0000
  C   C533      1.0  0.27009  0.79879  0.66516  1.0000
  C   C534      1.0  0.14184  0.70044  0.99425  1.0000
  H   H427      1.0  0.33746  0.62021  0.57276  1.0000
  H   H428      1.0  0.95301  0.83548  0.86582  1.0000
  H   H429      1.0  0.07673  0.54889  0.59350  1.0000
  C   C535      1.0  0.28418  0.67650  0.67535  1.0000
  H   H430      1.0  0.99100  0.66566  0.98933  1.0000
  S   S75       1.0  0.00806  0.81051  0.93047  1.0000
  H   H431      1.0  0.33695  0.74667  0.58467  1.0000
  H   H432      1.0  0.07678  0.67070  0.98897  1.0000
  C   C536      1.0  0.00302  0.74433  0.73169  1.0000
  H   H433      1.0  0.99309  0.60372  0.58087  1.0000
  C   C537      1.0  0.96381  0.57525  0.85180  1.0000
  C   C538      1.0  0.30259  0.54874  0.78115  1.0000
  H   H434      1.0  0.92246  0.69249  0.71564  1.0000
  C   C539      1.0  0.21925  0.67186  0.60862  1.0000
  C   C540      1.0  0.22244  0.89810  0.63098  1.0000
  H   H435      1.0  0.23555  0.81163  0.73156  1.0000
  C   C541      1.0  0.33258  0.01410  0.64455  1.0000
  C   C542      1.0  0.17379  0.62577  0.02666  1.0000
  C   C543      1.0  0.38169  0.74510  0.67402  1.0000
  C   C544      1.0  0.38142  0.77114  0.57504  1.0000
  H   H436      1.0  0.24217  0.56153  0.69781  1.0000
  C   C545      1.0  0.39938  0.02333  0.89817  1.0000
  H   H437      1.0  0.18096  0.85883  0.58040  1.0000
  H   H438      1.0  0.92479  0.64431  0.73222  1.0000
  C   C546      1.0  0.36957  0.58699  0.55188  1.0000
  C   C547      1.0  0.00745  0.89391  0.61723  1.0000
  H   H439      1.0  0.25196  0.80307  0.64387  1.0000
  C   C548      1.0  0.38497  0.82608  0.65269  1.0000
  C   C549      1.0  0.27877  0.72100  0.79436  1.0000
  H   H440      1.0  0.29325  0.86964  0.56143  1.0000
  H   H441      1.0  0.05739  0.61711  0.89748  1.0000
  Fe  Fe37      1.0  0.05883  0.57886  0.96800  1.0000
  H   H442      1.0  0.32764  0.82720  0.91680  1.0000
  H   H443      1.0  0.31281  0.00796  0.67887  1.0000
  C   C550      1.0  0.94697  0.74268  0.68601  1.0000
  C   C551      1.0  0.07062  0.66707  0.95621  1.0000
  C   C552      1.0  0.25908  0.55766  0.72098  1.0000
  H   H444      1.0  0.98167  0.66067  0.91049  1.0000
  H   H445      1.0  0.30100  0.01280  0.91747  1.0000
  H   H446      1.0  0.39428  0.86481  0.66658  1.0000
  C   C553      1.0  0.06988  0.60268  0.60812  1.0000
  H   H447      1.0  0.91457  0.59531  0.97904  1.0000
  C   C554      1.0  0.32721  0.78365  0.66932  1.0000
  C   C555      1.0  0.26356  0.53941  0.57577  1.0000
  H   H448      1.0  0.35920  0.83101  0.65010  1.0000
  C   C556      1.0  0.97961  0.84667  0.78865  1.0000
  C   C557      1.0  0.03594  0.86687  0.96448  1.0000
  H   H449      1.0  0.27485  0.81657  0.98642  1.0000
  H   H450      1.0  0.34202  0.97695  0.54026  1.0000
  S   S76       1.0  0.05462  0.54045  0.01536  1.0000
  C   C558      1.0  0.26318  0.00216  0.53751  1.0000
  C   C559      1.0  0.90688  0.69487  0.96507  1.0000
  C   C560      1.0  0.36701  0.71180  0.87328  1.0000
  H   H451      1.0  0.15768  0.65737  0.93641  1.0000
  C   C561      1.0  0.35605  0.99584  0.62096  1.0000
  C   C562      1.0  0.91068  0.96639  0.68663  1.0000
  Fe  Fe38      1.0  0.29776  0.72119  0.96405  1.0000
  C   C563      1.0  0.19403  0.74783  0.70157  1.0000
  C   C564      1.0  0.30781  0.70479  0.78125  1.0000
  H   H452      1.0  0.91434  0.68481  0.93254  1.0000
  C   C565      1.0  0.33063  0.88345  0.78034  1.0000
  Fe  Fe39      1.0  0.01976  0.80393  0.85154  1.0000
  C   C566      1.0  0.09831  0.54943  0.55984  1.0000
  C   C567      1.0  0.14413  0.80569  0.62664  1.0000
  C   C568      1.0  0.92909  0.74839  0.79383  1.0000
  H   H453      1.0  0.93347  0.78754  0.75533  1.0000
  Fe  Fe40      1.0  0.29387  0.53788  0.00818  1.0000
  H   H454      1.0  0.06358  0.86445  0.94703  1.0000
  C   C569      1.0  0.30718  0.65621  0.68126  1.0000
  S   S77       1.0  0.99014  0.76635  0.86936  1.0000
  S   S78       1.0  0.32170  0.71114  0.88717  1.0000
  C   C570      1.0  0.09186  0.80739  0.60062  1.0000
  C   C571      1.0  0.18144  0.71705  0.89710  1.0000
  C   C572      1.0  0.11846  0.78813  0.98606  1.0000
  H   H455      1.0  0.29783  0.66059  0.93599  1.0000
  H   H456      1.0  0.39342  0.58376  0.99663  1.0000
  C   C573      1.0  0.29014  0.60735  0.88193  1.0000
  H   H457      1.0  0.05030  0.79388  0.74745  1.0000
  C   C574      1.0  0.90767  0.90772  0.02433  1.0000
  Fe  Fe41      1.0  0.98278  0.77106  0.94845  1.0000
  H   H458      1.0  0.91089  0.58870  0.87832  1.0000
  C   C575      1.0  0.36755  0.98257  0.73548  1.0000
  C   C576      1.0  0.15669  0.60524  0.85110  1.0000
  P   P19       1.0  0.18973  0.60965  0.97166  1.0000
  H   H459      1.0  0.14466  0.02579  0.63527  1.0000
  H   H460      1.0  0.31934  0.54522  0.80476  1.0000
  C   C577      1.0  0.04670  0.72296  0.53772  1.0000
  H   H461      1.0  0.99344  0.65031  0.81933  1.0000
  H   H462      1.0  0.35456  0.97554  0.63694  1.0000
  C   C578      1.0  0.04713  0.74996  0.53881  1.0000
  H   H463      1.0  0.23562  0.56840  0.99586  1.0000
  H   H464      1.0  0.90963  0.99897  0.80228  1.0000
  C   C579      1.0  0.31748  0.78813  0.71901  1.0000
  Fe  Fe42      1.0  0.00404  0.53680  0.00014  1.0000
  S   S79       1.0  0.03170  0.75023  0.95284  1.0000
  C   C580      1.0  0.19737  0.78404  0.83768  1.0000
  C   C581      1.0  0.30575  0.62820  0.89364  1.0000
  C   C582      1.0  0.15780  0.64275  0.91280  1.0000
  S   S80       1.0  0.07070  0.78406  0.84733  1.0000
  H   H465      1.0  0.92379  0.76171  0.56314  1.0000
  H   H466      1.0  0.28234  0.55222  0.54861  1.0000
  C   C583      1.0  0.35063  0.80655  0.00823  1.0000
  S   S81       1.0  0.19447  0.74734  0.57555  1.0000
  C   C584      1.0  0.13773  0.59215  0.62729  1.0000
  C   C585      1.0  0.32834  0.01543  0.91283  1.0000
  H   H467      1.0  0.07735  0.53444  0.73524  1.0000
  H   H468      1.0  0.32350  0.92226  0.80333  1.0000
  C   C586      1.0  0.93002  0.75626  0.59750  1.0000
  C   C587      1.0  0.91147  0.83416  0.98175  1.0000
  C   C588      1.0  0.20781  0.74556  0.74120  1.0000
  H   H469      1.0  0.30649  0.59058  0.77420  1.0000
  H   H470      1.0  0.17855  0.57900  0.89844  1.0000
  C   C589      1.0  0.23440  0.02207  0.75705  1.0000
  C   C590      1.0  0.05669  0.65788  0.86976  1.0000
  C   C591      1.0  0.37117  0.88761  0.90030  1.0000
  C   C592      1.0  0.36950  0.82732  0.01437  1.0000
  C   C593      1.0  0.97841  0.65963  0.79613  1.0000
  C   C594      1.0  0.14443  0.53815  0.02548  1.0000
  H   H471      1.0  0.14165  0.71160  0.82806  1.0000
  C   C595      1.0  0.93682  0.61302  0.02688  1.0000
  H   H472      1.0  0.91810  0.93013  0.73001  1.0000
  H   H473      1.0  0.08619  0.72192  0.68978  1.0000
  C   C596      1.0  0.30475  0.83928  0.91950  1.0000
  C   C597      1.0  0.39134  0.90438  0.91508  1.0000
  C   C598      1.0  0.24538  0.84908  0.96477  1.0000
  P   P20       1.0  0.95867  0.73405  0.74245  1.0000
  H   H474      1.0  0.24227  0.02611  0.78848  1.0000
  H   H475      1.0  0.21646  0.67410  0.84060  1.0000
  H   H476      1.0  0.34487  0.98362  0.86921  1.0000
  H   H477      1.0  0.07369  0.60702  0.68091  1.0000
  C   C599      1.0  0.37693  0.64773  0.96675  1.0000
  H   H478      1.0  0.38240  0.67885  0.67661  1.0000
  C   C600      1.0  0.38841  0.00285  0.87846  1.0000
  C   C601      1.0  0.24207  0.99792  0.73922  1.0000
  C   C602      1.0  0.35304  0.99893  0.88587  1.0000
  C   C603      1.0  0.95797  0.69895  0.75666  1.0000
  C   C604      1.0  0.96928  0.64723  0.94285  1.0000
  C   C605      1.0  0.14967  0.56463  0.00703  1.0000
  C   C606      1.0  0.96912  0.73578  0.64112  1.0000
  C   C607      1.0  0.33779  0.65290  0.64327  1.0000
  H   H479      1.0  0.33331  0.63185  0.87668  1.0000
  H   H480      1.0  0.30581  0.59481  0.85617  1.0000
  C   C608      1.0  0.94349  0.86488  0.73871  1.0000
  H   H481      1.0  0.32545  0.81461  0.82950  1.0000
  C   C609      1.0  0.28580  0.64425  0.92729  1.0000
  C   C610      1.0  0.16143  0.73737  0.70790  1.0000
  H   H482      1.0  0.30113  0.91520  0.66842  1.0000
  H   H483      1.0  0.94256  0.56715  0.73096  1.0000
  C   C611      1.0  0.38296  0.73404  0.87928  1.0000
  H   H484      1.0  0.33333  0.71337  0.76695  1.0000
  C   C612      1.0  0.96026  0.74221  0.59732  1.0000
  C   C613      1.0  0.14288  0.72425  0.75358  1.0000
  S   S82       1.0  0.09910  0.80895  0.94845  1.0000
  C   C614      1.0  0.07793  0.82606  0.63312  1.0000
  C   C615      1.0  0.09923  0.76826  0.01989  1.0000
  H   H485      1.0  0.11788  0.71567  0.75822  1.0000
  C   C616      1.0  0.36967  0.83974  0.81724  1.0000
  C   C617      1.0  0.20312  0.80868  0.84893  1.0000
  H   H486      1.0  0.24675  0.01895  0.54670  1.0000
  H   H487      1.0  0.16826  0.80697  0.95638  1.0000
  H   H488      1.0  0.36644  0.66021  0.94131  1.0000
  C   C618      1.0  0.21039  0.55992  0.00238  1.0000
  C   C619      1.0  0.15353  0.79132  0.98192  1.0000
  C   C620      1.0  0.36295  0.79374  0.96615  1.0000
  P   P21       1.0  0.11591  0.59770  0.58023  1.0000
  S   S83       1.0  0.93283  0.76141  0.00850  1.0000
  C   C621      1.0  0.39395  0.80183  0.93002  1.0000
  P   P22       1.0  0.20821  0.73059  0.83720  1.0000
  C   C622      1.0  0.32187  0.91012  0.77591  1.0000
  H   H489      1.0  0.36763  0.99052  0.00173  1.0000
  C   C623      1.0  0.16414  0.56301  0.67973  1.0000
  H   H490      1.0  0.02946  0.88071  0.61246  1.0000
  C   C624      1.0  0.95039  0.90472  0.60903  1.0000
  C   C625      1.0  0.38751  0.65850  0.00223  1.0000
  H   H491      1.0  0.96160  0.88327  0.93509  1.0000
  H   H492      1.0  0.03147  0.92300  0.64344  1.0000
  C   C626      1.0  0.38868  0.02055  0.75884  1.0000
  C   C627      1.0  0.28468  0.79832  0.74119  1.0000
  C   C628      1.0  0.03085  0.72803  0.71045  1.0000
  C   C629      1.0  0.06680  0.64148  0.94794  1.0000
  H   H493      1.0  0.98239  0.95407  0.65090  1.0000
  C   C630      1.0  0.93876  0.68353  0.73722  1.0000
  H   H494      1.0  0.10517  0.70425  0.59971  1.0000
  H   H495      1.0  0.32688  0.66522  0.78141  1.0000
  C   C631      1.0  0.31686  0.97872  0.53401  1.0000
  C   C632      1.0  0.35980  0.75609  0.55877  1.0000
  C   C633      1.0  0.27532  0.87677  0.88998  1.0000
  C   C634      1.0  0.91750  0.85201  0.82634  1.0000
  H   H496      1.0  0.02477  0.87915  0.89587  1.0000
  H   H497      1.0  0.23870  0.97424  0.68417  1.0000
  H   H498      1.0  0.99881  0.85972  0.71081  1.0000
  H   H499      1.0  0.26026  0.67891  0.70454  1.0000
  H   H500      1.0  0.06740  0.68562  0.55835  1.0000
  H   H501      1.0  0.39296  0.90140  0.95254  1.0000
  H   H502      1.0  0.17198  0.54358  0.69140  1.0000
  H   H503      1.0  0.25521  0.93017  0.59203  1.0000
  H   H504      1.0  0.13448  0.73753  0.89117  1.0000
  H   H505      1.0  0.14231  0.82745  0.68679  1.0000
  C   C635      1.0  0.96809  0.81827  0.56365  1.0000
  C   C636      1.0  0.25011  0.79093  0.87965  1.0000
  C   C637      1.0  0.06509  0.73510  0.70427  1.0000
  H   H506      1.0  0.10455  0.75119  0.60471  1.0000
  C   C638      1.0  0.97827  0.87719  0.95800  1.0000
  H   H507      1.0  0.19475  0.53591  0.77756  1.0000
  C   C639      1.0  0.30507  0.86081  0.88398  1.0000
  S   S84       1.0  0.33065  0.72423  0.01373  1.0000
  C   C640      1.0  0.16950  0.61739  0.92325  1.0000
  C   C641      1.0  0.24189  0.68286  0.82396  1.0000
  S   S85       1.0  0.00656  0.57651  0.95726  1.0000
  C   C642      1.0  0.08860  0.71700  0.58321  1.0000
  C   C643      1.0  0.24422  0.76618  0.86888  1.0000
  C   C644      1.0  0.30873  0.90622  0.69998  1.0000
  C   C645      1.0  0.22964  0.81216  0.86956  1.0000
  H   H508      1.0  0.05152  0.65425  0.83623  1.0000
  C   C646      1.0  0.29561  0.00043  0.54591  1.0000
  C   C647      1.0  0.34455  0.85292  0.54630  1.0000
  C   C648      1.0  0.20307  0.69643  0.61100  1.0000
  H   H509      1.0  0.39043  0.91260  0.77875  1.0000
  H   H510      1.0  0.94318  0.62581  0.90469  1.0000
  C   C649      1.0  0.16981  0.58408  0.70247  1.0000
  C   C650      1.0  0.16917  0.59869  0.89174  1.0000
  Fe  Fe43      1.0  0.04034  0.74689  0.87238  1.0000
  C   C651      1.0  0.21281  0.71593  0.57061  1.0000
  H   H511      1.0  0.12684  0.69490  0.03224  1.0000
  H   H512      1.0  0.96093  0.62344  0.78283  1.0000
  H   H513      1.0  0.07225  0.76571  0.02299  1.0000
  H   H514      1.0  0.21224  0.65707  0.64031  1.0000
  H   H515      1.0  0.13632  0.63291  0.63859  1.0000
  C   C652      1.0  0.18304  0.57547  0.99414  1.0000
  P   P23       1.0  0.34391  0.86867  0.83279  1.0000
  H   H516      1.0  0.24331  0.58544  0.89608  1.0000
  H   H517      1.0  0.30692  0.64275  0.02538  1.0000
  H   H518      1.0  0.33575  0.78457  0.74009  1.0000
  H   H519      1.0  0.27008  0.79347  0.89680  1.0000
  C   C653      1.0  0.91557  0.75562  0.68626  1.0000
  C   C654      1.0  0.98170  0.56338  0.76856  1.0000
  H   H520      1.0  0.95620  0.81564  0.68666  1.0000
  C   C655      1.0  0.31089  0.92138  0.73594  1.0000
  H   H521      1.0  0.18609  0.82482  0.84338  1.0000
  H   H522      1.0  0.22512  0.90117  0.66641  1.0000
  C   C656      1.0  0.37863  0.85613  0.54719  1.0000
  H   H523      1.0  0.34641  0.97190  0.73143  1.0000
  C   C657      1.0  0.15653  0.72203  0.79339  1.0000
  S   S86       1.0  0.35159  0.54003  0.98895  1.0000
  C   C658      1.0  0.23243  0.99291  0.69823  1.0000
  H   H524      1.0  0.90837  0.60937  0.65435  1.0000
  C   C659      1.0  0.90506  0.00512  0.72847  1.0000
  C   C660      1.0  0.91408  0.96287  0.77064  1.0000
  C   C661      1.0  0.36390  0.61343  0.55788  1.0000
  Fe  Fe44      1.0  0.03549  0.55742  0.89039  1.0000
  C   C662      1.0  0.36123  0.00671  0.75371  1.0000
  C   C663      1.0  0.25049  0.63906  0.95021  1.0000
  H   H525      1.0  0.20808  0.00775  0.64334  1.0000
  H   H526      1.0  0.23369  0.83116  0.87885  1.0000
  H   H527      1.0  0.32705  0.70316  0.55911  1.0000
  H   H528      1.0  0.07035  0.70758  0.92770  1.0000
  H   H529      1.0  0.39896  0.98908  0.55803  1.0000
  H   H530      1.0  0.23343  0.75322  0.73555  1.0000
  H   H531      1.0  0.15087  0.73896  0.67703  1.0000
  C   C664      1.0  0.14399  0.61329  0.64983  1.0000
  C   C665      1.0  0.17718  0.69449  0.97864  1.0000
  C   C666      1.0  0.21831  0.76273  0.84675  1.0000
  C   C667      1.0  0.32214  0.69004  0.59310  1.0000
  H   H532      1.0  0.05323  0.83538  0.63472  1.0000
  C   C668      1.0  0.19705  0.70283  0.93031  1.0000
  C   C669      1.0  0.19782  0.87413  0.58239  1.0000
  H   H533      1.0  0.00157  0.55661  0.73772  1.0000
  H   H534      1.0  0.90600  0.80194  0.94383  1.0000
  H   H535      1.0  0.36436  0.71876  0.63324  1.0000
  C   C670      1.0  0.37345  0.79343  0.80821  1.0000
  C   C671      1.0  0.93050  0.58133  0.84796  1.0000
  H   H536      1.0  0.08411  0.84651  0.69096  1.0000
  Fe  Fe45      1.0  0.35070  0.54601  0.91018  1.0000
  H   H537      1.0  0.09842  0.76475  0.71215  1.0000
  H   H538      1.0  0.12352  0.63584  0.01742  1.0000
  H   H539      1.0  0.22473  0.69888  0.91962  1.0000
  C   C672      1.0  0.97851  0.88749  0.60411  1.0000
  C   C673      1.0  0.24438  0.66635  0.56528  1.0000
  C   C674      1.0  0.38741  0.69059  0.85484  1.0000
  C   C675      1.0  0.14469  0.63052  0.84138  1.0000
  S   S87       1.0  0.29289  0.54637  0.92967  1.0000
  C   C676      1.0  0.27315  0.57876  0.73452  1.0000
  H   H540      1.0  0.16448  0.62562  0.70465  1.0000
  H   H541      1.0  0.18919  0.68423  0.00485  1.0000
  C   C677      1.0  0.04655  0.60149  0.58057  1.0000
  H   H542      1.0  0.33420  0.84769  0.74670  1.0000
  C   C678      1.0  0.16119  0.02840  0.55600  1.0000
  C   C679      1.0  0.91254  0.73285  0.83830  1.0000
  S   S88       1.0  0.25949  0.69342  0.01813  1.0000
  H   H543      1.0  0.94078  0.87255  0.70309  1.0000
  C   C680      1.0  0.39199  0.63087  0.54345  1.0000
  H   H544      1.0  0.37133  0.61247  0.93701  1.0000
  C   C681      1.0  0.01036  0.76818  0.74508  1.0000
  C   C682      1.0  0.08848  0.74394  0.58538  1.0000
  C   C683      1.0  0.31706  0.87967  0.70422  1.0000
  C   C684      1.0  0.27494  0.83334  0.95938  1.0000
  C   C685      1.0  0.29175  0.69346  0.63135  1.0000
  C   C686      1.0  0.23668  0.91046  0.54209  1.0000
  H   H545      1.0  0.13386  0.63541  0.81098  1.0000
  C   C687      1.0  0.23503  0.61725  0.94074  1.0000
  C   C688      1.0  0.27100  0.66671  0.81040  1.0000
  H   H546      1.0  0.36734  0.75045  0.89342  1.0000
  C   C689      1.0  0.24577  0.71011  0.81736  1.0000
  H   H547      1.0  0.18185  0.58092  0.73180  1.0000
  S   S89       1.0  0.02088  0.83682  0.79186  1.0000
  H   H548      1.0  0.15561  0.59054  0.82782  1.0000
  H   H549      1.0  0.35755  0.87175  0.92679  1.0000
  C   C690      1.0  0.14638  0.72437  0.91419  1.0000
  S   S90       1.0  0.22995  0.81917  0.53248  1.0000
  H   H550      1.0  0.25598  0.98332  0.75691  1.0000
  C   C691      1.0  0.98081  0.93540  0.63837  1.0000
  H   H551      1.0  0.37509  0.67337  0.84991  1.0000
  C   C692      1.0  0.38962  0.91050  0.81725  1.0000
  S   S91       1.0  0.90312  0.87764  0.53591  1.0000
  C   C693      1.0  0.35348  0.81591  0.81898  1.0000
  Fe  Fe46      1.0  0.05794  0.78924  0.92733  1.0000
  C   C694      1.0  0.30409  0.67767  0.78992  1.0000
  H   H552      1.0  0.02618  0.70951  0.69970  1.0000
  S   S92       1.0  0.08816  0.56246  0.89829  1.0000
  H   H553      1.0  0.30439  0.94195  0.73246  1.0000
  C   C695      1.0  0.95032  0.84384  0.83047  1.0000
  C   C696      1.0  0.97714  0.68683  0.78719  1.0000
  C   C697      1.0  0.92310  0.57876  0.80409  1.0000
  C   C698      1.0  0.06683  0.68797  0.92182  1.0000
  S   S93       1.0  0.03237  0.56296  0.81315  1.0000
  C   C699      1.0  0.36933  0.89101  0.85162  1.0000
  H   H554      1.0  0.98058  0.97193  0.55886  1.0000
  C   C700      1.0  0.95140  0.92890  0.62570  1.0000
  S   S94       1.0  0.05508  0.71003  0.83632  1.0000
  S   S95       1.0  0.37658  0.57909  0.85441  1.0000
  H   H555      1.0  0.38566  0.67939  0.00361  1.0000
  C   C701      1.0  0.07202  0.75900  0.71711  1.0000
  C   C702      1.0  0.21591  0.88992  0.53938  1.0000
  C   C703      1.0  0.15991  0.60924  0.68733  1.0000
  C   C704      1.0  0.02201  0.86094  0.01563  1.0000
  C   C705      1.0  0.12875  0.82246  0.66181  1.0000
  C   C706      1.0  0.32985  0.89569  0.57286  1.0000
  C   C707      1.0  0.09595  0.83308  0.66433  1.0000
  H   H556      1.0  0.98997  0.78131  0.76168  1.0000
  C   C708      1.0  0.14819  0.56699  0.64215  1.0000
  C   C709      1.0  0.00359  0.80519  0.63334  1.0000
  H   H557      1.0  0.36087  0.77485  0.81152  1.0000
  H   H558      1.0  0.25936  0.74968  0.87879  1.0000
  C   C710      1.0  0.02119  0.61012  0.67956  1.0000
  H   H559      1.0  0.12786  0.57656  0.00228  1.0000
  H   H560      1.0  0.22237  0.84436  0.99582  1.0000
  H   H561      1.0  0.30115  0.64288  0.71513  1.0000
  H   H562      1.0  0.92795  0.89914  0.59979  1.0000
  C   C711      1.0  0.25484  0.60197  0.90503  1.0000
  C   C712      1.0  0.18891  0.73308  0.78763  1.0000
  C   C713      1.0  0.95889  0.98165  0.54911  1.0000
  C   C714      1.0  0.14551  0.64928  0.87203  1.0000
  H   H563      1.0  0.14398  0.55049  0.62485  1.0000
  C   C715      1.0  0.29510  0.57429  0.76432  1.0000
  H   H564      1.0  0.20882  0.75728  0.66566  1.0000
  H   H565      1.0  0.22277  0.88325  0.93468  1.0000
  C   C716      1.0  0.00299  0.81053  0.54848  1.0000
  C   C717      1.0  0.20131  0.87805  0.62804  1.0000
  H   H566      1.0  0.26722  0.59853  0.72144  1.0000
  C   C718      1.0  0.38161  0.00364  0.57661  1.0000
  H   H567      1.0  0.05584  0.59784  0.54225  1.0000
  H   H568      1.0  0.92472  0.82716  0.62498  1.0000
  H   H569      1.0  0.27492  0.89386  0.86404  1.0000
  C   C719      1.0  0.05986  0.63685  0.90460  1.0000
  H   H570      1.0  0.27352  0.70882  0.62623  1.0000
  H   H571      1.0  0.19722  0.77551  0.00454  1.0000
  C   C720      1.0  0.92416  0.71794  0.96567  1.0000
  C   C721      1.0  0.06767  0.76075  0.56322  1.0000
  H   H572      1.0  0.01152  0.61277  0.71825  1.0000
  C   C722      1.0  0.12658  0.71560  0.96233  1.0000
  H   H573      1.0  0.93937  0.83206  0.97157  1.0000
  C   C723      1.0  0.92449  0.97597  0.57796  1.0000
  H   H574      1.0  0.23556  0.65199  0.97555  1.0000
  H   H575      1.0  0.97669  0.73641  0.56288  1.0000
  C   C724      1.0  0.23973  0.91444  0.58836  1.0000
  S   S96       1.0  0.26536  0.75646  0.98603  1.0000
  H   H576      1.0  0.96987  0.57795  0.88507  1.0000
  H   H577      1.0  0.18351  0.70032  0.64451  1.0000
  C   C725      1.0  0.96400  0.87066  0.00924  1.0000
  C   C726      1.0  0.37615  0.72051  0.66180  1.0000
  C   C727      1.0  0.38644  0.69775  0.68623  1.0000
  H   H578      1.0  0.25649  0.02332  0.02437  1.0000
  H   H579      1.0  0.18659  0.61854  0.54632  1.0000
  H   H580      1.0  0.27790  0.80238  0.77899  1.0000
  H   H581      1.0  0.13525  0.66862  0.86543  1.0000
  C   C728      1.0  0.90777  0.76304  0.64191  1.0000
  H   H582      1.0  0.09973  0.72162  0.97595  1.0000
  C   C729      1.0  0.24564  0.87091  0.93024  1.0000
  H   H583      1.0  0.97049  0.61122  0.66918  1.0000
  C   C730      1.0  0.21497  0.01205  0.67517  1.0000
  H   H584      1.0  0.28239  0.74190  0.78794  1.0000
  C   C731      1.0  0.94760  0.62762  0.93962  1.0000
  C   C732      1.0  0.05680  0.60682  0.65797  1.0000
  C   C733      1.0  0.16992  0.77355  0.00922  1.0000
  H   H585      1.0  0.92888  0.58083  0.58751  1.0000
  C   C734      1.0  0.94838  0.56925  0.76481  1.0000
  H   H586      1.0  0.99132  0.69839  0.80384  1.0000
  C   C735      1.0  0.34539  0.66966  0.59865  1.0000
  C   C736      1.0  0.05962  0.68352  0.87889  1.0000
  C   C737      1.0  0.00860  0.91785  0.63445  1.0000
  C   C738      1.0  0.01408  0.87513  0.93569  1.0000
  C   C739      1.0  0.26097  0.80371  0.71431  1.0000
  H   H587      1.0  0.34832  0.77788  0.96103  1.0000
  C   C740      1.0  0.90977  0.98990  0.77014  1.0000
  C   C741      1.0  0.90537  0.99342  0.68687  1.0000
  H   H588      1.0  0.01654  0.79955  0.66098  1.0000
  C   C742      1.0  0.95131  0.82023  0.61344  1.0000
  C   C743      1.0  0.38426  0.02982  0.55577  1.0000
  H   H589      1.0  0.30957  0.78609  0.60439  1.0000
  H   H590      1.0  0.94471  0.72557  0.93344  1.0000
  C   C744      1.0  0.30306  0.78888  0.64274  1.0000
  C   C745      1.0  0.37925  0.62081  0.96480  1.0000
  H   H591      1.0  0.17575  0.78147  0.82366  1.0000
  H   H592      1.0  0.26791  0.64571  0.81697  1.0000
  C   C746      1.0  0.04473  0.77551  0.73723  1.0000
  H   H593      1.0  0.16991  0.79782  0.62367  1.0000
  H   H594      1.0  0.91676  0.71199  0.84288  1.0000
  C   C747      1.0  0.96010  0.64443  0.77545  1.0000
  C   C748      1.0  0.32780  0.86826  0.74435  1.0000
  C   C749      1.0  0.98960  0.56698  0.81160  1.0000
  C   C750      1.0  0.97438  0.65004  0.98812  1.0000
  C   C751      1.0  0.97622  0.85755  0.74307  1.0000
  S   S97       1.0  0.31885  0.01924  0.76859  1.0000
  H   H595      1.0  0.31569  0.86803  0.67589  1.0000
  H   H596      1.0  0.18744  0.86565  0.66113  1.0000
  P   P24       1.0  0.37194  0.77502  0.63989  1.0000
  H   H597      1.0  0.35536  0.63710  0.64848  1.0000
  H   H598      1.0  0.99299  0.72518  0.63994  1.0000
  C   C752      1.0  0.96906  0.81367  0.64825  1.0000
  H   H599      1.0  0.31105  0.91098  0.58297  1.0000
  C   C753      1.0  0.01085  0.60477  0.60241  1.0000
  P   P25       1.0  0.38492  0.66516  0.54952  1.0000
  C   C754      1.0  0.94004  0.65629  0.74641  1.0000
  P   P26       1.0  0.91522  0.95135  0.63146  1.0000
  C   C755      1.0  0.91417  0.73129  0.00747  1.0000
  C   C756      1.0  0.12611  0.79870  0.59540  1.0000
  P   P27       1.0  0.06727  0.79589  0.56363  1.0000
  C   C757      1.0  0.02151  0.80485  0.58305  1.0000
  C   C758      1.0  0.93149  0.61045  0.98157  1.0000
  C   C759      1.0  0.92184  0.77526  0.78938  1.0000
  H   H600      1.0  0.34773  0.57368  0.56273  1.0000
  H   H601      1.0  0.97795  0.86927  0.58967  1.0000
  H   H602      1.0  0.14274  0.01396  0.55502  1.0000
  S   S98       1.0  0.37604  0.92823  0.58864  1.0000
  C   C760      1.0  0.36416  0.89913  0.57259  1.0000
  C   C761      1.0  0.91412  0.86188  0.78001  1.0000
  S   S99       1.0  0.26517  0.63575  0.56378  1.0000
  H   H603      1.0  0.91728  0.95092  0.80306  1.0000
  H   H604      1.0  0.30431  0.01587  0.56154  1.0000
  H   H605      1.0  0.95424  0.82336  0.53662  1.0000
  H   H606      1.0  0.13888  0.78619  0.56762  1.0000
  C   C762      1.0  0.12178  0.57041  0.54479  1.0000
  C   C763      1.0  0.13498  0.62626  0.53872  1.0000
  C   C764      1.0  0.06748  0.70649  0.55979  1.0000
  C   C765      1.0  0.38848  0.87921  0.56016  1.0000
  C   C766      1.0  0.91435  0.95112  0.72919  1.0000
  C   C767      1.0  0.31987  0.87246  0.56028  1.0000
  H   H607      1.0  0.10374  0.87682  0.55493  1.0000
  C   C768      1.0  0.95777  0.63320  0.03087  1.0000
  H   H608      1.0  0.39765  0.84081  0.53731  1.0000
  C   C769      1.0  0.40133  0.97247  0.72128  1.0000
  H   H609      1.0  0.39894  0.76468  0.72498  1.0000
  C   C770      1.0  0.39873  0.80092  0.64592  1.0000
  C   C771      1.0  0.40257  0.69935  0.72261  1.0000
  C   C772      1.0  0.40127  0.83471  0.97913  1.0000
  C   C773      1.0  0.34280  0.98973  0.03021  1.0000
  H   H610      1.0  0.33720  0.94827  0.03212  1.0000
  C   C774      1.0  0.95425  0.70340  0.20652  1.0000
  H   H611      1.0  0.32168  0.68492  0.42627  1.0000
  C   C775      1.0  0.90752  0.83514  0.11674  1.0000
  C   C776      1.0  0.35624  0.87061  0.19089  1.0000
  H   H612      1.0  0.39161  0.69627  0.19003  1.0000
  S   S100      1.0  0.00139  0.87309  0.47794  1.0000
  S   S101      1.0  0.97539  0.73774  0.46155  1.0000
  C   C777      1.0  0.31702  0.90599  0.26120  1.0000
  H   H613      1.0  0.17559  0.54930  0.43995  1.0000
  H   H614      1.0  0.20596  0.73030  0.39479  1.0000
  C   C778      1.0  0.26331  0.01700  0.20459  1.0000
  C   C779      1.0  0.95635  0.69446  0.25368  1.0000
  C   C780      1.0  0.97348  0.54125  0.31179  1.0000
  C   C781      1.0  0.29307  0.96481  0.08298  1.0000
  C   C782      1.0  0.07806  0.83346  0.48097  1.0000
  C   C783      1.0  0.99787  0.89176  0.24104  1.0000
  C   C784      1.0  0.93983  0.55038  0.48374  1.0000
  C   C785      1.0  0.96564  0.99883  0.50527  1.0000
  C   C786      1.0  0.97449  0.90169  0.21576  1.0000
  H   H615      1.0  0.06046  0.79532  0.33865  1.0000
  C   C787      1.0  0.28782  0.60310  0.04697  1.0000
  Fe  Fe47      1.0  0.00463  0.67623  0.32721  1.0000
  C   C788      1.0  0.25663  0.58445  0.27853  1.0000
  H   H616      1.0  0.94338  0.02297  0.45501  1.0000
  S   S102      1.0  0.97075  0.67286  0.40579  1.0000
  C   C789      1.0  0.27787  0.98760  0.10191  1.0000
  H   H617      1.0  0.06396  0.69157  0.07867  1.0000
  H   H618      1.0  0.91095  0.69932  0.50907  1.0000
  C   C790      1.0  0.13166  0.64658  0.37370  1.0000
  C   C791      1.0  0.10271  0.89965  0.48670  1.0000
  C   C792      1.0  0.01574  0.00806  0.17454  1.0000
  S   S103      1.0  0.20892  0.59873  0.39021  1.0000
  C   C793      1.0  0.98864  0.78750  0.08058  1.0000
  C   C794      1.0  0.03368  0.54662  0.30739  1.0000
  C   C795      1.0  0.90396  0.00571  0.51926  1.0000
  P   P28       1.0  0.00665  0.81470  0.21811  1.0000
  Fe  Fe48      1.0  0.30903  0.57139  0.44208  1.0000
  H   H619      1.0  0.32032  0.63471  0.20620  1.0000
  C   C796      1.0  0.39175  0.89712  0.24942  1.0000
  H   H620      1.0  0.17730  0.59705  0.26307  1.0000
  H   H621      1.0  0.93373  0.92044  0.07331  1.0000
  C   C797      1.0  0.19423  0.62560  0.05873  1.0000
  H   H622      1.0  0.98421  0.55604  0.50857  1.0000
  C   C798      1.0  0.92470  0.62331  0.30211  1.0000
  Fe  Fe49      1.0  0.95165  0.89425  0.47991  1.0000
  C   C799      1.0  0.18972  0.94369  0.48331  1.0000
  C   C800      1.0  0.14732  0.55675  0.22975  1.0000
  C   C801      1.0  0.37214  0.79696  0.36752  1.0000
  C   C802      1.0  0.15401  0.54927  0.47343  1.0000
  C   C803      1.0  0.29546  0.01154  0.08597  1.0000
  H   H623      1.0  0.17987  0.68319  0.44028  1.0000
  C   C804      1.0  0.39598  0.76603  0.47416  1.0000
  C   C805      1.0  0.25719  0.92108  0.27700  1.0000
  S   S104      1.0  0.03086  0.71231  0.33342  1.0000
  S   S105      1.0  0.98868  0.67190  0.26018  1.0000
  S   S106      1.0  0.26092  0.55321  0.07776  1.0000
  C   C806      1.0  0.98560  0.71603  0.07322  1.0000
  H   H624      1.0  0.08822  0.63923  0.51981  1.0000
  H   H625      1.0  0.93904  0.57251  0.33859  1.0000
  C   C807      1.0  0.18324  0.74528  0.22540  1.0000
  S   S107      1.0  0.33431  0.82409  0.52762  1.0000
  C   C808      1.0  0.23777  0.71038  0.52708  1.0000
  C   C809      1.0  0.35793  0.61548  0.23872  1.0000
  S   S108      1.0  0.31148  0.79680  0.05282  1.0000
  C   C810      1.0  0.12274  0.83040  0.40335  1.0000
  H   H626      1.0  0.19993  0.02201  0.31294  1.0000
  C   C811      1.0  0.18655  0.62663  0.37589  1.0000
  C   C812      1.0  0.03725  0.69179  0.07829  1.0000
  H   H627      1.0  0.00725  0.90405  0.26235  1.0000
  C   C813      1.0  0.90834  0.72291  0.28869  1.0000
  C   C814      1.0  0.13138  0.66380  0.47963  1.0000
  C   C815      1.0  0.39602  0.56170  0.09029  1.0000
  C   C816      1.0  0.96685  0.56505  0.48881  1.0000
  C   C817      1.0  0.98113  0.61196  0.12006  1.0000
  H   H628      1.0  0.13924  0.65697  0.14933  1.0000
  H   H629      1.0  0.35162  0.80649  0.39279  1.0000
  C   C818      1.0  0.11542  0.64280  0.51399  1.0000
  P   P29       1.0  0.96116  0.63883  0.09065  1.0000
  Fe  Fe50      1.0  0.29532  0.75766  0.04003  1.0000
  C   C819      1.0  0.11713  0.88141  0.51597  1.0000
  H   H630      1.0  0.39788  0.90633  0.11144  1.0000
  C   C820      1.0  0.34997  0.67572  0.47933  1.0000
  C   C821      1.0  0.11969  0.90516  0.43621  1.0000
  C   C822      1.0  0.20758  0.76110  0.23421  1.0000
  C   C823      1.0  0.21311  0.02444  0.27355  1.0000
  C   C824      1.0  0.99039  0.81582  0.42595  1.0000
  S   S109      1.0  0.03728  0.84736  0.35273  1.0000
  C   C825      1.0  0.27659  0.89862  0.34371  1.0000
  C   C826      1.0  0.09409  0.84330  0.43176  1.0000
  C   C827      1.0  0.27396  0.61473  0.14374  1.0000
  S   S110      1.0  0.25673  0.58684  0.47988  1.0000
  C   C828      1.0  0.36276  0.75079  0.12256  1.0000
  H   H631      1.0  0.05959  0.53872  0.30239  1.0000
  H   H632      1.0  0.09610  0.73813  0.45493  1.0000
  H   H633      1.0  0.09269  0.76079  0.37544  1.0000
  H   H634      1.0  0.23947  0.02331  0.41479  1.0000
  C   C829      1.0  0.94137  0.77248  0.36771  1.0000
  C   C830      1.0  0.03197  0.97124  0.12708  1.0000
  C   C831      1.0  0.97947  0.79816  0.27567  1.0000
  S   S111      1.0  0.04123  0.68120  0.43632  1.0000
  H   H635      1.0  0.91992  0.82208  0.08968  1.0000
  C   C832      1.0  0.16485  0.95293  0.46012  1.0000
  H   H636      1.0  0.25227  0.98657  0.12872  1.0000
  C   C833      1.0  0.25178  0.98205  0.51779  1.0000
  H   H637      1.0  0.34387  0.61986  0.27539  1.0000
  C   C834      1.0  0.38512  0.01115  0.44739  1.0000
  H   H638      1.0  0.04563  0.56145  0.45774  1.0000
  H   H639      1.0  0.03683  0.96314  0.09252  1.0000
  C   C835      1.0  0.40001  0.71008  0.41566  1.0000
  H   H640      1.0  0.21390  0.65528  0.48574  1.0000
  H   H641      1.0  0.03070  0.71496  0.51869  1.0000
  H   H642      1.0  0.37123  0.75149  0.08270  1.0000
  H   H643      1.0  0.28569  0.77420  0.29425  1.0000
  H   H644      1.0  0.99074  0.63454  0.17370  1.0000
  S   S112      1.0  0.17143  0.72888  0.07230  1.0000
  H   H645      1.0  0.93852  0.01106  0.12616  1.0000
  H   H646      1.0  0.13069  0.58812  0.10759  1.0000
  H   H647      1.0  0.91486  0.64679  0.36147  1.0000
  H   H648      1.0  0.03157  0.76236  0.52001  1.0000
  H   H649      1.0  0.28439  0.87811  0.48330  1.0000
  H   H650      1.0  0.30939  0.75841  0.12588  1.0000
  H   H651      1.0  0.30538  0.81679  0.30404  1.0000
  H   H652      1.0  0.31599  0.67152  0.28390  1.0000
  H   H653      1.0  0.94148  0.69335  0.07682  1.0000
  C   C836      1.0  0.99211  0.61554  0.16108  1.0000
  H   H654      1.0  0.91433  0.96143  0.41055  1.0000
  H   H655      1.0  0.99215  0.00207  0.48187  1.0000
  C   C837      1.0  0.21035  0.96292  0.38305  1.0000
  H   H656      1.0  0.26302  0.73634  0.35420  1.0000
  C   C838      1.0  0.18207  0.63718  0.10234  1.0000
  H   H657      1.0  0.97768  0.58371  0.07171  1.0000
  C   C839      1.0  0.92147  0.58835  0.43878  1.0000
  H   H658      1.0  0.24192  0.71485  0.22474  1.0000
  C   C840      1.0  0.11940  0.74136  0.42439  1.0000
  C   C841      1.0  0.91876  0.64471  0.13323  1.0000
  H   H659      1.0  0.16909  0.58531  0.49010  1.0000
  H   H660      1.0  0.32249  0.94186  0.50647  1.0000
  H   H661      1.0  0.38946  0.54233  0.29677  1.0000
  C   C842      1.0  0.25024  0.91091  0.32662  1.0000
  C   C843      1.0  0.22522  0.94359  0.45630  1.0000
  H   H662      1.0  0.39958  0.59547  0.26083  1.0000
  H   H663      1.0  0.34176  0.03081  0.03628  1.0000
  H   H664      1.0  0.95255  0.62587  0.29152  1.0000
  H   H665      1.0  0.12943  0.84177  0.17726  1.0000
  H   H666      1.0  0.15573  0.96934  0.39201  1.0000
  H   H667      1.0  0.93979  0.65525  0.18931  1.0000
  C   C844      1.0  0.91704  0.56222  0.45886  1.0000
  C   C845      1.0  0.32774  0.75508  0.14659  1.0000
  C   C846      1.0  0.17515  0.96253  0.41000  1.0000
  C   C847      1.0  0.27298  0.96008  0.50630  1.0000
  P   P30       1.0  0.15608  0.54232  0.28593  1.0000
  H   H668      1.0  0.32928  0.88495  0.32439  1.0000
  C   C848      1.0  0.17418  0.75033  0.18166  1.0000
  C   C849      1.0  0.36931  0.70600  0.40485  1.0000
  C   C850      1.0  0.02166  0.99737  0.13000  1.0000
  H   H669      1.0  0.22989  0.61963  0.26103  1.0000
  C   C851      1.0  0.11518  0.75132  0.04906  1.0000
  C   C852      1.0  0.13540  0.80764  0.42426  1.0000
  S   S113      1.0  0.22667  0.78578  0.44153  1.0000
  H   H670      1.0  0.90385  0.59742  0.41965  1.0000
  H   H671      1.0  0.23208  0.65039  0.34091  1.0000
  H   H672      1.0  0.01543  0.80921  0.50967  1.0000
  H   H673      1.0  0.03227  0.95389  0.24604  1.0000
  C   C853      1.0  0.38024  0.68032  0.49139  1.0000
  C   C854      1.0  0.12088  0.80339  0.21807  1.0000
  C   C855      1.0  0.93287  0.70372  0.29494  1.0000
  H   H674      1.0  0.92734  0.59918  0.24504  1.0000
  H   H675      1.0  0.95851  0.73710  0.33645  1.0000
  C   C856      1.0  0.37141  0.97537  0.14965  1.0000
  C   C857      1.0  0.33915  0.74930  0.22539  1.0000
  H   H676      1.0  0.06900  0.84743  0.17477  1.0000
  H   H677      1.0  0.22427  0.91203  0.35188  1.0000
  C   C858      1.0  0.99819  0.56625  0.12904  1.0000
  C   C859      1.0  0.08893  0.80958  0.50101  1.0000
  H   H678      1.0  0.04399  0.93533  0.16650  1.0000
  Fe  Fe51      1.0  0.01343  0.64765  0.42259  1.0000
  H   H679      1.0  0.93410  0.69653  0.33158  1.0000
  C   C860      1.0  0.96375  0.78216  0.12659  1.0000
  H   H680      1.0  0.94276  0.89293  0.17138  1.0000
  C   C861      1.0  0.14868  0.64795  0.11552  1.0000
  C   C862      1.0  0.34468  0.68853  0.43611  1.0000
  C   C863      1.0  0.02966  0.96597  0.21331  1.0000
  C   C864      1.0  0.02374  0.76998  0.39434  1.0000
  H   H681      1.0  0.35223  0.80796  0.13012  1.0000
  C   C865      1.0  0.15154  0.73336  0.42995  1.0000
  H   H682      1.0  0.13001  0.59008  0.33256  1.0000
  S   S114      1.0  0.28886  0.82751  0.42465  1.0000
  C   C866      1.0  0.00064  0.80190  0.16543  1.0000
  C   C867      1.0  0.91667  0.65313  0.17875  1.0000
  H   H683      1.0  0.12846  0.77938  0.48821  1.0000
  C   C868      1.0  0.25529  0.71207  0.25259  1.0000
  H   H684      1.0  0.26860  0.54141  0.40246  1.0000
  H   H685      1.0  0.34121  0.86058  0.43838  1.0000
  H   H686      1.0  0.13722  0.60817  0.41024  1.0000
  H   H687      1.0  0.33032  0.66238  0.50350  1.0000
  S   S115      1.0  0.27982  0.64339  0.41717  1.0000
  C   C869      1.0  0.14830  0.86843  0.49436  1.0000
  H   H688      1.0  0.38772  0.74504  0.30232  1.0000
  S   S116      1.0  0.96145  0.89858  0.39781  1.0000
  C   C870      1.0  0.35158  0.92341  0.38437  1.0000
  C   C871      1.0  0.19544  0.55844  0.28447  1.0000
  Fe  Fe52      1.0  0.00081  0.70655  0.41415  1.0000
  S   S117      1.0  0.32256  0.76367  0.36260  1.0000
  H   H689      1.0  0.06975  0.53448  0.21569  1.0000
  H   H690      1.0  0.98925  0.75917  0.25365  1.0000
  C   C872      1.0  0.27881  0.81442  0.30402  1.0000
  H   H691      1.0  0.34360  0.57618  0.09852  1.0000
  H   H692      1.0  0.15831  0.79807  0.40293  1.0000
  H   H693      1.0  0.95298  0.79030  0.48064  1.0000
  H   H694      1.0  0.21830  0.97019  0.34413  1.0000
  H   H695      1.0  0.29789  0.82799  0.17814  1.0000
  H   H696      1.0  0.92366  0.59978  0.05911  1.0000
  C   C873      1.0  0.29526  0.91770  0.44714  1.0000
  C   C874      1.0  0.25969  0.02717  0.38000  1.0000
  H   H697      1.0  0.03874  0.80407  0.04103  1.0000
  C   C875      1.0  0.98486  0.58716  0.10381  1.0000
  C   C876      1.0  0.06251  0.78654  0.23906  1.0000
  H   H698      1.0  0.18095  0.93651  0.52226  1.0000
  H   H699      1.0  0.96017  0.84655  0.17155  1.0000
  C   C877      1.0  0.31989  0.93369  0.41070  1.0000
  H   H700      1.0  0.37020  0.93604  0.35644  1.0000
  C   C878      1.0  0.13539  0.57953  0.14163  1.0000
  C   C879      1.0  0.28714  0.00946  0.36702  1.0000
  C   C880      1.0  0.38540  0.83628  0.14244  1.0000
  H   H701      1.0  0.97588  0.85763  0.07759  1.0000
  H   H702      1.0  0.01850  0.55370  0.18973  1.0000
  H   H703      1.0  0.96600  0.92187  0.21698  1.0000
  H   H704      1.0  0.03671  0.75237  0.38228  1.0000
  C   C881      1.0  0.00550  0.59462  0.18610  1.0000
  H   H705      1.0  0.97213  0.73438  0.06973  1.0000
  C   C882      1.0  0.35936  0.89711  0.39472  1.0000
  C   C883      1.0  0.38381  0.99356  0.41470  1.0000
  C   C884      1.0  0.01991  0.71561  0.07457  1.0000
  Fe  Fe53      1.0  0.06940  0.68495  0.35540  1.0000
  H   H706      1.0  0.10372  0.64552  0.38367  1.0000
  C   C885      1.0  0.26487  0.59035  0.13507  1.0000
  C   C886      1.0  0.18636  0.65205  0.49411  1.0000
  C   C887      1.0  0.02568  0.80693  0.11906  1.0000
  S   S118      1.0  0.28605  0.77318  0.49772  1.0000
  S   S119      1.0  0.37187  0.65004  0.32651  1.0000
  C   C888      1.0  0.15090  0.75319  0.04206  1.0000
  H   H707      1.0  0.25735  0.00102  0.27995  1.0000
  C   C889      1.0  0.18151  0.73685  0.38949  1.0000
  C   C890      1.0  0.36982  0.92819  0.17134  1.0000
  H   H708      1.0  0.04577  0.58297  0.32849  1.0000
  H   H709      1.0  0.13548  0.83842  0.36558  1.0000
  C   C891      1.0  0.06623  0.55784  0.42482  1.0000
  H   H710      1.0  0.10127  0.65470  0.09600  1.0000
  H   H711      1.0  0.19606  0.54362  0.18201  1.0000
  C   C892      1.0  0.39964  0.64226  0.03663  1.0000
  H   H712      1.0  0.28825  0.99239  0.39242  1.0000
  C   C893      1.0  0.05165  0.80991  0.21683  1.0000
  C   C894      1.0  0.16696  0.66808  0.46909  1.0000
  H   H713      1.0  0.08462  0.86122  0.41587  1.0000
  C   C895      1.0  0.25316  0.68550  0.52429  1.0000
  C   C896      1.0  0.26751  0.79006  0.29896  1.0000
  H   H714      1.0  0.01431  0.99968  0.25133  1.0000
  H   H715      1.0  0.00058  0.54716  0.11642  1.0000
  C   C897      1.0  0.29527  0.62812  0.05591  1.0000
  H   H716      1.0  0.27978  0.59464  0.27741  1.0000
  H   H717      1.0  0.94931  0.78589  0.20393  1.0000
  H   H718      1.0  0.22891  0.80088  0.12445  1.0000
  H   H719      1.0  0.35019  0.74230  0.49585  1.0000
  Fe  Fe54      1.0  0.23077  0.82767  0.45295  1.0000
  H   H720      1.0  0.14479  0.76841  0.30512  1.0000
  C   C898      1.0  0.39385  0.60448  0.14312  1.0000
  Fe  Fe55      1.0  0.33162  0.62482  0.38407  1.0000
  H   H721      1.0  0.15319  0.72443  0.46562  1.0000
  H   H722      1.0  0.19830  0.68826  0.31553  1.0000
  C   C899      1.0  0.11071  0.82636  0.19445  1.0000
  H   H723      1.0  0.03295  0.73373  0.07277  1.0000
  C   C900      1.0  0.21552  0.78581  0.15322  1.0000
  H   H724      1.0  0.25278  0.57603  0.16601  1.0000
  H   H725      1.0  0.19849  0.63757  0.12610  1.0000
  C   C901      1.0  0.99207  0.58112  0.33236  1.0000
  S   S120      1.0  0.04552  0.64900  0.34326  1.0000
  H   H726      1.0  0.39133  0.73921  0.22380  1.0000
  C   C902      1.0  0.91235  0.95294  0.03693  1.0000
  C   C903      1.0  0.00833  0.56993  0.17027  1.0000
  C   C904      1.0  0.39278  0.76214  0.31706  1.0000
  C   C905      1.0  0.29719  0.68727  0.28570  1.0000
  S   S121      1.0  0.33644  0.60515  0.45655  1.0000
  C   C906      1.0  0.01957  0.99208  0.21621  1.0000
  C   C907      1.0  0.96576  0.56583  0.32776  1.0000
  C   C908      1.0  0.93641  0.01969  0.23692  1.0000
  C   C909      1.0  0.34508  0.53434  0.10812  1.0000
  C   C910      1.0  0.12072  0.54848  0.34027  1.0000
  C   C911      1.0  0.95849  0.75810  0.32944  1.0000
  H   H727      1.0  0.10479  0.76519  0.25709  1.0000
  C   C912      1.0  0.92882  0.72165  0.20036  1.0000
  P   P31       1.0  0.21815  0.75541  0.29181  1.0000
  C   C913      1.0  0.96140  0.88539  0.19014  1.0000
  C   C914      1.0  0.35335  0.82518  0.14763  1.0000
  S   S122      1.0  0.25805  0.73186  0.10046  1.0000
  C   C915      1.0  0.32802  0.01248  0.04984  1.0000
  C   C916      1.0  0.22858  0.59853  0.26905  1.0000
  C   C917      1.0  0.24883  0.72850  0.29006  1.0000
  C   C918      1.0  0.30974  0.89578  0.31102  1.0000
  H   H728      1.0  0.04465  0.77075  0.25670  1.0000
  C   C919      1.0  0.25569  0.83543  0.31010  1.0000
  H   H729      1.0  0.03410  0.65003  0.08315  1.0000
  C   C920      1.0  0.11732  0.57179  0.23100  1.0000
  C   C921      1.0  0.21011  0.80780  0.30580  1.0000
  C   C922      1.0  0.91311  0.00716  0.12329  1.0000
  C   C923      1.0  0.90634  0.73187  0.24134  1.0000
  C   C924      1.0  0.38933  0.60165  0.23025  1.0000
  C   C925      1.0  0.23306  0.78639  0.30047  1.0000
  H   H730      1.0  0.29990  0.86788  0.21600  1.0000
  C   C926      1.0  0.20408  0.64942  0.35040  1.0000
  H   H731      1.0  0.28423  0.67923  0.22122  1.0000
  C   C927      1.0  0.36049  0.95344  0.18439  1.0000
  C   C928      1.0  0.94951  0.01901  0.34698  1.0000
  H   H732      1.0  0.97249  0.69623  0.17476  1.0000
  C   C929      1.0  0.97136  0.59130  0.46813  1.0000
  C   C930      1.0  0.02594  0.57145  0.32253  1.0000
  H   H733      1.0  0.18532  0.56364  0.10504  1.0000
  H   H734      1.0  0.35085  0.62394  0.12297  1.0000
  C   C931      1.0  0.30569  0.95870  0.51430  1.0000
  H   H735      1.0  0.13743  0.95216  0.48083  1.0000
  H   H736      1.0  0.10870  0.91923  0.41354  1.0000
  C   C932      1.0  0.96280  0.81243  0.31492  1.0000
  H   H737      1.0  0.26408  0.85409  0.31522  1.0000
  C   C933      1.0  0.32551  0.96589  0.04707  1.0000
  C   C934      1.0  0.16598  0.56550  0.14013  1.0000
  H   H738      1.0  0.23661  0.93046  0.26384  1.0000
  C   C935      1.0  0.14908  0.66907  0.34674  1.0000
  Fe  Fe56      1.0  0.02545  0.91203  0.47119  1.0000
  C   C936      1.0  0.38681  0.85864  0.16456  1.0000
  C   C937      1.0  0.15136  0.89297  0.41512  1.0000
  H   H739      1.0  0.39662  0.93887  0.24931  1.0000
  H   H740      1.0  0.26225  0.95333  0.38395  1.0000
  H   H741      1.0  0.38415  0.88914  0.37511  1.0000
  Fe  Fe57      1.0  0.28813  0.81590  0.50304  1.0000
  C   C938      1.0  0.19836  0.58562  0.27138  1.0000
  C   C939      1.0  0.25422  0.55742  0.29113  1.0000
  H   H742      1.0  0.30514  0.70021  0.35000  1.0000
  H   H743      1.0  0.27202  0.68121  0.49061  1.0000
  H   H744      1.0  0.09889  0.57535  0.26564  1.0000
  C   C940      1.0  0.17947  0.74890  0.34344  1.0000
  H   H745      1.0  0.14732  0.80109  0.21956  1.0000
  H   H746      1.0  0.17112  0.72912  0.25242  1.0000
  H   H747      1.0  0.36465  0.99472  0.16030  1.0000
  S   S123      1.0  0.97443  0.93307  0.48057  1.0000
  C   C941      1.0  0.32269  0.83663  0.17444  1.0000
  C   C942      1.0  0.97701  0.79138  0.45063  1.0000
  H   H748      1.0  0.36187  0.02167  0.46463  1.0000
  H   H749      1.0  0.08139  0.59803  0.40588  1.0000
  H   H750      1.0  0.03910  0.85446  0.03766  1.0000
  C   C943      1.0  0.98503  0.66865  0.08275  1.0000
  C   C944      1.0  0.33496  0.88095  0.43027  1.0000
  H   H751      1.0  0.33041  0.74822  0.26518  1.0000
  C   C945      1.0  0.34460  0.62392  0.19974  1.0000
  H   H752      1.0  0.90318  0.65110  0.52696  1.0000
  C   C946      1.0  0.11735  0.75404  0.37937  1.0000
  H   H753      1.0  0.27952  0.94636  0.09571  1.0000
  C   C947      1.0  0.02048  0.81723  0.38531  1.0000
  H   H754      1.0  0.93182  0.81063  0.39072  1.0000
  H   H755      1.0  0.93965  0.77266  0.12933  1.0000
  H   H756      1.0  0.24441  0.79275  0.20186  1.0000
  S   S124      1.0  0.00533  0.60975  0.47333  1.0000
  Fe  Fe58      1.0  0.25766  0.60662  0.40592  1.0000
  C   C948      1.0  0.32404  0.85934  0.19581  1.0000
  S   S125      1.0  0.06385  0.91593  0.51309  1.0000
  C   C949      1.0  0.96820  0.69267  0.07735  1.0000
  H   H757      1.0  0.21311  0.88651  0.50415  1.0000
  C   C950      1.0  0.91583  0.98184  0.39552  1.0000
  C   C951      1.0  0.11419  0.57380  0.35396  1.0000
  H   H758      1.0  0.16443  0.89752  0.37609  1.0000
  C   C952      1.0  0.93819  0.01060  0.49007  1.0000
  S   S126      1.0  0.30064  0.66370  0.11809  1.0000
  H   H759      1.0  0.26950  0.61904  0.18096  1.0000
  H   H760      1.0  0.18307  0.77453  0.11183  1.0000
  H   H761      1.0  0.35985  0.99087  0.40623  1.0000
  C   C953      1.0  0.38612  0.74576  0.15032  1.0000
  H   H762      1.0  0.36493  0.71549  0.37132  1.0000
  C   C954      1.0  0.99353  0.76841  0.43430  1.0000
  C   C955      1.0  0.03718  0.79427  0.36981  1.0000
  C   C956      1.0  0.07633  0.82954  0.19339  1.0000
  C   C957      1.0  0.36525  0.77512  0.34792  1.0000
  H   H763      1.0  0.28942  0.75975  0.21495  1.0000
  Fe  Fe59      1.0  0.29032  0.69837  0.06905  1.0000
  Fe  Fe60      1.0  0.22843  0.77722  0.51961  1.0000
  C   C958      1.0  0.94773  0.99260  0.36598  1.0000
  Fe  Fe61      1.0  0.39541  0.01445  0.25935  1.0000
  C   C959      1.0  0.15011  0.56981  0.50201  1.0000
  S   S127      1.0  0.04032  0.91743  0.38870  1.0000
  P   P32       1.0  0.35864  0.90010  0.21798  1.0000
  C   C960      1.0  0.23529  0.95334  0.40596  1.0000
  H   H764      1.0  0.01360  0.59764  0.21783  1.0000
  H   H765      1.0  0.15511  0.73815  0.17526  1.0000
  H   H766      1.0  0.11656  0.67602  0.45930  1.0000
  C   C961      1.0  0.36708  0.75362  0.50852  1.0000
  P   P33       1.0  0.25733  0.93235  0.48700  1.0000
  Fe  Fe62      1.0  0.28341  0.62190  0.48874  1.0000
  H   H767      1.0  0.29525  0.92583  0.20556  1.0000
  C   C962      1.0  0.31623  0.75530  0.19751  1.0000
  H   H768      1.0  0.05726  0.84452  0.50322  1.0000
  C   C963      1.0  0.27937  0.69163  0.25046  1.0000
  H   H769      1.0  0.24503  0.72515  0.49536  1.0000
  C   C964      1.0  0.27217  0.58430  0.08675  1.0000
  H   H770      1.0  0.96505  0.83338  0.31157  1.0000
  C   C965      1.0  0.15047  0.62543  0.38844  1.0000
  S   S128      1.0  0.12567  0.69508  0.32688  1.0000
  S   S129      1.0  0.34795  0.99222  0.30659  1.0000
  C   C966      1.0  0.29045  0.91853  0.24425  1.0000
  C   C967      1.0  0.97154  0.85911  0.19000  1.0000
  C   C968      1.0  0.18999  0.77079  0.14584  1.0000
  Fe  Fe63      1.0  0.28501  0.78492  0.42050  1.0000
  H   H771      1.0  0.95072  0.00310  0.24813  1.0000
  H   H772      1.0  0.10029  0.73581  0.07500  1.0000
  H   H773      1.0  0.31532  0.95434  0.40361  1.0000
  Fe  Fe64      1.0  0.98773  0.93601  0.39808  1.0000
  H   H774      1.0  0.34578  0.95633  0.22191  1.0000
  C   C969      1.0  0.30281  0.89107  0.45597  1.0000
  C   C970      1.0  0.96948  0.78955  0.16888  1.0000
  C   C971      1.0  0.16578  0.87467  0.44410  1.0000
  C   C972      1.0  0.17199  0.55418  0.18393  1.0000
  H   H775      1.0  0.27070  0.89012  0.38191  1.0000
  C   C973      1.0  0.94856  0.60279  0.44324  1.0000
  S   S130      1.0  0.20620  0.86083  0.41597  1.0000
  C   C974      1.0  0.08676  0.57844  0.39567  1.0000
  C   C975      1.0  0.37382  0.74422  0.20189  1.0000
  C   C976      1.0  0.00843  0.86565  0.24029  1.0000
  C   C977      1.0  0.03603  0.95556  0.16870  1.0000
  H   H776      1.0  0.02592  0.85810  0.26101  1.0000
  C   C978      1.0  0.11843  0.79714  0.47280  1.0000
  H   H777      1.0  0.15869  0.85359  0.51630  1.0000
  C   C979      1.0  0.26683  0.72383  0.32542  1.0000
  H   H778      1.0  0.97646  0.83341  0.43704  1.0000
  H   H779      1.0  0.27564  0.54667  0.29979  1.0000
  C   C980      1.0  0.12745  0.64691  0.08520  1.0000
  H   H780      1.0  0.04976  0.81664  0.11524  1.0000
  C   C981      1.0  0.94362  0.79960  0.36035  1.0000
  C   C982      1.0  0.28867  0.63380  0.10452  1.0000
  C   C983      1.0  0.38960  0.92536  0.12261  1.0000
  C   C984      1.0  0.14718  0.75808  0.33923  1.0000
  H   H781      1.0  0.95174  0.62277  0.42708  1.0000
  Fe  Fe65      1.0  0.01279  0.87977  0.39613  1.0000
  C   C985      1.0  0.22439  0.78097  0.19716  1.0000
  H   H782      1.0  0.98608  0.60013  0.34510  1.0000
  C   C986      1.0  0.09694  0.78330  0.23955  1.0000
  C   C987      1.0  0.31359  0.01442  0.32228  1.0000
  C   C988      1.0  0.90391  0.86185  0.10205  1.0000
  H   H783      1.0  0.92692  0.72808  0.16376  1.0000
  H   H784      1.0  0.97417  0.02732  0.32451  1.0000
  H   H785      1.0  0.08809  0.59460  0.18818  1.0000
  C   C989      1.0  0.99538  0.84908  0.21483  1.0000
  C   C990      1.0  0.36009  0.55907  0.09906  1.0000
  C   C991      1.0  0.01959  0.79980  0.07686  1.0000
  H   H786      1.0  0.01844  0.00914  0.09751  1.0000
  C   C992      1.0  0.36230  0.61819  0.15230  1.0000
  H   H787      1.0  0.18347  0.80570  0.30615  1.0000
  H   H788      1.0  0.28880  0.00829  0.19124  1.0000
  C   C993      1.0  0.22386  0.54439  0.29386  1.0000
  C   C994      1.0  0.97658  0.77080  0.28304  1.0000
  C   C995      1.0  0.11125  0.58295  0.18706  1.0000
  C   C996      1.0  0.02006  0.66831  0.08162  1.0000
  S   S131      1.0  0.30875  0.58961  0.36696  1.0000
  C   C997      1.0  0.24543  0.01266  0.25501  1.0000
  S   S132      1.0  0.98579  0.97369  0.35008  1.0000
  H   H789      1.0  0.35979  0.83753  0.04650  1.0000
  C   C998      1.0  0.29090  0.70335  0.32314  1.0000
  H   H790      1.0  0.98388  0.78217  0.04775  1.0000
  H   H791      1.0  0.92760  0.76263  0.40378  1.0000
  H   H792      1.0  0.20339  0.84849  0.31636  1.0000
  C   C999      1.0  0.22140  0.83220  0.31074  1.0000
  C   C1000     1.0  0.18517  0.67069  0.33573  1.0000
  H   H793      1.0  0.22634  0.98352  0.51229  1.0000
  P   P34       1.0  0.91775  0.87366  0.03699  1.0000
  C   C1001     1.0  0.17058  0.63123  0.52872  1.0000
  C   C1002     1.0  0.91936  0.92641  0.04725  1.0000
  C   C1003     1.0  0.39212  0.97238  0.10183  1.0000
  H   H794      1.0  0.21966  0.61650  0.05009  1.0000
  Fe  Fe66      1.0  0.22982  0.72887  0.04522  1.0000
  H   H795      1.0  0.92060  0.96720  0.05566  1.0000
  H   H796      1.0  0.23075  0.53699  0.52915  1.0000
  C   C1004     1.0  0.24920  0.03346  0.17220  1.0000
  C   C1005     1.0  0.98613  0.86269  0.03805  1.0000
  H   H797      1.0  0.91931  0.03396  0.05682  1.0000
  C   C1006     1.0  0.14009  0.63615  0.04064  1.0000
  C   C1007     1.0  0.91050  0.60815  0.27595  1.0000
  H   H798      1.0  0.39313  0.85469  0.25855  1.0000
  C   C1008     1.0  0.40062  0.61506  0.03622  1.0000
  H   H799      1.0  0.40135  0.76433  0.43525  1.0000
  C   C1009     1.0  0.40067  0.94740  0.08806  1.0000
  H   H800      1.0  0.40215  0.98943  0.07576  1.0000
  C   C1010     1.0  0.90317  0.63504  0.34196  1.0000
  C   C1011     1.0  0.44210  0.42619  0.56168  1.0000
  C   C1012     1.0  0.76783  0.47671  0.79586  1.0000
  C   C1013     1.0  0.49606  0.17619  0.99798  1.0000
  C   C1014     1.0  0.67029  0.06546  0.64914  1.0000
  H   H801      1.0  0.89896  0.36138  0.87944  1.0000
  H   H802      1.0  0.85098  0.14589  0.53650  1.0000
  H   H803      1.0  0.63166  0.29644  0.67223  1.0000
  H   H804      1.0  0.53855  0.18976  0.88081  1.0000
  H   H805      1.0  0.55680  0.15096  0.01610  1.0000
  C   C1015     1.0  0.57383  0.03979  0.98392  1.0000
  H   H806      1.0  0.90058  0.45078  0.79111  1.0000
  C   C1016     1.0  0.76343  0.21709  0.83072  1.0000
  C   C1017     1.0  0.63414  0.26081  0.84602  1.0000
  C   C1018     1.0  0.63678  0.45229  0.69493  1.0000
  C   C1019     1.0  0.43722  0.41259  0.90884  1.0000
  H   H807      1.0  0.71826  0.13260  0.60678  1.0000
  C   C1020     1.0  0.90020  0.43122  0.81038  1.0000
  H   H808      1.0  0.64672  0.48772  0.72054  1.0000
  C   C1021     1.0  0.62485  0.20502  0.84369  1.0000
  S   S133      1.0  0.77977  0.31011  0.02278  1.0000
  S   S134      1.0  0.84902  0.29834  0.64559  1.0000
  H   H809      1.0  0.79210  0.30245  0.78685  1.0000
  C   C1022     1.0  0.84346  0.17569  0.95380  1.0000
  C   C1023     1.0  0.64728  0.42655  0.68846  1.0000
  C   C1024     1.0  0.75712  0.40567  0.64480  1.0000
  H   H810      1.0  0.78619  0.04264  0.91944  1.0000
  H   H811      1.0  0.72704  0.20042  0.60927  1.0000
  C   C1025     1.0  0.53204  0.28405  0.72047  1.0000
  C   C1026     1.0  0.48776  0.29477  0.64206  1.0000
  H   H812      1.0  0.74975  0.24352  0.88584  1.0000
  H   H813      1.0  0.73914  0.30978  0.63076  1.0000
  C   C1027     1.0  0.61822  0.30675  0.84210  1.0000
  C   C1028     1.0  0.79266  0.36106  0.66961  1.0000
  C   C1029     1.0  0.57589  0.16607  0.01037  1.0000
  H   H814      1.0  0.85018  0.03875  0.89818  1.0000
  C   C1030     1.0  0.62652  0.20383  0.99815  1.0000
  C   C1031     1.0  0.60565  0.03916  0.94633  1.0000
  C   C1032     1.0  0.69399  0.43147  0.72406  1.0000
  C   C1033     1.0  0.67070  0.24409  0.64858  1.0000
  H   H815      1.0  0.59452  0.32118  0.91212  1.0000
  C   C1034     1.0  0.56636  0.18709  0.87316  1.0000
  H   H816      1.0  0.67429  0.11236  0.57846  1.0000
  H   H817      1.0  0.53751  0.06712  0.74032  1.0000
  H   H818      1.0  0.86232  0.24234  0.81880  1.0000
  H   H819      1.0  0.66244  0.17745  0.95607  1.0000
  H   H820      1.0  0.73673  0.14003  0.75415  1.0000
  H   H821      1.0  0.77432  0.37014  0.74398  1.0000
  H   H822      1.0  0.80611  0.34362  0.67944  1.0000
  C   C1035     1.0  0.71136  0.08052  0.78269  1.0000
  H   H823      1.0  0.89593  0.29986  0.77341  1.0000
  H   H824      1.0  0.62174  0.23995  0.91970  1.0000
  H   H825      1.0  0.62667  0.13866  0.86715  1.0000
  H   H826      1.0  0.70806  0.05610  0.85088  1.0000
  H   H827      1.0  0.62598  0.08647  0.68761  1.0000
  C   C1036     1.0  0.49910  0.37099  0.59307  1.0000
  C   C1037     1.0  0.61589  0.06869  0.62929  1.0000
  H   H828      1.0  0.51528  0.04154  0.82183  1.0000
  H   H829      1.0  0.44912  0.05089  0.65930  1.0000
  H   H830      1.0  0.80656  0.26232  0.86203  1.0000
  Fe  Fe67      1.0  0.87179  0.46646  0.58410  1.0000
  C   C1038     1.0  0.90245  0.40238  0.88315  1.0000
  C   C1039     1.0  0.49924  0.22919  0.77932  1.0000
  H   H831      1.0  0.75749  0.08550  0.93447  1.0000
  C   C1040     1.0  0.63288  0.28512  0.81826  1.0000
  C   C1041     1.0  0.75211  0.20460  0.79789  1.0000
  C   C1042     1.0  0.43298  0.03554  0.98578  1.0000
  Fe  Fe68      1.0  0.85111  0.28353  0.57456  1.0000
  C   C1043     1.0  0.66600  0.34459  0.72333  1.0000
  H   H832      1.0  0.43454  0.13449  0.68944  1.0000
  H   H833      1.0  0.81292  0.50103  0.76136  1.0000
  C   C1044     1.0  0.73930  0.39281  0.82969  1.0000
  C   C1045     1.0  0.47414  0.20391  0.65671  1.0000
  H   H834      1.0  0.76039  0.48589  0.82953  1.0000
  C   C1046     1.0  0.56630  0.18976  0.02999  1.0000
  C   C1047     1.0  0.43833  0.06451  0.80664  1.0000
  C   C1048     1.0  0.67541  0.36715  0.85810  1.0000
  C   C1049     1.0  0.46561  0.16246  0.63062  1.0000
  C   C1050     1.0  0.40811  0.41908  0.58911  1.0000
  C   C1051     1.0  0.78349  0.31823  0.85540  1.0000
  H   H835      1.0  0.88606  0.07768  0.88922  1.0000
  H   H836      1.0  0.42707  0.36483  0.84584  1.0000
  S   S135      1.0  0.50368  0.13768  0.85463  1.0000
  H   H837      1.0  0.47561  0.16129  0.94541  1.0000
  H   H838      1.0  0.84653  0.38148  0.72676  1.0000
  C   C1052     1.0  0.88735  0.24950  0.87266  1.0000
  C   C1053     1.0  0.46987  0.37401  0.63377  1.0000
  C   C1054     1.0  0.72508  0.08312  0.73127  1.0000
  C   C1055     1.0  0.45603  0.16207  0.53454  1.0000
  C   C1056     1.0  0.69944  0.17467  0.67356  1.0000
  H   H839      1.0  0.68577  0.07026  0.67165  1.0000
  C   C1057     1.0  0.87167  0.05981  0.62819  1.0000
  C   C1058     1.0  0.66484  0.34430  0.67509  1.0000
  H   H840      1.0  0.49475  0.19496  0.58233  1.0000
  H   H841      1.0  0.56287  0.14516  0.88957  1.0000
  H   H842      1.0  0.48665  0.08843  0.61730  1.0000
  P   P35       1.0  0.47096  0.14240  0.58158  1.0000
  H   H843      1.0  0.80557  0.12501  0.60825  1.0000
  C   C1059     1.0  0.69315  0.33206  0.73844  1.0000
  C   C1060     1.0  0.50981  0.06650  0.75879  1.0000
  H   H844      1.0  0.46883  0.28697  0.84462  1.0000
  H   H845      1.0  0.80563  0.35552  0.59278  1.0000
  H   H846      1.0  0.66598  0.17603  0.83829  1.0000
  H   H847      1.0  0.54400  0.23542  0.97996  1.0000
  C   C1061     1.0  0.62063  0.25847  0.89770  1.0000
  C   C1062     1.0  0.44305  0.26349  0.68797  1.0000
  H   H848      1.0  0.68939  0.35015  0.92252  1.0000
  P   P36       1.0  0.48549  0.27964  0.74020  1.0000
  C   C1063     1.0  0.61297  0.08540  0.94801  1.0000
  C   C1064     1.0  0.45454  0.19515  0.70498  1.0000
  C   C1065     1.0  0.74766  0.52043  0.66244  1.0000
  C   C1066     1.0  0.73575  0.16539  0.96516  1.0000
  C   C1067     1.0  0.75763  0.44417  0.74736  1.0000
  C   C1068     1.0  0.89620  0.19132  0.78835  1.0000
  S   S136      1.0  0.57736  0.17413  0.75070  1.0000
  C   C1069     1.0  0.52634  0.24450  0.01001  1.0000
  C   C1070     1.0  0.71870  0.20936  0.79392  1.0000
  C   C1071     1.0  0.74667  0.06365  0.70823  1.0000
  S   S137      1.0  0.58009  0.11042  0.76024  1.0000
  C   C1072     1.0  0.43944  0.04571  0.02516  1.0000
  H   H849      1.0  0.84927  0.28077  0.97386  1.0000
  S   S138      1.0  0.81008  0.24290  0.70184  1.0000
  H   H850      1.0  0.75684  0.06577  0.66845  1.0000
  C   C1073     1.0  0.59120  0.22614  0.58040  1.0000
  H   H851      1.0  0.57765  0.22790  0.85157  1.0000
  S   S139      1.0  0.72240  0.26215  0.98661  1.0000
  C   C1074     1.0  0.76163  0.18255  0.64873  1.0000
  H   H852      1.0  0.43339  0.08973  0.74291  1.0000
  H   H853      1.0  0.67447  0.17806  0.66709  1.0000
  C   C1075     1.0  0.48689  0.07997  0.73619  1.0000
  H   H854      1.0  0.61813  0.14343  0.96859  1.0000
  C   C1076     1.0  0.70703  0.13091  0.94192  1.0000
  C   C1077     1.0  0.86887  0.15482  0.84849  1.0000
  C   C1078     1.0  0.73458  0.15321  0.72255  1.0000
  H   H855      1.0  0.82337  0.13928  0.83636  1.0000
  H   H856      1.0  0.72505  0.44992  0.82082  1.0000
  C   C1079     1.0  0.71747  0.39701  0.79929  1.0000
  C   C1080     1.0  0.84552  0.17080  0.78099  1.0000
  C   C1081     1.0  0.44158  0.35002  0.77594  1.0000
  C   C1082     1.0  0.83795  0.05771  0.90261  1.0000
  H   H857      1.0  0.76452  0.40210  0.81876  1.0000
  C   C1083     1.0  0.72664  0.15397  0.92897  1.0000
  C   C1084     1.0  0.68323  0.45737  0.73046  1.0000
  H   H858      1.0  0.90087  0.12037  0.98274  1.0000
  H   H859      1.0  0.87251  0.20314  0.73075  1.0000
  C   C1085     1.0  0.44487  0.38794  0.92969  1.0000
  C   C1086     1.0  0.57706  0.13537  0.55029  1.0000
  H   H860      1.0  0.69482  0.09575  0.80046  1.0000
  S   S140      1.0  0.60779  0.38871  0.53783  1.0000
  C   C1087     1.0  0.45514  0.32894  0.74990  1.0000
  C   C1088     1.0  0.71897  0.52896  0.64688  1.0000
  C   C1089     1.0  0.73940  0.03835  0.78792  1.0000
  Fe  Fe69      1.0  0.79449  0.28264  0.67310  1.0000
  Fe  Fe70      1.0  0.81469  0.23257  0.62636  1.0000
  H   H861      1.0  0.41234  0.24942  0.64681  1.0000
  S   S141      1.0  0.87037  0.24418  0.59704  1.0000
  H   H862      1.0  0.78345  0.33505  0.92046  1.0000
  C   C1090     1.0  0.58862  0.20860  0.85642  1.0000
  H   H863      1.0  0.69376  0.33205  0.77598  1.0000
  H   H864      1.0  0.64583  0.35459  0.74891  1.0000
  C   C1091     1.0  0.65909  0.23840  0.75107  1.0000
  H   H865      1.0  0.83262  0.11225  0.00672  1.0000
  H   H866      1.0  0.45034  0.20764  0.73374  1.0000
  C   C1092     1.0  0.83448  0.32691  0.78453  1.0000
  H   H867      1.0  0.78937  0.16180  0.69560  1.0000
  C   C1093     1.0  0.87156  0.18968  0.76349  1.0000
  C   C1094     1.0  0.72635  0.15326  0.01390  1.0000
  H   H868      1.0  0.63482  0.20150  0.58544  1.0000
  C   C1095     1.0  0.61050  0.16172  0.98351  1.0000
  H   H869      1.0  0.54146  0.25989  0.66120  1.0000
  C   C1096     1.0  0.73912  0.15734  0.53797  1.0000
  C   C1097     1.0  0.58057  0.24889  0.55666  1.0000
  Fe  Fe71      1.0  0.80674  0.47249  0.54975  1.0000
  C   C1098     1.0  0.58003  0.16191  0.87782  1.0000
  C   C1099     1.0  0.82816  0.26185  0.87710  1.0000
  H   H870      1.0  0.55332  0.25414  0.56617  1.0000
  C   C1100     1.0  0.55287  0.27229  0.67994  1.0000
  C   C1101     1.0  0.80222  0.31490  0.80686  1.0000
  C   C1102     1.0  0.54772  0.29987  0.74418  1.0000
  C   C1103     1.0  0.44293  0.11778  0.91631  1.0000
  P   P37       1.0  0.89157  0.35606  0.78262  1.0000
  H   H871      1.0  0.42494  0.16356  0.75364  1.0000
  H   H872      1.0  0.41057  0.06411  0.82465  1.0000
  C   C1104     1.0  0.76429  0.16562  0.68970  1.0000
  S   S142      1.0  0.89146  0.45249  0.64851  1.0000
  S   S143      1.0  0.60118  0.32519  0.56115  1.0000
  P   P38       1.0  0.73147  0.41800  0.74121  1.0000
  C   C1105     1.0  0.51791  0.27093  0.00199  1.0000
  C   C1106     1.0  0.69114  0.33151  0.64186  1.0000
  H   H873      1.0  0.52582  0.23172  0.75589  1.0000
  S   S144      1.0  0.83633  0.50041  0.57598  1.0000
  C   C1107     1.0  0.47439  0.24907  0.77948  1.0000
  C   C1108     1.0  0.69455  0.25415  0.66805  1.0000
  Fe  Fe72      1.0  0.73841  0.22137  0.00816  1.0000
  S   S145      1.0  0.72749  0.04017  0.59937  1.0000
  C   C1109     1.0  0.46654  0.06336  0.01625  1.0000
  C   C1110     1.0  0.47092  0.16405  0.98376  1.0000
  H   H874      1.0  0.61418  0.04886  0.56824  1.0000
  H   H875      1.0  0.69778  0.43059  0.59293  1.0000
  H   H876      1.0  0.45676  0.42780  0.89698  1.0000
  H   H877      1.0  0.42860  0.25209  0.72173  1.0000
  Fe  Fe73      1.0  0.57096  0.17321  0.67573  1.0000
  H   H878      1.0  0.70427  0.51500  0.63586  1.0000
  C   C1111     1.0  0.78712  0.45309  0.70875  1.0000
  C   C1112     1.0  0.90158  0.25530  0.01028  1.0000
  C   C1113     1.0  0.90260  0.42757  0.85854  1.0000
  C   C1114     1.0  0.65118  0.23610  0.53288  1.0000
  H   H879      1.0  0.67477  0.40897  0.53736  1.0000
  S   S146      1.0  0.75840  0.19500  0.94921  1.0000
  C   C1115     1.0  0.68543  0.38402  0.81388  1.0000
  C   C1116     1.0  0.82979  0.34513  0.86013  1.0000
  C   C1117     1.0  0.71941  0.31930  0.70524  1.0000
  C   C1118     1.0  0.88422  0.26036  0.91646  1.0000
  C   C1119     1.0  0.43359  0.35427  0.59456  1.0000
  C   C1120     1.0  0.42647  0.17808  0.54857  1.0000
  H   H880      1.0  0.78917  0.21317  0.83447  1.0000
  C   C1121     1.0  0.60523  0.30433  0.89362  1.0000
  C   C1122     1.0  0.82551  0.18769  0.99510  1.0000
  C   C1123     1.0  0.48060  0.06093  0.92835  1.0000
  H   H881      1.0  0.42055  0.14551  0.00845  1.0000
  C   C1124     1.0  0.65472  0.46769  0.71594  1.0000
  H   H882      1.0  0.70778  0.25904  0.73353  1.0000
  C   C1125     1.0  0.89480  0.17408  0.83082  1.0000
  C   C1126     1.0  0.43744  0.34828  0.82640  1.0000
  C   C1127     1.0  0.48966  0.20536  0.80895  1.0000
  S   S147      1.0  0.74842  0.47095  0.57493  1.0000
  H   H883      1.0  0.62238  0.22339  0.66548  1.0000
  C   C1128     1.0  0.43363  0.26192  0.64525  1.0000
  C   C1129     1.0  0.72915  0.18736  0.64098  1.0000
  H   H884      1.0  0.50847  0.30797  0.64006  1.0000
  C   C1130     1.0  0.60399  0.29268  0.68620  1.0000
  Fe  Fe74      1.0  0.57344  0.11447  0.68461  1.0000
  C   C1131     1.0  0.62458  0.06231  0.92757  1.0000
  C   C1132     1.0  0.75612  0.39853  0.69421  1.0000
  S   S148      1.0  0.62963  0.35950  0.65830  1.0000
  H   H885      1.0  0.79264  0.12443  0.92795  1.0000
  C   C1133     1.0  0.69791  0.11865  0.99063  1.0000
  H   H886      1.0  0.51990  0.18288  0.97044  1.0000
  H   H887      1.0  0.61735  0.32547  0.82059  1.0000
  C   C1134     1.0  0.84210  0.10411  0.90657  1.0000
  H   H888      1.0  0.76541  0.09287  0.59662  1.0000
  C   C1135     1.0  0.84233  0.05109  0.56970  1.0000
  S   S149      1.0  0.83926  0.43798  0.56453  1.0000
  C   C1136     1.0  0.44595  0.15374  0.67941  1.0000
  H   H889      1.0  0.53754  0.15866  0.59350  1.0000
  C   C1137     1.0  0.46126  0.05065  0.82920  1.0000
  H   H890      1.0  0.66831  0.38653  0.79098  1.0000
  H   H891      1.0  0.64345  0.28754  0.77837  1.0000
  H   H892      1.0  0.43448  0.36788  0.75684  1.0000
  C   C1138     1.0  0.44704  0.32542  0.85109  1.0000
  H   H893      1.0  0.52923  0.28206  0.96626  1.0000
  C   C1139     1.0  0.41930  0.36857  0.94614  1.0000
  H   H894      1.0  0.49697  0.09112  0.70014  1.0000
  H   H895      1.0  0.45866  0.43487  0.57895  1.0000
  H   H896      1.0  0.68407  0.39645  0.69617  1.0000
  Fe  Fe75      1.0  0.86455  0.25785  0.66951  1.0000
  C   C1140     1.0  0.46108  0.12658  0.86740  1.0000
  H   H897      1.0  0.59555  0.31695  0.74427  1.0000
  H   H898      1.0  0.52443  0.37718  0.59284  1.0000
  H   H899      1.0  0.82963  0.48038  0.68418  1.0000
  H   H900      1.0  0.83980  0.35631  0.88215  1.0000
  C   C1141     1.0  0.78593  0.10165  0.56539  1.0000
  H   H901      1.0  0.82641  0.16966  0.76168  1.0000
  C   C1142     1.0  0.83113  0.13338  0.00299  1.0000
  C   C1143     1.0  0.70807  0.12962  0.02640  1.0000
  H   H902      1.0  0.71769  0.26394  0.64368  1.0000
  C   C1144     1.0  0.67582  0.41622  0.70273  1.0000
  C   C1145     1.0  0.78563  0.08398  0.92341  1.0000
  C   C1146     1.0  0.44430  0.11364  0.60664  1.0000
  H   H903      1.0  0.80022  0.28129  0.93960  1.0000
  C   C1147     1.0  0.58360  0.30406  0.72709  1.0000
  C   C1148     1.0  0.43041  0.22068  0.83820  1.0000
  C   C1149     1.0  0.64102  0.23126  0.68024  1.0000
  H   H904      1.0  0.85392  0.18789  0.91915  1.0000
  C   C1150     1.0  0.71866  0.05817  0.81103  1.0000
  H   H905      1.0  0.50873  0.18997  0.80839  1.0000
  C   C1151     1.0  0.47793  0.29338  0.59967  1.0000
  H   H906      1.0  0.73484  0.24136  0.54735  1.0000
  C   C1152     1.0  0.79742  0.33319  0.88214  1.0000
  H   H907      1.0  0.53241  0.30946  0.77509  1.0000
  C   C1153     1.0  0.63497  0.22881  0.73128  1.0000
  H   H908      1.0  0.45570  0.11682  0.94465  1.0000
  P   P39       1.0  0.65336  0.23263  0.81657  1.0000
  H   H909      1.0  0.89291  0.06871  0.63607  1.0000
  H   H910      1.0  0.75491  0.49993  0.66345  1.0000
  C   C1154     1.0  0.84404  0.15348  0.82340  1.0000
  C   C1155     1.0  0.43992  0.15528  0.01910  1.0000
  H   H911      1.0  0.59756  0.14371  0.56070  1.0000
  C   C1156     1.0  0.48722  0.07085  0.96788  1.0000
  H   H912      1.0  0.62867  0.10283  0.93473  1.0000
  C   C1157     1.0  0.80178  0.05985  0.91489  1.0000
  H   H913      1.0  0.40344  0.21723  0.85933  1.0000
  C   C1158     1.0  0.69712  0.36330  0.88832  1.0000
  H   H914      1.0  0.61164  0.21927  0.75507  1.0000
  H   H915      1.0  0.44803  0.18229  0.86010  1.0000
  S   S150      1.0  0.79938  0.19559  0.60491  1.0000
  H   H916      1.0  0.88993  0.07271  0.54992  1.0000
  C   C1159     1.0  0.79735  0.48530  0.75748  1.0000
  S   S151      1.0  0.75197  0.30287  0.72633  1.0000
  H   H917      1.0  0.42036  0.25963  0.80921  1.0000
  C   C1160     1.0  0.69608  0.22634  0.82340  1.0000
  C   C1161     1.0  0.77450  0.37626  0.70630  1.0000
  H   H918      1.0  0.50804  0.08477  0.96073  1.0000
  C   C1162     1.0  0.63623  0.07463  0.65824  1.0000
  H   H919      1.0  0.40572  0.24737  0.93004  1.0000
  C   C1163     1.0  0.62649  0.21930  0.56769  1.0000
  Fe  Fe76      1.0  0.61792  0.14332  0.72997  1.0000
  H   H920      1.0  0.44331  0.27616  0.56829  1.0000
  C   C1164     1.0  0.81658  0.03738  0.60792  1.0000
  C   C1165     1.0  0.45896  0.09016  0.62227  1.0000
  H   H921      1.0  0.86767  0.34240  0.55607  1.0000
  C   C1166     1.0  0.43716  0.36538  0.63472  1.0000
  C   C1167     1.0  0.45530  0.20104  0.83822  1.0000
  C   C1168     1.0  0.43772  0.06879  0.64652  1.0000
  C   C1169     1.0  0.74122  0.23428  0.85967  1.0000
  H   H922      1.0  0.40300  0.19277  0.96536  1.0000
  H   H923      1.0  0.77417  0.39557  0.57079  1.0000
  C   C1170     1.0  0.72893  0.37628  0.87426  1.0000
  C   C1171     1.0  0.44041  0.17014  0.71625  1.0000
  H   H924      1.0  0.47047  0.38403  0.93388  1.0000
  C   C1172     1.0  0.46239  0.35254  0.55286  1.0000
  C   C1173     1.0  0.86998  0.06219  0.57974  1.0000
  Fe  Fe77      1.0  0.53919  0.14122  0.77665  1.0000
  H   H925      1.0  0.82171  0.20857  0.99089  1.0000
  C   C1174     1.0  0.85956  0.25050  0.85287  1.0000
  H   H926      1.0  0.74570  0.37337  0.89776  1.0000
  P   P40       1.0  0.86753  0.13257  0.90345  1.0000
  C   C1175     1.0  0.60652  0.28020  0.92139  1.0000
  C   C1176     1.0  0.87150  0.37781  0.70078  1.0000
  H   H927      1.0  0.74375  0.42299  0.63442  1.0000
  C   C1177     1.0  0.85814  0.07979  0.89811  1.0000
  C   C1178     1.0  0.75460  0.04137  0.73641  1.0000
  C   C1179     1.0  0.40843  0.10983  0.92891  1.0000
  H   H928      1.0  0.65091  0.35689  0.86876  1.0000
  C   C1180     1.0  0.74800  0.45626  0.79085  1.0000
  H   H929      1.0  0.79500  0.44435  0.67461  1.0000
  C   C1181     1.0  0.84582  0.04615  0.66656  1.0000
  C   C1182     1.0  0.44440  0.12773  0.83084  1.0000
  H   H930      1.0  0.75858  0.30870  0.87262  1.0000
  H   H931      1.0  0.60437  0.26870  0.63006  1.0000
  C   C1183     1.0  0.80682  0.47360  0.71394  1.0000
  C   C1184     1.0  0.46499  0.30598  0.77431  1.0000
  C   C1185     1.0  0.63567  0.18077  0.97677  1.0000
  H   H932      1.0  0.64870  0.06243  0.89791  1.0000
  C   C1186     1.0  0.69158  0.12718  0.55399  1.0000
  C   C1187     1.0  0.82470  0.27264  0.92064  1.0000
  H   H933      1.0  0.61495  0.46032  0.68313  1.0000
  H   H934      1.0  0.84860  0.32379  0.74693  1.0000
  H   H935      1.0  0.44409  0.32405  0.89015  1.0000
  H   H936      1.0  0.75867  0.16583  0.55022  1.0000
  C   C1188     1.0  0.70226  0.15740  0.71406  1.0000
  H   H937      1.0  0.90132  0.31293  0.93998  1.0000
  H   H938      1.0  0.71871  0.10020  0.70923  1.0000
  C   C1189     1.0  0.61595  0.15822  0.86552  1.0000
  H   H939      1.0  0.86077  0.22874  0.01454  1.0000
  H   H940      1.0  0.40837  0.34781  0.59508  1.0000
  C   C1190     1.0  0.80858  0.11965  0.57175  1.0000
  C   C1191     1.0  0.45106  0.27689  0.60109  1.0000
  C   C1192     1.0  0.68880  0.25137  0.71910  1.0000
  C   C1193     1.0  0.58218  0.08562  0.98701  1.0000
  H   H941      1.0  0.69103  0.25210  0.87949  1.0000
  C   C1194     1.0  0.59203  0.20820  0.02500  1.0000
  H   H942      1.0  0.76923  0.19138  0.77522  1.0000
  C   C1195     1.0  0.81824  0.03449  0.65670  1.0000
  H   H943      1.0  0.59711  0.27837  0.96140  1.0000
  H   H944      1.0  0.85659  0.39621  0.63813  1.0000
  H   H945      1.0  0.57379  0.10331  0.00387  1.0000
  C   C1196     1.0  0.45331  0.04322  0.93693  1.0000
  H   H946      1.0  0.84734  0.04492  0.70380  1.0000
  C   C1197     1.0  0.89714  0.40967  0.78695  1.0000
  C   C1198     1.0  0.68442  0.05052  0.61061  1.0000
  S   S152      1.0  0.52920  0.14269  0.70342  1.0000
  H   H947      1.0  0.69691  0.46980  0.74598  1.0000
  C   C1199     1.0  0.63831  0.17964  0.84874  1.0000
  H   H948      1.0  0.69949  0.12237  0.91408  1.0000
  H   H949      1.0  0.89525  0.41314  0.74966  1.0000
  H   H950      1.0  0.73389  0.16335  0.89125  1.0000
  C   C1200     1.0  0.89831  0.36548  0.71732  1.0000
  C   C1201     1.0  0.49711  0.05195  0.80506  1.0000
  C   C1202     1.0  0.71869  0.31931  0.65671  1.0000
  C   C1203     1.0  0.89642  0.38423  0.81172  1.0000
  H   H951      1.0  0.90235  0.52240  0.80533  1.0000
  H   H952      1.0  0.69022  0.33074  0.60493  1.0000
  H   H953      1.0  0.71052  0.19993  0.76758  1.0000
  C   C1204     1.0  0.71646  0.13851  0.56983  1.0000
  C   C1205     1.0  0.85267  0.27224  0.94000  1.0000
  S   S153      1.0  0.55934  0.20790  0.62724  1.0000
  C   C1206     1.0  0.45116  0.07908  0.76018  1.0000
  S   S154      1.0  0.66612  0.14023  0.75397  1.0000
  C   C1207     1.0  0.46086  0.30434  0.82517  1.0000
  C   C1208     1.0  0.58859  0.27696  0.66249  1.0000
  C   C1209     1.0  0.70759  0.23879  0.85640  1.0000
  H   H954      1.0  0.67513  0.24639  0.60908  1.0000
  H   H955      1.0  0.48607  0.22302  0.64816  1.0000
  H   H956      1.0  0.47271  0.38277  0.66469  1.0000
  S   S155      1.0  0.57394  0.08173  0.64013  1.0000
  C   C1210     1.0  0.84607  0.14839  0.95725  1.0000
  H   H957      1.0  0.49086  0.30547  0.56586  1.0000
  C   C1211     1.0  0.40403  0.41791  0.90438  1.0000
  H   H958      1.0  0.83225  0.34329  0.03128  1.0000
  H   H959      1.0  0.64622  0.21829  0.99429  1.0000
  C   C1212     1.0  0.80565  0.10599  0.91979  1.0000
  S   S156      1.0  0.67480  0.08920  0.00638  1.0000
  C   C1213     1.0  0.56251  0.06284  0.00473  1.0000
  H   H960      1.0  0.78925  0.53134  0.68816  1.0000
  C   C1214     1.0  0.89947  0.38080  0.85979  1.0000
  C   C1215     1.0  0.47103  0.27922  0.68633  1.0000
  S   S157      1.0  0.79530  0.27117  0.59969  1.0000
  C   C1216     1.0  0.73196  0.45614  0.53445  1.0000
  C   C1217     1.0  0.84867  0.34212  0.81100  1.0000
  H   H961      1.0  0.49658  0.06761  0.89136  1.0000
  H   H962      1.0  0.63378  0.41467  0.67141  1.0000
  C   C1218     1.0  0.47938  0.18779  0.61952  1.0000
  S   S158      1.0  0.61468  0.14503  0.65276  1.0000
  C   C1219     1.0  0.87710  0.38618  0.65054  1.0000
  C   C1220     1.0  0.79240  0.36778  0.62081  1.0000
  H   H963      1.0  0.72111  0.28807  0.55717  1.0000
  H   H964      1.0  0.45820  0.33077  0.71072  1.0000
  H   H965      1.0  0.41630  0.26855  0.99733  1.0000
  H   H966      1.0  0.45860  0.13440  0.79295  1.0000
  C   C1221     1.0  0.77466  0.39015  0.60844  1.0000
  C   C1222     1.0  0.66427  0.04443  0.58132  1.0000
  C   C1223     1.0  0.44002  0.24471  0.80949  1.0000
  C   C1224     1.0  0.62978  0.05338  0.59095  1.0000
  C   C1225     1.0  0.54274  0.14385  0.56876  1.0000
  C   C1226     1.0  0.49526  0.36046  0.55238  1.0000
  Fe  Fe78      1.0  0.62965  0.35647  0.58061  1.0000
  C   C1227     1.0  0.70678  0.43662  0.55362  1.0000
  H   H967      1.0  0.42544  0.34994  0.96357  1.0000
  C   C1228     1.0  0.51589  0.13274  0.55620  1.0000
  H   H968      1.0  0.41292  0.17922  0.58731  1.0000
  H   H969      1.0  0.88862  0.19422  0.53870  1.0000
  C   C1229     1.0  0.40914  0.12064  0.84379  1.0000
  C   C1230     1.0  0.40807  0.11543  0.61659  1.0000
  H   H970      1.0  0.83698  0.17283  0.35794  1.0000
  H   H971      1.0  0.80236  0.27648  0.17831  1.0000
  H   H972      1.0  0.77037  0.09629  0.27439  1.0000
  C   C1231     1.0  0.80030  0.31004  0.06864  1.0000
  C   C1232     1.0  0.78924  0.39972  0.44659  1.0000
  H   H973      1.0  0.80086  0.13403  0.07911  1.0000
  H   H974      1.0  0.58909  0.23804  0.22025  1.0000
  S   S159      1.0  0.86778  0.20250  0.21732  1.0000
  C   C1233     1.0  0.78906  0.09533  0.51834  1.0000
  H   H975      1.0  0.65965  0.38598  0.30188  1.0000
  H   H976      1.0  0.81356  0.37965  0.49818  1.0000
  C   C1234     1.0  0.73092  0.24338  0.37689  1.0000
  H   H977      1.0  0.88527  0.52746  0.07448  1.0000
  Fe  Fe79      1.0  0.65546  0.38241  0.47531  1.0000
  H   H978      1.0  0.68345  0.26961  0.33019  1.0000
  H   H979      1.0  0.69429  0.45568  0.35147  1.0000
  C   C1235     1.0  0.82571  0.32865  0.06326  1.0000
  H   H980      1.0  0.50333  0.25335  0.50892  1.0000
  H   H981      1.0  0.55879  0.17603  0.45085  1.0000
  H   H982      1.0  0.43692  0.10065  0.27537  1.0000
  C   C1236     1.0  0.53121  0.27466  0.38575  1.0000
  H   H983      1.0  0.69203  0.25244  0.25019  1.0000
  H   H984      1.0  0.80873  0.46708  0.11152  1.0000
  S   S160      1.0  0.68927  0.21260  0.06987  1.0000
  H   H985      1.0  0.55155  0.04019  0.52588  1.0000
  C   C1237     1.0  0.76167  0.46321  0.24461  1.0000
  C   C1238     1.0  0.81597  0.18444  0.18494  1.0000
  C   C1239     1.0  0.45842  0.17200  0.08235  1.0000
  H   H986      1.0  0.68065  0.33244  0.35401  1.0000
  H   H987      1.0  0.77977  0.25990  0.33057  1.0000
  C   C1240     1.0  0.41852  0.34453  0.45475  1.0000
  C   C1241     1.0  0.88003  0.37717  0.50300  1.0000
  C   C1242     1.0  0.60349  0.18725  0.46952  1.0000
  C   C1243     1.0  0.54915  0.26148  0.19957  1.0000
  S   S161      1.0  0.48182  0.05018  0.18590  1.0000
  H   H988      1.0  0.77127  0.08138  0.51382  1.0000
  C   C1244     1.0  0.84419  0.41387  0.25666  1.0000
  S   S162      1.0  0.87863  0.29897  0.49603  1.0000
  H   H989      1.0  0.55131  0.34460  0.17002  1.0000
  C   C1245     1.0  0.72985  0.32655  0.36852  1.0000
  C   C1246     1.0  0.85769  0.11401  0.14182  1.0000
  H   H990      1.0  0.74619  0.41099  0.23891  1.0000
  H   H991      1.0  0.87013  0.06914  0.06147  1.0000
  H   H992      1.0  0.59616  0.28767  0.23997  1.0000
  H   H993      1.0  0.88227  0.09650  0.37815  1.0000
  C   C1247     1.0  0.51940  0.18397  0.12943  1.0000
  C   C1248     1.0  0.83842  0.31588  0.35433  1.0000
  C   C1249     1.0  0.84654  0.49768  0.08804  1.0000
  S   S163      1.0  0.43121  0.25494  0.34190  1.0000
  Fe  Fe80      1.0  0.64880  0.32262  0.49635  1.0000
  C   C1250     1.0  0.59454  0.16722  0.29461  1.0000
  H   H994      1.0  0.45250  0.17559  0.12051  1.0000
  H   H995      1.0  0.78832  0.41831  0.46067  1.0000
  C   C1251     1.0  0.82392  0.43671  0.26153  1.0000
  H   H996      1.0  0.48183  0.11336  0.40789  1.0000
  C   C1252     1.0  0.52594  0.20066  0.16057  1.0000
  H   H997      1.0  0.86965  0.08526  0.30447  1.0000
  P   P41       1.0  0.41764  0.03903  0.49822  1.0000
  H   H998      1.0  0.49869  0.24269  0.42866  1.0000
  C   C1253     1.0  0.72936  0.45213  0.45178  1.0000
  H   H999      1.0  0.86544  0.40881  0.36345  1.0000
  C   C1254     1.0  0.75742  0.10913  0.30157  1.0000
  C   C1255     1.0  0.74911  0.48516  0.22054  1.0000
  H   H1000     1.0  0.48716  0.34147  0.20550  1.0000
  C   C1256     1.0  0.74336  0.46384  0.48339  1.0000
  C   C1257     1.0  0.63337  0.37931  0.32089  1.0000
  C   C1258     1.0  0.67942  0.09450  0.28470  1.0000
  H   H1001     1.0  0.67272  0.49448  0.30884  1.0000
  H   H1002     1.0  0.80648  0.06408  0.10080  1.0000
  H   H1003     1.0  0.63224  0.29677  0.36443  1.0000
  C   C1259     1.0  0.60385  0.16454  0.18189  1.0000
  C   C1260     1.0  0.48012  0.26853  0.08602  1.0000
  C   C1261     1.0  0.41247  0.29976  0.49371  1.0000
  Fe  Fe81      1.0  0.73748  0.06609  0.13361  1.0000
  C   C1262     1.0  0.54646  0.32360  0.28994  1.0000
  C   C1263     1.0  0.58139  0.24887  0.19021  1.0000
  C   C1264     1.0  0.80480  0.35391  0.44975  1.0000
  C   C1265     1.0  0.89782  0.06283  0.21330  1.0000
  H   H1004     1.0  0.41749  0.49698  0.09953  1.0000
  H   H1005     1.0  0.76581  0.41448  0.39010  1.0000
  C   C1266     1.0  0.89454  0.29501  0.34768  1.0000
  H   H1006     1.0  0.52399  0.20539  0.23503  1.0000
  H   H1007     1.0  0.84602  0.42496  0.12839  1.0000
  H   H1008     1.0  0.56985  0.31775  0.43361  1.0000
  C   C1267     1.0  0.85448  0.41692  0.33468  1.0000
  C   C1268     1.0  0.62229  0.35534  0.31309  1.0000
  Fe  Fe82      1.0  0.87309  0.44838  0.48722  1.0000
  S   S164      1.0  0.52283  0.26100  0.26039  1.0000
  C   C1269     1.0  0.80342  0.09343  0.14918  1.0000
  H   H1009     1.0  0.49622  0.12950  0.21251  1.0000
  C   C1270     1.0  0.62964  0.20210  0.30428  1.0000
  H   H1010     1.0  0.63439  0.10474  0.11026  1.0000
  H   H1011     1.0  0.43352  0.13013  0.33863  1.0000
  H   H1012     1.0  0.54438  0.21974  0.33381  1.0000
  C   C1271     1.0  0.82171  0.41438  0.14372  1.0000
  C   C1272     1.0  0.73902  0.28269  0.52320  1.0000
  S   S165      1.0  0.67062  0.28329  0.47541  1.0000
  S   S166      1.0  0.76772  0.23404  0.05650  1.0000
  P   P42       1.0  0.59207  0.13563  0.27513  1.0000
  H   H1013     1.0  0.83347  0.16871  0.17194  1.0000
  C   C1273     1.0  0.73637  0.16534  0.49066  1.0000
  H   H1014     1.0  0.61467  0.18704  0.11019  1.0000
  H   H1015     1.0  0.87551  0.38665  0.28910  1.0000
  P   P43       1.0  0.57394  0.31538  0.32927  1.0000
  S   S167      1.0  0.85000  0.04348  0.39200  1.0000
  H   H1016     1.0  0.81284  0.23958  0.23931  1.0000
  C   C1274     1.0  0.82677  0.20370  0.20733  1.0000
  Fe  Fe83      1.0  0.46672  0.26213  0.26496  1.0000
  H   H1017     1.0  0.59708  0.28367  0.50556  1.0000
  H   H1018     1.0  0.63497  0.14867  0.06474  1.0000
  H   H1019     1.0  0.47314  0.17515  0.40917  1.0000
  C   C1275     1.0  0.41662  0.12919  0.22930  1.0000
  S   S168      1.0  0.68852  0.41638  0.43123  1.0000
  C   C1276     1.0  0.52896  0.12428  0.34933  1.0000
  H   H1020     1.0  0.76588  0.31098  0.23319  1.0000
  C   C1277     1.0  0.89156  0.19415  0.39719  1.0000
  C   C1278     1.0  0.86948  0.51263  0.10137  1.0000
  C   C1279     1.0  0.73685  0.11820  0.38666  1.0000
  C   C1280     1.0  0.52175  0.04841  0.47443  1.0000
  C   C1281     1.0  0.55383  0.30185  0.43179  1.0000
  H   H1021     1.0  0.77327  0.22920  0.46783  1.0000
  C   C1282     1.0  0.70783  0.32760  0.33880  1.0000
  S   S169      1.0  0.44618  0.22917  0.23929  1.0000
  C   C1283     1.0  0.76079  0.38500  0.18356  1.0000
  C   C1284     1.0  0.51036  0.15788  0.14807  1.0000
  H   H1022     1.0  0.46211  0.27777  0.11556  1.0000
  H   H1023     1.0  0.80120  0.26342  0.40035  1.0000
  H   H1024     1.0  0.50280  0.16015  0.26888  1.0000
  C   C1285     1.0  0.70959  0.46387  0.31484  1.0000
  H   H1025     1.0  0.65578  0.14246  0.37360  1.0000
  H   H1026     1.0  0.70145  0.12010  0.06399  1.0000
  H   H1027     1.0  0.58539  0.22590  0.04224  1.0000
  C   C1286     1.0  0.71088  0.15443  0.47493  1.0000
  Fe  Fe84      1.0  0.40854  0.22342  0.31475  1.0000
  S   S170      1.0  0.67853  0.35187  0.51913  1.0000
  S   S171      1.0  0.75194  0.06947  0.05132  1.0000
  C   C1287     1.0  0.53869  0.27480  0.16059  1.0000
  H   H1028     1.0  0.86146  0.34324  0.09578  1.0000
  H   H1029     1.0  0.83586  0.22590  0.10506  1.0000
  H   H1030     1.0  0.86321  0.25032  0.15307  1.0000
  C   C1288     1.0  0.56734  0.20757  0.32311  1.0000
  C   C1289     1.0  0.43084  0.19167  0.46261  1.0000
  H   H1031     1.0  0.55941  0.39739  0.40505  1.0000
  C   C1290     1.0  0.82074  0.07792  0.11251  1.0000
  P   P44       1.0  0.80324  0.44888  0.21517  1.0000
  C   C1291     1.0  0.82670  0.47823  0.12240  1.0000
  H   H1032     1.0  0.84054  0.11742  0.25714  1.0000
  C   C1292     1.0  0.72087  0.32230  0.28985  1.0000
  S   S172      1.0  0.43179  0.29152  0.23824  1.0000
  P   P45       1.0  0.86835  0.14301  0.42937  1.0000
  Fe  Fe85      1.0  0.86989  0.50630  0.49700  1.0000
  H   H1033     1.0  0.48639  0.05295  0.43102  1.0000
  C   C1293     1.0  0.47305  0.16132  0.48392  1.0000
  H   H1034     1.0  0.80928  0.21701  0.32084  1.0000
  C   C1294     1.0  0.84269  0.32837  0.09938  1.0000
  C   C1295     1.0  0.87297  0.50792  0.14885  1.0000
  C   C1296     1.0  0.74149  0.45254  0.29191  1.0000
  H   H1035     1.0  0.59240  0.14667  0.39122  1.0000
  C   C1297     1.0  0.79140  0.29149  0.11065  1.0000
  H   H1036     1.0  0.83610  0.38790  0.08860  1.0000
  H   H1037     1.0  0.71784  0.16848  0.30860  1.0000
  C   C1298     1.0  0.81334  0.14558  0.04431  1.0000
  C   C1299     1.0  0.45984  0.03958  0.50777  1.0000
  C   C1300     1.0  0.87399  0.25137  0.11336  1.0000
  C   C1301     1.0  0.48888  0.04792  0.46779  1.0000
  H   H1038     1.0  0.67855  0.23130  0.52395  1.0000
  C   C1302     1.0  0.78225  0.18548  0.17990  1.0000
  H   H1039     1.0  0.54703  0.04245  0.21709  1.0000
  C   C1303     1.0  0.41157  0.16210  0.30210  1.0000
  C   C1304     1.0  0.56475  0.18285  0.30952  1.0000
  H   H1040     1.0  0.53962  0.17629  0.30993  1.0000
  H   H1041     1.0  0.76389  0.49376  0.18405  1.0000
  H   H1042     1.0  0.46079  0.32813  0.29534  1.0000
  C   C1305     1.0  0.71714  0.49638  0.24360  1.0000
  H   H1043     1.0  0.78179  0.36189  0.12382  1.0000
  C   C1306     1.0  0.61545  0.28471  0.25934  1.0000
  C   C1307     1.0  0.76553  0.24214  0.34791  1.0000
  H   H1044     1.0  0.51357  0.28432  0.16787  1.0000
  C   C1308     1.0  0.56143  0.27657  0.11230  1.0000
  H   H1045     1.0  0.48207  0.42540  0.49225  1.0000
  C   C1309     1.0  0.89226  0.22082  0.40093  1.0000
  C   C1310     1.0  0.41001  0.07192  0.47391  1.0000
  H   H1046     1.0  0.49808  0.31697  0.34889  1.0000
  H   H1047     1.0  0.80579  0.46829  0.30631  1.0000
  S   S173      1.0  0.63018  0.35274  0.44632  1.0000
  H   H1048     1.0  0.85314  0.04221  0.26336  1.0000
  H   H1049     1.0  0.59562  0.18164  0.20071  1.0000
  H   H1050     1.0  0.42094  0.20283  0.43477  1.0000
  H   H1051     1.0  0.70388  0.32308  0.26673  1.0000
  C   C1311     1.0  0.56110  0.33252  0.23961  1.0000
  H   H1052     1.0  0.76834  0.37259  0.35740  1.0000
  H   H1053     1.0  0.90139  0.32987  0.40372  1.0000
  H   H1054     1.0  0.75026  0.43546  0.31127  1.0000
  H   H1055     1.0  0.89980  0.34103  0.24954  1.0000
  H   H1056     1.0  0.89145  0.51926  0.15840  1.0000
  C   C1312     1.0  0.76521  0.32041  0.34936  1.0000
  H   H1057     1.0  0.70570  0.09226  0.26141  1.0000
  C   C1313     1.0  0.51388  0.25929  0.42970  1.0000
  H   H1058     1.0  0.61637  0.09871  0.20162  1.0000
  C   C1314     1.0  0.63433  0.08251  0.36120  1.0000
  H   H1059     1.0  0.62910  0.24112  0.13525  1.0000
  H   H1060     1.0  0.53865  0.06287  0.03505  1.0000
  H   H1061     1.0  0.61966  0.41265  0.36122  1.0000
  C   C1315     1.0  0.85865  0.23772  0.08629  1.0000
  C   C1316     1.0  0.78212  0.21800  0.34223  1.0000
  H   H1062     1.0  0.73800  0.45832  0.41245  1.0000
  C   C1317     1.0  0.80863  0.29118  0.14656  1.0000
  C   C1318     1.0  0.86990  0.11091  0.35777  1.0000
  C   C1319     1.0  0.42979  0.31852  0.45541  1.0000
  C   C1320     1.0  0.49745  0.11095  0.37062  1.0000
  C   C1321     1.0  0.72738  0.14974  0.32126  1.0000
  C   C1322     1.0  0.45526  0.42086  0.51283  1.0000
  C   C1323     1.0  0.80419  0.22420  0.22346  1.0000
  C   C1324     1.0  0.46039  0.17603  0.44821  1.0000
  H   H1063     1.0  0.80458  0.30842  0.28499  1.0000
  H   H1064     1.0  0.77368  0.17035  0.16337  1.0000
  H   H1065     1.0  0.41108  0.13411  0.50107  1.0000
  C   C1325     1.0  0.86038  0.13548  0.37381  1.0000
  Fe  Fe86      1.0  0.71754  0.22782  0.11730  1.0000
  C   C1326     1.0  0.60518  0.26568  0.52270  1.0000
  C   C1327     1.0  0.77643  0.29544  0.43969  1.0000
  Fe  Fe87      1.0  0.42803  0.06680  0.20792  1.0000
  H   H1066     1.0  0.84816  0.40347  0.22498  1.0000
  C   C1328     1.0  0.74424  0.13314  0.28643  1.0000
  H   H1067     1.0  0.40982  0.15270  0.09612  1.0000
  C   C1329     1.0  0.69743  0.48577  0.29079  1.0000
  C   C1330     1.0  0.85670  0.08045  0.09070  1.0000
  C   C1331     1.0  0.85955  0.29828  0.37403  1.0000
  H   H1068     1.0  0.76249  0.47913  0.46837  1.0000
  C   C1332     1.0  0.72366  0.14245  0.37169  1.0000
  C   C1333     1.0  0.52587  0.04078  0.52108  1.0000
  H   H1069     1.0  0.47155  0.07106  0.04696  1.0000
  C   C1334     1.0  0.81456  0.10720  0.47725  1.0000
  C   C1335     1.0  0.72813  0.19594  0.38969  1.0000
  C   C1336     1.0  0.84031  0.18925  0.46839  1.0000
  C   C1337     1.0  0.62575  0.12136  0.13052  1.0000
  S   S174      1.0  0.62397  0.26880  0.04422  1.0000
  C   C1338     1.0  0.66462  0.27399  0.31026  1.0000
  C   C1339     1.0  0.49503  0.28300  0.04016  1.0000
  C   C1340     1.0  0.78381  0.26901  0.43438  1.0000
  C   C1341     1.0  0.48803  0.24200  0.09391  1.0000
  S   S175      1.0  0.74956  0.04322  0.45937  1.0000
  C   C1342     1.0  0.88100  0.04163  0.24603  1.0000
  H   H1070     1.0  0.47516  0.23092  0.12912  1.0000
  H   H1071     1.0  0.73751  0.37331  0.19928  1.0000
  S   S176      1.0  0.89998  0.37392  0.15741  1.0000
  H   H1072     1.0  0.81935  0.17783  0.49439  1.0000
  C   C1343     1.0  0.81635  0.39313  0.12124  1.0000
  C   C1344     1.0  0.60561  0.15756  0.40997  1.0000
  C   C1345     1.0  0.41398  0.19277  0.51274  1.0000
  H   H1073     1.0  0.55282  0.10061  0.23782  1.0000
  H   H1074     1.0  0.52941  0.26966  0.35106  1.0000
  C   C1346     1.0  0.85341  0.48831  0.18324  1.0000
  C   C1347     1.0  0.83492  0.30922  0.14034  1.0000
  H   H1075     1.0  0.53938  0.35559  0.39061  1.0000
  C   C1348     1.0  0.77661  0.39756  0.40685  1.0000
  H   H1076     1.0  0.74626  0.32221  0.48902  1.0000
  H   H1077     1.0  0.71872  0.26221  0.38377  1.0000
  C   C1349     1.0  0.69362  0.42437  0.52199  1.0000
  C   C1350     1.0  0.61545  0.11807  0.18217  1.0000
  H   H1078     1.0  0.90262  0.45252  0.25200  1.0000
  H   H1079     1.0  0.50385  0.10393  0.51493  1.0000
  C   C1351     1.0  0.42458  0.13674  0.30724  1.0000
  H   H1080     1.0  0.81582  0.10204  0.44130  1.0000
  C   C1352     1.0  0.63930  0.18421  0.46112  1.0000
  H   H1081     1.0  0.75392  0.18014  0.46687  1.0000
  C   C1353     1.0  0.77792  0.37363  0.38855  1.0000
  H   H1082     1.0  0.76768  0.04777  0.25234  1.0000
  C   C1354     1.0  0.75578  0.31545  0.27093  1.0000
  H   H1083     1.0  0.53442  0.22051  0.14645  1.0000
  H   H1084     1.0  0.77157  0.27716  0.11534  1.0000
  H   H1085     1.0  0.44510  0.40431  0.45359  1.0000
  H   H1086     1.0  0.84448  0.50104  0.05084  1.0000
  C   C1355     1.0  0.83562  0.44025  0.33894  1.0000
  C   C1356     1.0  0.50620  0.09096  0.29591  1.0000
  C   C1357     1.0  0.70475  0.43209  0.47099  1.0000
  C   C1358     1.0  0.60445  0.13967  0.20833  1.0000
  H   H1087     1.0  0.83256  0.45034  0.37100  1.0000
  C   C1359     1.0  0.61107  0.09911  0.34411  1.0000
  C   C1360     1.0  0.61074  0.39449  0.35398  1.0000
  H   H1088     1.0  0.43269  0.35882  0.42517  1.0000
  C   C1361     1.0  0.49030  0.17969  0.04758  1.0000
  C   C1362     1.0  0.82184  0.11152  0.16370  1.0000
  H   H1089     1.0  0.45185  0.31288  0.42615  1.0000
  C   C1363     1.0  0.54945  0.12092  0.30104  1.0000
  C   C1364     1.0  0.43426  0.40875  0.49118  1.0000
  H   H1090     1.0  0.87388  0.39044  0.53063  1.0000
  C   C1365     1.0  0.84178  0.21574  0.47299  1.0000
  P   P46       1.0  0.79333  0.32034  0.38806  1.0000
  H   H1091     1.0  0.53775  0.13658  0.37103  1.0000
  P   P47       1.0  0.52225  0.19571  0.06615  1.0000
  C   C1366     1.0  0.77070  0.22529  0.21842  1.0000
  C   C1367     1.0  0.58493  0.11583  0.51912  1.0000
  H   H1092     1.0  0.62585  0.07094  0.39712  1.0000
  C   C1368     1.0  0.86268  0.10442  0.31596  1.0000
  C   C1369     1.0  0.71212  0.22039  0.39755  1.0000
  C   C1370     1.0  0.63559  0.28945  0.32939  1.0000
  C   C1371     1.0  0.59433  0.26490  0.10336  1.0000
  C   C1372     1.0  0.61453  0.16774  0.13028  1.0000
  H   H1093     1.0  0.42084  0.27957  0.49369  1.0000
  H   H1094     1.0  0.81608  0.33717  0.46649  1.0000
  H   H1095     1.0  0.68532  0.22212  0.41917  1.0000
  C   C1373     1.0  0.75957  0.20594  0.19676  1.0000
  C   C1374     1.0  0.50480  0.14932  0.19811  1.0000
  C   C1375     1.0  0.55856  0.10497  0.50576  1.0000
  H   H1096     1.0  0.82419  0.16094  0.28428  1.0000
  C   C1376     1.0  0.89927  0.36975  0.41716  1.0000
  C   C1377     1.0  0.89130  0.38699  0.45272  1.0000
  C   C1378     1.0  0.64168  0.15521  0.40019  1.0000
  C   C1379     1.0  0.59970  0.21703  0.32118  1.0000
  C   C1380     1.0  0.65892  0.16898  0.42514  1.0000
  C   C1381     1.0  0.61109  0.29533  0.30355  1.0000
  H   H1097     1.0  0.76390  0.08296  0.36317  1.0000
  C   C1382     1.0  0.51640  0.26529  0.47476  1.0000
  H   H1098     1.0  0.87160  0.12828  0.15273  1.0000
  H   H1099     1.0  0.79626  0.18203  0.07235  1.0000
  H   H1100     1.0  0.42619  0.08904  0.52859  1.0000
  C   C1383     1.0  0.68878  0.13509  0.50674  1.0000
  C   C1384     1.0  0.84607  0.12241  0.28965  1.0000
  C   C1385     1.0  0.42672  0.12016  0.27125  1.0000
  C   C1386     1.0  0.58663  0.17402  0.44372  1.0000
  Fe  Fe88      1.0  0.67542  0.25445  0.05193  1.0000
  H   H1101     1.0  0.58466  0.10010  0.36766  1.0000
  S   S177      1.0  0.53111  0.35646  0.50079  1.0000
  C   C1387     1.0  0.86769  0.23149  0.43936  1.0000
  H   H1102     1.0  0.61138  0.10881  0.50600  1.0000
  C   C1388     1.0  0.82048  0.45024  0.30236  1.0000
  C   C1389     1.0  0.84409  0.15362  0.34688  1.0000
  H   H1103     1.0  0.80826  0.12398  0.19108  1.0000
  C   C1390     1.0  0.64046  0.25976  0.51179  1.0000
  C   C1391     1.0  0.66848  0.08014  0.33140  1.0000
  C   C1392     1.0  0.55078  0.29635  0.38656  1.0000
  C   C1393     1.0  0.89526  0.34292  0.43148  1.0000
  H   H1104     1.0  0.42390  0.03962  0.06283  1.0000
  C   C1394     1.0  0.88850  0.32873  0.28385  1.0000
  P   P48       1.0  0.70523  0.16548  0.41532  1.0000
  H   H1105     1.0  0.58901  0.33429  0.22370  1.0000
  S   S178      1.0  0.85933  0.30709  0.18213  1.0000
  H   H1106     1.0  0.70769  0.51335  0.22487  1.0000
  H   H1107     1.0  0.84937  0.28805  0.41065  1.0000
  C   C1395     1.0  0.64477  0.26953  0.24006  1.0000
  C   C1396     1.0  0.87625  0.35003  0.51737  1.0000
  H   H1108     1.0  0.56489  0.08973  0.48184  1.0000
  C   C1397     1.0  0.83681  0.14698  0.30509  1.0000
  Fe  Fe89      1.0  0.74731  0.27408  0.04043  1.0000
  H   H1109     1.0  0.83797  0.34612  0.29455  1.0000
  H   H1110     1.0  0.74705  0.13884  0.24753  1.0000
  C   C1398     1.0  0.52413  0.11318  0.52447  1.0000
  C   C1399     1.0  0.48882  0.32936  0.27967  1.0000
  S   S179      1.0  0.41445  0.04794  0.28649  1.0000
  C   C1400     1.0  0.53978  0.33873  0.20919  1.0000
  C   C1401     1.0  0.75356  0.30211  0.48432  1.0000
  C   C1402     1.0  0.53770  0.10410  0.27463  1.0000
  S   S180      1.0  0.83796  0.48054  0.47047  1.0000
  C   C1403     1.0  0.51011  0.32279  0.30997  1.0000
  H   H1111     1.0  0.66927  0.12616  0.49514  1.0000
  C   C1404     1.0  0.57683  0.38592  0.37864  1.0000
  H   H1112     1.0  0.60164  0.23622  0.33156  1.0000
  H   H1113     1.0  0.77659  0.17652  0.35718  1.0000
  C   C1405     1.0  0.62715  0.17744  0.29046  1.0000
  C   C1406     1.0  0.79616  0.42155  0.18570  1.0000
  C   C1407     1.0  0.62572  0.14619  0.10465  1.0000
  H   H1114     1.0  0.49588  0.14938  0.47168  1.0000
  C   C1408     1.0  0.76841  0.24958  0.47280  1.0000
  Fe  Fe90      1.0  0.58387  0.35692  0.51240  1.0000
  H   H1115     1.0  0.53879  0.29127  0.51018  1.0000
  H   H1116     1.0  0.46233  0.08329  0.36034  1.0000
  C   C1409     1.0  0.87525  0.09799  0.10628  1.0000
  C   C1410     1.0  0.79137  0.35149  0.41065  1.0000
  C   C1411     1.0  0.85340  0.33161  0.30961  1.0000
  C   C1412     1.0  0.88369  0.33292  0.48128  1.0000
  C   C1413     1.0  0.66949  0.26436  0.26524  1.0000
  S   S181      1.0  0.40454  0.03478  0.18238  1.0000
  H   H1117     1.0  0.54429  0.05347  0.44289  1.0000
  C   C1414     1.0  0.62199  0.11385  0.29716  1.0000
  H   H1118     1.0  0.73475  0.11210  0.42508  1.0000
  Fe  Fe91      1.0  0.69527  0.06474  0.06221  1.0000
  S   S182      1.0  0.69920  0.26911  0.10490  1.0000
  C   C1415     1.0  0.78587  0.37847  0.14108  1.0000
  H   H1119     1.0  0.75358  0.24128  0.23105  1.0000
  C   C1416     1.0  0.86612  0.17795  0.43164  1.0000
  H   H1120     1.0  0.71931  0.33066  0.40646  1.0000
  C   C1417     1.0  0.50366  0.33699  0.22915  1.0000
  C   C1418     1.0  0.76349  0.19504  0.36286  1.0000
  S   S183      1.0  0.71707  0.20734  0.19195  1.0000
  H   H1121     1.0  0.64812  0.26136  0.20590  1.0000
  C   C1419     1.0  0.83009  0.47329  0.17025  1.0000
  C   C1420     1.0  0.74645  0.25642  0.51746  1.0000
  C   C1421     1.0  0.60399  0.25060  0.14212  1.0000
  H   H1122     1.0  0.55394  0.28747  0.08217  1.0000
  C   C1422     1.0  0.52038  0.19202  0.21074  1.0000
  C   C1423     1.0  0.50893  0.16654  0.22972  1.0000
  C   C1424     1.0  0.87257  0.23954  0.03499  1.0000
  H   H1123     1.0  0.50631  0.14429  0.12447  1.0000
  C   C1425     1.0  0.56567  0.36202  0.37081  1.0000
  H   H1124     1.0  0.49756  0.07784  0.27534  1.0000
  C   C1426     1.0  0.48631  0.09410  0.34399  1.0000
  H   H1125     1.0  0.58874  0.19941  0.49690  1.0000
  C   C1427     1.0  0.83733  0.12563  0.48296  1.0000
  C   C1428     1.0  0.85948  0.40408  0.29312  1.0000
  H   H1126     1.0  0.85661  0.48498  0.21973  1.0000
  S   S184      1.0  0.75854  0.09158  0.17496  1.0000
  H   H1127     1.0  0.68640  0.06693  0.34421  1.0000
  H   H1128     1.0  0.86927  0.25177  0.44429  1.0000
  H   H1129     1.0  0.65082  0.16654  0.27618  1.0000
  C   C1429     1.0  0.76585  0.40646  0.20583  1.0000
  C   C1430     1.0  0.80342  0.37790  0.46786  1.0000
  C   C1431     1.0  0.43375  0.15931  0.06835  1.0000
  C   C1432     1.0  0.75361  0.10162  0.35162  1.0000
  S   S185      1.0  0.89553  0.42052  0.43225  1.0000
  H   H1130     1.0  0.88294  0.07969  0.20463  1.0000
  C   C1433     1.0  0.53634  0.28658  0.47562  1.0000
  C   C1434     1.0  0.58864  0.34618  0.33915  1.0000
  C   C1435     1.0  0.41592  0.09272  0.49745  1.0000
  H   H1131     1.0  0.66607  0.12279  0.23164  1.0000
  H   H1132     1.0  0.64008  0.34399  0.28701  1.0000
  S   S186      1.0  0.68037  0.06516  0.14432  1.0000
  C   C1436     1.0  0.77786  0.31430  0.30056  1.0000
  C   C1437     1.0  0.81064  0.17272  0.04045  1.0000
  H   H1133     1.0  0.65175  0.19360  0.48298  1.0000
  Fe  Fe92      1.0  0.40718  0.25720  0.22056  1.0000
  C   C1438     1.0  0.65658  0.11159  0.26780  1.0000
  H   H1134     1.0  0.65497  0.20971  0.30100  1.0000
  H   H1135     1.0  0.82318  0.22400  0.50341  1.0000
  C   C1439     1.0  0.51203  0.22998  0.05645  1.0000
  C   C1440     1.0  0.40761  0.11824  0.48191  1.0000
  H   H1136     1.0  0.73374  0.16185  0.04183  1.0000
  H   H1137     1.0  0.45941  0.34435  0.52150  1.0000
  S   S187      1.0  0.40612  0.18197  0.34948  1.0000
  H   H1138     1.0  0.41595  0.51396  0.23115  1.0000
  S   S188      1.0  0.41879  0.10879  0.18397  1.0000
  C   C1441     1.0  0.40508  0.15493  0.22307  1.0000
  H   H1139     1.0  0.48872  0.30352  0.03430  1.0000
  H   H1140     1.0  0.84062  0.05317  0.53224  1.0000
  C   C1442     1.0  0.83434  0.13144  0.53083  1.0000
  H   H1141     1.0  0.49804  0.92094  0.01581  1.0000
  C   C1443     1.0  0.47354  0.98290  0.91944  1.0000
  C   C1444     1.0  0.40468  0.84527  0.66224  1.0000
  C   C1445     1.0  0.85436  0.59984  0.66965  1.0000
  H   H1142     1.0  0.62790  0.89094  0.69723  1.0000
  H   H1143     1.0  0.53268  0.57290  0.98428  1.0000
  H   H1144     1.0  0.75274  0.77765  0.77078  1.0000
  C   C1446     1.0  0.89711  0.98887  0.56348  1.0000
  S   S189      1.0  0.52073  0.58965  0.89127  1.0000
  Fe  Fe93      1.0  0.77894  0.87412  0.93602  1.0000
  H   H1145     1.0  0.79034  0.89919  0.64532  1.0000
  H   H1146     1.0  0.81255  0.75458  0.93679  1.0000
  C   C1447     1.0  0.85878  0.70819  0.63722  1.0000
  C   C1448     1.0  0.51372  0.83412  0.53937  1.0000
  C   C1449     1.0  0.73941  0.57711  0.78573  1.0000
  H   H1147     1.0  0.50042  0.02643  0.59710  1.0000
  C   C1450     1.0  0.54383  0.74172  0.68864  1.0000
  Fe  Fe94      1.0  0.53164  0.63197  0.88670  1.0000
  C   C1451     1.0  0.83892  0.83650  0.01131  1.0000
  C   C1452     1.0  0.73686  0.99113  0.90914  1.0000
  H   H1148     1.0  0.63793  0.62297  0.85392  1.0000
  C   C1453     1.0  0.44893  0.71913  0.98321  1.0000
  H   H1149     1.0  0.65802  0.95102  0.59273  1.0000
  H   H1150     1.0  0.43957  0.67513  0.82934  1.0000
  Fe  Fe95      1.0  0.54296  0.67469  0.94397  1.0000
  H   H1151     1.0  0.81553  0.92570  0.93351  1.0000
  H   H1152     1.0  0.72939  0.67135  0.94355  1.0000
  H   H1153     1.0  0.50486  0.92858  0.86473  1.0000
  H   H1154     1.0  0.47263  0.00067  0.80074  1.0000
  H   H1155     1.0  0.74437  0.85898  0.61986  1.0000
  C   C1454     1.0  0.82851  0.96988  0.82259  1.0000
  H   H1156     1.0  0.70420  0.80265  0.57361  1.0000
  C   C1455     1.0  0.78179  0.65986  0.61207  1.0000
  C   C1456     1.0  0.59984  0.98105  0.01525  1.0000
  H   H1157     1.0  0.42498  0.94252  0.80573  1.0000
  H   H1158     1.0  0.84147  0.80418  0.97018  1.0000
  C   C1457     1.0  0.59894  0.01511  0.77194  1.0000
  H   H1159     1.0  0.83096  0.00657  0.84951  1.0000
  C   C1458     1.0  0.42251  0.01029  0.74521  1.0000
  H   H1160     1.0  0.50084  0.96902  0.01545  1.0000
  H   H1161     1.0  0.55780  0.82368  0.71452  1.0000
  P   P49       1.0  0.44514  0.02940  0.88640  1.0000
  S   S190      1.0  0.87379  0.86978  0.77099  1.0000
  H   H1162     1.0  0.59353  0.01674  0.73673  1.0000
  C   C1459     1.0  0.75503  0.74429  0.87427  1.0000
  H   H1163     1.0  0.89478  0.84987  0.85846  1.0000
  C   C1460     1.0  0.46779  0.99865  0.87878  1.0000
  H   H1164     1.0  0.84962  0.84765  0.69623  1.0000
  H   H1165     1.0  0.83069  0.91501  0.56325  1.0000
  H   H1166     1.0  0.74368  0.02084  0.81042  1.0000
  S   S191      1.0  0.44873  0.91083  0.65460  1.0000
  C   C1461     1.0  0.72955  0.57340  0.65756  1.0000
  P   P50       1.0  0.77771  0.76011  0.67119  1.0000
  H   H1167     1.0  0.67115  0.03039  0.96548  1.0000
  H   H1168     1.0  0.77303  0.70621  0.85403  1.0000
  Fe  Fe96      1.0  0.83747  0.67556  0.84392  1.0000
  C   C1462     1.0  0.73108  0.57096  0.83697  1.0000
  H   H1169     1.0  0.80523  0.74408  0.56967  1.0000
  C   C1463     1.0  0.55507  0.74363  0.72967  1.0000
  C   C1464     1.0  0.88530  0.94270  0.97688  1.0000
  H   H1170     1.0  0.58283  0.78826  0.78991  1.0000
  C   C1465     1.0  0.58027  0.72638  0.73982  1.0000
  C   C1466     1.0  0.61950  0.88785  0.57012  1.0000
  C   C1467     1.0  0.86870  0.80516  0.53973  1.0000
  C   C1468     1.0  0.46406  0.03244  0.55468  1.0000
  C   C1469     1.0  0.46325  0.67295  0.61073  1.0000
  C   C1470     1.0  0.81249  0.01145  0.78559  1.0000
  H   H1171     1.0  0.57375  0.63201  0.61297  1.0000
  P   P51       1.0  0.62199  0.00913  0.92168  1.0000
  H   H1172     1.0  0.55302  0.81255  0.62691  1.0000
  H   H1173     1.0  0.57958  0.71308  0.54979  1.0000
  H   H1174     1.0  0.55939  0.99846  0.89463  1.0000
  H   H1175     1.0  0.74960  0.69313  0.63395  1.0000
  C   C1471     1.0  0.53279  0.60224  0.03125  1.0000
  C   C1472     1.0  0.76720  0.53829  0.67585  1.0000
  H   H1176     1.0  0.43126  0.64191  0.60579  1.0000
  C   C1473     1.0  0.64600  0.77246  0.66056  1.0000
  H   H1177     1.0  0.58404  0.75906  0.86498  1.0000
  C   C1474     1.0  0.80063  0.57492  0.77939  1.0000
  H   H1178     1.0  0.44386  0.02130  0.74800  1.0000
  C   C1475     1.0  0.72538  0.99441  0.69676  1.0000
  Fe  Fe97      1.0  0.43174  0.92861  0.58965  1.0000
  C   C1476     1.0  0.46361  0.56292  0.89349  1.0000
  P   P52       1.0  0.78440  0.01718  0.70644  1.0000
  S   S192      1.0  0.88361  0.58976  0.79611  1.0000
  C   C1477     1.0  0.73617  0.78355  0.61569  1.0000
  C   C1478     1.0  0.75568  0.67303  0.64456  1.0000
  S   S193      1.0  0.58667  0.80181  0.99345  1.0000
  H   H1179     1.0  0.87037  0.98516  0.58526  1.0000
  H   H1180     1.0  0.42529  0.77722  0.78728  1.0000
  H   H1181     1.0  0.87869  0.82847  0.59103  1.0000
  H   H1182     1.0  0.65541  0.75274  0.66604  1.0000
  C   C1479     1.0  0.70818  0.97869  0.67515  1.0000
  S   S194      1.0  0.57133  0.91890  0.86460  1.0000
  C   C1480     1.0  0.73802  0.66044  0.69122  1.0000
  H   H1183     1.0  0.41943  0.85864  0.80294  1.0000
  Fe  Fe98      1.0  0.75877  0.83198  0.88537  1.0000
  H   H1184     1.0  0.69887  0.76830  0.83918  1.0000
  C   C1481     1.0  0.74675  0.63478  0.70582  1.0000
  C   C1482     1.0  0.45921  0.74260  0.95283  1.0000
  H   H1185     1.0  0.74734  0.66305  0.85342  1.0000
  Fe  Fe99      1.0  0.78618  0.63371  0.90631  1.0000
  H   H1186     1.0  0.71852  0.58005  0.76911  1.0000
  C   C1483     1.0  0.64462  0.64480  0.66707  1.0000
  S   S195      1.0  0.45304  0.83089  0.89267  1.0000
  H   H1187     1.0  0.49065  0.88716  0.76587  1.0000
  C   C1484     1.0  0.69869  0.71765  0.57682  1.0000
  C   C1485     1.0  0.43976  0.71437  0.84736  1.0000
  C   C1486     1.0  0.71607  0.86539  0.56647  1.0000
  H   H1188     1.0  0.62006  0.95672  0.80446  1.0000
  C   C1487     1.0  0.80611  0.96194  0.96478  1.0000
  C   C1488     1.0  0.43313  0.79574  0.64622  1.0000
  H   H1189     1.0  0.45311  0.85393  0.67409  1.0000
  H   H1190     1.0  0.87327  0.94905  0.94834  1.0000
  C   C1489     1.0  0.40611  0.84077  0.80365  1.0000
  S   S196      1.0  0.73391  0.92075  0.79987  1.0000
  S   S197      1.0  0.84485  0.71339  0.79458  1.0000
  S   S198      1.0  0.72977  0.86624  0.91904  1.0000
  H   H1191     1.0  0.59145  0.88107  0.78754  1.0000
  H   H1192     1.0  0.88504  0.93674  0.55681  1.0000
  C   C1490     1.0  0.59908  0.79318  0.81144  1.0000
  C   C1491     1.0  0.63862  0.01992  0.81902  1.0000
  H   H1193     1.0  0.45396  0.81898  0.78426  1.0000
  H   H1194     1.0  0.68434  0.95739  0.77855  1.0000
  H   H1195     1.0  0.88614  0.55543  0.56541  1.0000
  H   H1196     1.0  0.41794  0.54213  0.89599  1.0000
  H   H1197     1.0  0.81079  0.83724  0.02308  1.0000
  C   C1492     1.0  0.46648  0.60838  0.85828  1.0000
  C   C1493     1.0  0.45365  0.71559  0.57076  1.0000
  C   C1494     1.0  0.82468  0.99692  0.82185  1.0000
  C   C1495     1.0  0.67134  0.89557  0.83826  1.0000
  C   C1496     1.0  0.65320  0.89567  0.54136  1.0000
  C   C1497     1.0  0.66305  0.71895  0.01599  1.0000
  C   C1498     1.0  0.67307  0.65528  0.82397  1.0000
  C   C1499     1.0  0.79491  0.81313  0.65757  1.0000
  H   H1198     1.0  0.79597  0.66976  0.57620  1.0000
  H   H1199     1.0  0.82415  0.55858  0.60783  1.0000
  C   C1500     1.0  0.61362  0.92564  0.61423  1.0000
  H   H1200     1.0  0.67409  0.68102  0.92383  1.0000
  C   C1501     1.0  0.68896  0.90752  0.02124  1.0000
  H   H1201     1.0  0.75027  0.74596  0.97109  1.0000
  C   C1502     1.0  0.57977  0.85142  0.74787  1.0000
  S   S199      1.0  0.48739  0.88558  0.94797  1.0000
  C   C1503     1.0  0.85626  0.81784  0.98138  1.0000
  H   H1202     1.0  0.47784  0.81003  0.66085  1.0000
  H   H1203     1.0  0.79942  0.96124  0.72650  1.0000
  C   C1504     1.0  0.47143  0.69948  0.59829  1.0000
  H   H1204     1.0  0.82249  0.97325  0.93220  1.0000
  C   C1505     1.0  0.55797  0.72271  0.65743  1.0000
  S   S200      1.0  0.48490  0.71842  0.82324  1.0000
  C   C1506     1.0  0.68906  0.91824  0.81219  1.0000
  C   C1507     1.0  0.83580  0.83103  0.69165  1.0000
  H   H1205     1.0  0.72913  0.73765  0.89544  1.0000
  H   H1206     1.0  0.89692  0.75985  0.72044  1.0000
  C   C1508     1.0  0.67974  0.69010  0.95264  1.0000
  C   C1509     1.0  0.85445  0.92316  0.68212  1.0000
  H   H1207     1.0  0.77714  0.81639  0.63598  1.0000
  C   C1510     1.0  0.77538  0.84964  0.54872  1.0000
  C   C1511     1.0  0.70247  0.76040  0.80468  1.0000
  C   C1512     1.0  0.68470  0.01638  0.94109  1.0000
  C   C1513     1.0  0.88029  0.68473  0.00678  1.0000
  C   C1514     1.0  0.40715  0.72367  0.73591  1.0000
  Fe  Fe100     1.0  0.54534  0.88410  0.91543  1.0000
  H   H1208     1.0  0.74075  0.86273  0.72315  1.0000
  C   C1515     1.0  0.57794  0.67365  0.58773  1.0000
  S   S201      1.0  0.85884  0.65538  0.00849  1.0000
  H   H1209     1.0  0.66932  0.60362  0.91226  1.0000
  S   S202      1.0  0.54681  0.84405  0.89306  1.0000
  C   C1516     1.0  0.58363  0.70535  0.66704  1.0000
  H   H1210     1.0  0.88443  0.77395  0.64164  1.0000
  H   H1211     1.0  0.46699  0.98969  0.95538  1.0000
  C   C1517     1.0  0.78278  0.75651  0.57190  1.0000
  C   C1518     1.0  0.49058  0.96402  0.82766  1.0000
  H   H1212     1.0  0.80948  0.03238  0.78574  1.0000
  S   S203      1.0  0.73302  0.79305  0.89852  1.0000
  C   C1519     1.0  0.43795  0.83932  0.66585  1.0000
  C   C1520     1.0  0.63989  0.89773  0.97523  1.0000
  H   H1213     1.0  0.71412  0.93200  0.95410  1.0000
  C   C1521     1.0  0.80064  0.78791  0.67865  1.0000
  P   P53       1.0  0.62154  0.83530  0.73887  1.0000
  C   C1522     1.0  0.83677  0.91789  0.59668  1.0000
  H   H1214     1.0  0.86180  0.78801  0.56638  1.0000
  H   H1215     1.0  0.49226  0.94574  0.94511  1.0000
  C   C1523     1.0  0.52193  0.85450  0.73772  1.0000
  C   C1524     1.0  0.41333  0.82206  0.93674  1.0000
  P   P54       1.0  0.78423  0.58779  0.69017  1.0000
  C   C1525     1.0  0.86761  0.93039  0.59318  1.0000
  C   C1526     1.0  0.67870  0.90262  0.69432  1.0000
  S   S204      1.0  0.77670  0.88660  0.00963  1.0000
  H   H1216     1.0  0.55602  0.64511  0.70052  1.0000
  H   H1217     1.0  0.44878  0.70143  0.96682  1.0000
  H   H1218     1.0  0.71527  0.72740  0.59250  1.0000
  H   H1219     1.0  0.85954  0.80351  0.73473  1.0000
  H   H1220     1.0  0.41957  0.72515  0.76402  1.0000
  C   C1527     1.0  0.57026  0.69330  0.55361  1.0000
  S   S205      1.0  0.64691  0.67176  0.79064  1.0000
  C   C1528     1.0  0.45811  0.76571  0.97360  1.0000
  C   C1529     1.0  0.49542  0.94831  0.86845  1.0000
  H   H1221     1.0  0.65259  0.84081  0.81922  1.0000
  C   C1530     1.0  0.76494  0.76716  0.61540  1.0000
  C   C1531     1.0  0.81433  0.90861  0.64290  1.0000
  C   C1532     1.0  0.54327  0.81238  0.59567  1.0000
  C   C1533     1.0  0.68991  0.85027  0.72515  1.0000
  H   H1222     1.0  0.43139  0.75356  0.86657  1.0000
  C   C1534     1.0  0.89251  0.81677  0.96629  1.0000
  H   H1223     1.0  0.67097  0.63586  0.02197  1.0000
  H   H1224     1.0  0.44224  0.02595  0.58621  1.0000
  H   H1225     1.0  0.69285  0.87141  0.59338  1.0000
  C   C1535     1.0  0.63628  0.78105  0.61821  1.0000
  C   C1536     1.0  0.63155  0.02208  0.77371  1.0000
  C   C1537     1.0  0.76562  0.74625  0.99609  1.0000
  C   C1538     1.0  0.77430  0.57969  0.75646  1.0000
  H   H1226     1.0  0.54182  0.77638  0.95065  1.0000
  H   H1227     1.0  0.55779  0.02252  0.99789  1.0000
  C   C1539     1.0  0.72359  0.65417  0.85342  1.0000
  C   C1540     1.0  0.57251  0.87369  0.77267  1.0000
  C   C1541     1.0  0.78077  0.97965  0.64597  1.0000
  H   H1228     1.0  0.71015  0.00621  0.72423  1.0000
  C   C1542     1.0  0.57328  0.00622  0.81558  1.0000
  H   H1229     1.0  0.82901  0.76520  0.72278  1.0000
  H   H1230     1.0  0.54332  0.75785  0.75464  1.0000
  Fe  Fe101     1.0  0.51652  0.68843  0.85540  1.0000
  C   C1543     1.0  0.77987  0.72648  0.85116  1.0000
  H   H1231     1.0  0.42822  0.79486  0.55088  1.0000
  S   S206      1.0  0.45488  0.96740  0.58769  1.0000
  H   H1232     1.0  0.54823  0.72170  0.62660  1.0000
  H   H1233     1.0  0.88441  0.70795  0.61063  1.0000
  C   C1544     1.0  0.51538  0.87713  0.76103  1.0000
  C   C1545     1.0  0.81443  0.68722  0.70746  1.0000
  H   H1234     1.0  0.84738  0.74703  0.60965  1.0000
  C   C1546     1.0  0.42751  0.70523  0.55597  1.0000
  C   C1547     1.0  0.55247  0.71744  0.01362  1.0000
  C   C1548     1.0  0.61650  0.91746  0.84174  1.0000
  H   H1235     1.0  0.42542  0.93756  0.89300  1.0000
  C   C1549     1.0  0.61099  0.65248  0.66587  1.0000
  C   C1550     1.0  0.64313  0.78922  0.69628  1.0000
  C   C1551     1.0  0.76351  0.96398  0.62448  1.0000
  H   H1236     1.0  0.89202  0.80683  0.82395  1.0000
  H   H1237     1.0  0.73210  0.01932  0.96001  1.0000
  C   C1552     1.0  0.79337  0.70942  0.70730  1.0000
  H   H1238     1.0  0.65407  0.73933  0.83075  1.0000
  H   H1239     1.0  0.84763  0.76778  0.79841  1.0000
  C   C1553     1.0  0.83770  0.73039  0.63684  1.0000
  S   S207      1.0  0.54812  0.65735  0.81412  1.0000
  C   C1554     1.0  0.66719  0.91497  0.95084  1.0000
  H   H1240     1.0  0.67522  0.03304  0.55112  1.0000
  H   H1241     1.0  0.76003  0.56918  0.55507  1.0000
  C   C1555     1.0  0.74511  0.85793  0.58211  1.0000
  C   C1556     1.0  0.82181  0.76133  0.81953  1.0000
  S   S208      1.0  0.54402  0.68412  0.01777  1.0000
  Fe  Fe102     1.0  0.47501  0.94898  0.64850  1.0000
  H   H1242     1.0  0.56566  0.92301  0.97050  1.0000
  C   C1557     1.0  0.82158  0.75192  0.00799  1.0000
  Fe  Fe103     1.0  0.48925  0.84459  0.92997  1.0000
  C   C1558     1.0  0.62093  0.78244  0.88159  1.0000
  H   H1243     1.0  0.88325  0.90227  0.96829  1.0000
  C   C1559     1.0  0.63488  0.89517  0.85308  1.0000
  Fe  Fe104     1.0  0.74359  0.01949  0.53238  1.0000
  H   H1244     1.0  0.65481  0.81069  0.89222  1.0000
  C   C1560     1.0  0.58225  0.63892  0.69926  1.0000
  C   C1561     1.0  0.65229  0.88437  0.70304  1.0000
  H   H1245     1.0  0.82777  0.57558  0.75842  1.0000
  C   C1562     1.0  0.66708  0.70692  0.60713  1.0000
  C   C1563     1.0  0.48099  0.58682  0.88017  1.0000
  C   C1564     1.0  0.71925  0.01006  0.93834  1.0000
  S   S209      1.0  0.80367  0.67128  0.92245  1.0000
  S   S210      1.0  0.56174  0.70277  0.87509  1.0000
  H   H1246     1.0  0.65088  0.78223  0.72874  1.0000
  H   H1247     1.0  0.41492  0.88154  0.56044  1.0000
  C   C1565     1.0  0.87740  0.56776  0.59466  1.0000
  C   C1566     1.0  0.59074  0.96011  0.94919  1.0000
  H   H1248     1.0  0.74286  0.69213  0.00831  1.0000
  C   C1567     1.0  0.65586  0.70733  0.97865  1.0000
  C   C1568     1.0  0.59999  0.90270  0.60659  1.0000
  H   H1249     1.0  0.80903  0.85375  0.64586  1.0000
  H   H1250     1.0  0.44498  0.77686  0.63896  1.0000
  S   S211      1.0  0.77886  0.85401  0.80981  1.0000
  C   C1569     1.0  0.82017  0.95749  0.78715  1.0000
  S   S212      1.0  0.80685  0.83831  0.90643  1.0000
  C   C1570     1.0  0.57115  0.76994  0.00286  1.0000
  H   H1251     1.0  0.83814  0.95842  0.85028  1.0000
  H   H1252     1.0  0.50239  0.84711  0.72401  1.0000
  H   H1253     1.0  0.40341  0.79194  0.89754  1.0000
  H   H1254     1.0  0.67399  0.92296  0.68351  1.0000
  H   H1255     1.0  0.46574  0.78389  0.94987  1.0000
  H   H1256     1.0  0.40604  0.95395  0.70658  1.0000
  H   H1257     1.0  0.60808  0.87022  0.56528  1.0000
  C   C1571     1.0  0.48761  0.95788  0.91401  1.0000
  C   C1572     1.0  0.62970  0.81455  0.69038  1.0000
  C   C1573     1.0  0.89425  0.85315  0.01152  1.0000
  C   C1574     1.0  0.67703  0.74432  0.79986  1.0000
  H   H1258     1.0  0.41340  0.71824  0.53613  1.0000
  H   H1259     1.0  0.56067  0.60508  0.01726  1.0000
  C   C1575     1.0  0.87619  0.93387  0.63604  1.0000
  H   H1260     1.0  0.46894  0.56862  0.01096  1.0000
  H   H1261     1.0  0.80408  0.79944  0.83861  1.0000
  C   C1576     1.0  0.56710  0.64794  0.58898  1.0000
  H   H1262     1.0  0.46854  0.74287  0.91319  1.0000
  C   C1577     1.0  0.59980  0.77655  0.85372  1.0000
  C   C1578     1.0  0.76183  0.99553  0.68140  1.0000
  H   H1263     1.0  0.80888  0.97977  0.63418  1.0000
  Fe  Fe105     1.0  0.82460  0.86344  0.83328  1.0000
  C   C1579     1.0  0.80176  0.93513  0.96525  1.0000
  C   C1580     1.0  0.79217  0.56909  0.83071  1.0000
  H   H1264     1.0  0.47480  0.54632  0.91058  1.0000
  H   H1265     1.0  0.72213  0.79224  0.64858  1.0000
  C   C1581     1.0  0.78997  0.97410  0.00673  1.0000
  C   C1582     1.0  0.78119  0.92043  0.00777  1.0000
  C   C1583     1.0  0.64922  0.62415  0.70142  1.0000
  C   C1584     1.0  0.47679  0.98907  0.83273  1.0000
  C   C1585     1.0  0.82401  0.78454  0.70660  1.0000
  C   C1586     1.0  0.60186  0.98173  0.96517  1.0000
  H   H1266     1.0  0.41623  0.85037  0.98443  1.0000
  C   C1587     1.0  0.42381  0.69151  0.84350  1.0000
  H   H1267     1.0  0.52364  0.75474  0.68155  1.0000
  C   C1588     1.0  0.88984  0.59824  0.64452  1.0000
  H   H1268     1.0  0.72213  0.59377  0.65549  1.0000
  C   C1589     1.0  0.84146  0.80606  0.71316  1.0000
  H   H1269     1.0  0.47696  0.66053  0.63238  1.0000
  H   H1270     1.0  0.86371  0.66961  0.67363  1.0000
  C   C1590     1.0  0.83020  0.58471  0.65855  1.0000
  C   C1591     1.0  0.89122  0.91610  0.98822  1.0000
  H   H1271     1.0  0.63796  0.76795  0.59084  1.0000
  C   C1592     1.0  0.63433  0.93956  0.81348  1.0000
  S   S213      1.0  0.49309  0.82700  0.00411  1.0000
  H   H1272     1.0  0.40695  0.99028  0.85611  1.0000
  H   H1273     1.0  0.57407  0.89648  0.62887  1.0000
  C   C1593     1.0  0.61302  0.01092  0.86307  1.0000
  H   H1274     1.0  0.76327  0.98584  0.90814  1.0000
  C   C1594     1.0  0.70468  0.66603  0.82249  1.0000
  H   H1275     1.0  0.71382  0.68409  0.79919  1.0000
  C   C1595     1.0  0.62455  0.80667  0.61106  1.0000
  C   C1596     1.0  0.63618  0.88621  0.02360  1.0000
  C   C1597     1.0  0.73786  0.75519  0.72121  1.0000
  H   H1276     1.0  0.70580  0.77785  0.00244  1.0000
  H   H1277     1.0  0.41236  0.02153  0.99354  1.0000
  C   C1598     1.0  0.72576  0.78942  0.57321  1.0000
  H   H1278     1.0  0.66735  0.65506  0.64279  1.0000
  C   C1599     1.0  0.54131  0.73578  0.98101  1.0000
  S   S214      1.0  0.55406  0.86994  0.98795  1.0000
  C   C1600     1.0  0.80110  0.75143  0.97650  1.0000
  H   H1279     1.0  0.86163  0.92388  0.71530  1.0000
  C   C1601     1.0  0.41081  0.78319  0.54006  1.0000
  C   C1602     1.0  0.58705  0.61772  0.73237  1.0000
  H   H1280     1.0  0.84586  0.61268  0.69822  1.0000
  H   H1281     1.0  0.79847  0.84454  0.55985  1.0000
  H   H1282     1.0  0.42332  0.62253  0.83233  1.0000
  C   C1603     1.0  0.84714  0.68660  0.67253  1.0000
  H   H1283     1.0  0.59808  0.93738  0.64183  1.0000
  C   C1604     1.0  0.80462  0.73112  0.67144  1.0000
  H   H1284     1.0  0.66947  0.92441  0.91398  1.0000
  H   H1285     1.0  0.56470  0.60757  0.75859  1.0000
  C   C1605     1.0  0.66731  0.91813  0.55102  1.0000
  H   H1286     1.0  0.73356  0.96363  0.86004  1.0000
  P   P55       1.0  0.60388  0.68118  0.62627  1.0000
  Fe  Fe106     1.0  0.49769  0.90008  0.59753  1.0000
  H   H1287     1.0  0.62144  0.89358  0.95661  1.0000
  C   C1606     1.0  0.41003  0.92452  0.88133  1.0000
  Fe  Fe107     1.0  0.84771  0.64798  0.93885  1.0000
  H   H1288     1.0  0.80651  0.90297  0.72151  1.0000
  C   C1607     1.0  0.43471  0.60587  0.84897  1.0000
  H   H1289     1.0  0.54821  0.00047  0.81407  1.0000
  C   C1608     1.0  0.75744  0.56730  0.85952  1.0000
  C   C1609     1.0  0.71049  0.89487  0.70177  1.0000
  H   H1290     1.0  0.66576  0.81490  0.00244  1.0000
  C   C1610     1.0  0.53195  0.78861  0.53445  1.0000
  C   C1611     1.0  0.45208  0.81457  0.65797  1.0000
  S   S215      1.0  0.73166  0.61860  0.92943  1.0000
  C   C1612     1.0  0.55016  0.76222  0.97618  1.0000
  C   C1613     1.0  0.63859  0.82260  0.82727  1.0000
  H   H1291     1.0  0.66007  0.70799  0.64637  1.0000
  S   S216      1.0  0.49610  0.66195  0.92646  1.0000
  C   C1614     1.0  0.77274  0.62124  0.67315  1.0000
  C   C1615     1.0  0.57540  0.93899  0.98326  1.0000
  C   C1616     1.0  0.40952  0.92740  0.83230  1.0000
  H   H1292     1.0  0.68005  0.97861  0.68599  1.0000
  H   H1293     1.0  0.53957  0.62249  0.55939  1.0000
  H   H1294     1.0  0.61669  0.81338  0.57857  1.0000
  C   C1617     1.0  0.64518  0.69454  0.58690  1.0000
  C   C1618     1.0  0.43751  0.66244  0.59520  1.0000
  H   H1295     1.0  0.68715  0.56189  0.63343  1.0000
  H   H1296     1.0  0.60945  0.99720  0.02813  1.0000
  C   C1619     1.0  0.54527  0.78946  0.57395  1.0000
  C   C1620     1.0  0.63965  0.80572  0.86909  1.0000
  C   C1621     1.0  0.71190  0.73939  0.71643  1.0000
  H   H1297     1.0  0.68565  0.87868  0.84833  1.0000
  C   C1622     1.0  0.71623  0.86865  0.71674  1.0000
  C   C1623     1.0  0.69208  0.91953  0.97357  1.0000
  C   C1624     1.0  0.75886  0.56502  0.67225  1.0000
  C   C1625     1.0  0.59418  0.70718  0.70908  1.0000
  C   C1626     1.0  0.43149  0.56059  0.88528  1.0000
  H   H1298     1.0  0.79527  0.02931  0.59913  1.0000
  C   C1627     1.0  0.67942  0.62088  0.88694  1.0000
  H   H1299     1.0  0.77820  0.95248  0.59590  1.0000
  H   H1300     1.0  0.61151  0.84300  0.64130  1.0000
  C   C1628     1.0  0.41964  0.67846  0.56711  1.0000
  S   S217      1.0  0.82773  0.60970  0.92826  1.0000
  H   H1301     1.0  0.84929  0.75547  0.99294  1.0000
  C   C1629     1.0  0.70960  0.55538  0.64513  1.0000
  C   C1630     1.0  0.80699  0.97174  0.75192  1.0000
  H   H1302     1.0  0.59381  0.95938  0.91053  1.0000
  C   C1631     1.0  0.66772  0.00396  0.91392  1.0000
  C   C1632     1.0  0.71082  0.68457  0.96392  1.0000
  H   H1303     1.0  0.66138  0.72234  0.75141  1.0000
  H   H1304     1.0  0.46011  0.73616  0.56095  1.0000
  Fe  Fe108     1.0  0.50350  0.95310  0.53624  1.0000
  C   C1633     1.0  0.41923  0.73565  0.86475  1.0000
  C   C1634     1.0  0.81330  0.73510  0.82369  1.0000
  H   H1305     1.0  0.47973  0.62695  0.84844  1.0000
  C   C1635     1.0  0.66128  0.63213  0.85467  1.0000
  S   S218      1.0  0.57645  0.64227  0.91088  1.0000
  H   H1306     1.0  0.62229  0.76926  0.91366  1.0000
  C   C1636     1.0  0.80302  0.99888  0.75070  1.0000
  C   C1637     1.0  0.52774  0.83479  0.57855  1.0000
  Fe  Fe109     1.0  0.85899  0.61860  0.84870  1.0000
  H   H1307     1.0  0.81024  0.62415  0.60001  1.0000
  C   C1638     1.0  0.71824  0.69631  0.00095  1.0000
  S   S219      1.0  0.79753  0.00723  0.00577  1.0000
  C   C1639     1.0  0.82337  0.91090  0.68563  1.0000
  C   C1640     1.0  0.68557  0.98487  0.88485  1.0000
  C   C1641     1.0  0.48081  0.58145  0.02842  1.0000
  C   C1642     1.0  0.65714  0.85826  0.72064  1.0000
  S   S220      1.0  0.47088  0.97321  0.70953  1.0000
  H   H1308     1.0  0.63180  0.71172  0.96973  1.0000
  C   C1643     1.0  0.61977  0.81572  0.79664  1.0000
  H   H1309     1.0  0.75094  0.56353  0.89942  1.0000
  C   C1644     1.0  0.55377  0.84147  0.73171  1.0000
  S   S221      1.0  0.81615  0.64020  0.82624  1.0000
  H   H1310     1.0  0.55742  0.77231  0.58769  1.0000
  C   C1645     1.0  0.54062  0.88664  0.77866  1.0000
  H   H1311     1.0  0.86447  0.77961  0.90241  1.0000
  H   H1312     1.0  0.87584  0.73187  0.91088  1.0000
  C   C1646     1.0  0.76374  0.77065  0.86992  1.0000
  H   H1313     1.0  0.82345  0.93666  0.78701  1.0000
  C   C1647     1.0  0.72007  0.97859  0.88225  1.0000
  C   C1648     1.0  0.88928  0.74411  0.87733  1.0000
  C   C1649     1.0  0.71045  0.63198  0.88666  1.0000
  C   C1650     1.0  0.79715  0.77915  0.84246  1.0000
  C   C1651     1.0  0.57994  0.00472  0.86112  1.0000
  C   C1652     1.0  0.88273  0.77091  0.87262  1.0000
  S   S222      1.0  0.52590  0.86239  0.60946  1.0000
  C   C1653     1.0  0.41721  0.58199  0.86275  1.0000
  C   C1654     1.0  0.89869  0.78640  0.82850  1.0000
  H   H1314     1.0  0.62103  0.87797  0.87450  1.0000
  H   H1315     1.0  0.81268  0.56637  0.84820  1.0000
  Fe  Fe110     1.0  0.55046  0.82998  0.96877  1.0000
  C   C1655     1.0  0.54791  0.64231  0.55811  1.0000
  H   H1316     1.0  0.70416  0.56960  0.85947  1.0000
  S   S223      1.0  0.80052  0.89940  0.86472  1.0000
  C   C1656     1.0  0.89502  0.96108  0.00201  1.0000
  H   H1317     1.0  0.67249  0.97435  0.86522  1.0000
  Fe  Fe111     1.0  0.59157  0.66915  0.84005  1.0000
  H   H1318     1.0  0.66394  0.02551  0.81959  1.0000
  Fe  Fe112     1.0  0.75405  0.88887  0.84478  1.0000
  S   S224      1.0  0.88291  0.65471  0.86103  1.0000
  C   C1657     1.0  0.67062  0.93991  0.79859  1.0000
  H   H1319     1.0  0.52589  0.72959  0.95957  1.0000
  C   C1658     1.0  0.64734  0.93331  0.58657  1.0000
  H   H1320     1.0  0.71786  0.67073  0.71652  1.0000
  C   C1659     1.0  0.68145  0.73431  0.75538  1.0000
  H   H1321     1.0  0.53547  0.90399  0.79727  1.0000
  H   H1322     1.0  0.62393  0.59498  0.76136  1.0000
  H   H1323     1.0  0.76878  0.70959  0.73604  1.0000
  H   H1324     1.0  0.61301  0.69362  0.71856  1.0000
  C   C1660     1.0  0.73296  0.76575  0.76563  1.0000
  C   C1661     1.0  0.51699  0.58409  0.01269  1.0000
  H   H1325     1.0  0.67494  0.61919  0.70406  1.0000
  C   C1662     1.0  0.62047  0.61058  0.73395  1.0000
  H   H1326     1.0  0.80574  0.67079  0.73571  1.0000
  H   H1327     1.0  0.69461  0.83009  0.73745  1.0000
  C   C1663     1.0  0.72728  0.96374  0.63862  1.0000
  C   C1664     1.0  0.79006  0.63402  0.62603  1.0000
  H   H1328     1.0  0.61554  0.65895  0.02290  1.0000
  H   H1329     1.0  0.73325  0.62588  0.74268  1.0000
  H   H1330     1.0  0.58843  0.72746  0.77226  1.0000
  H   H1331     1.0  0.73032  0.90932  0.69719  1.0000
  H   H1332     1.0  0.49718  0.95665  0.79214  1.0000
  C   C1665     1.0  0.62157  0.82344  0.64673  1.0000
  C   C1666     1.0  0.81263  0.83452  0.66369  1.0000
  H   H1333     1.0  0.71539  0.73071  0.68283  1.0000
  S   S225      1.0  0.52538  0.93713  0.59699  1.0000
  C   C1667     1.0  0.42881  0.98623  0.72647  1.0000
  H   H1334     1.0  0.71417  0.95215  0.62069  1.0000
  C   C1668     1.0  0.84198  0.56926  0.61972  1.0000
  C   C1669     1.0  0.42596  0.81830  0.79252  1.0000
  H   H1335     1.0  0.49159  0.70762  0.60983  1.0000
  C   C1670     1.0  0.44773  0.76529  0.02484  1.0000
  C   C1671     1.0  0.87826  0.82804  0.55364  1.0000
  H   H1336     1.0  0.74853  0.61645  0.56342  1.0000
  H   H1337     1.0  0.65127  0.02931  0.73990  1.0000
  H   H1338     1.0  0.41110  0.68180  0.74104  1.0000
  Fe  Fe113     1.0  0.49651  0.86805  0.01894  1.0000
  C   C1672     1.0  0.49703  0.03290  0.56119  1.0000
  C   C1673     1.0  0.69442  0.71382  0.02714  1.0000
  H   H1339     1.0  0.88941  0.98162  0.99400  1.0000
  C   C1674     1.0  0.40970  0.79468  0.79471  1.0000
  C   C1675     1.0  0.85779  0.85414  0.02628  1.0000
  C   C1676     1.0  0.65593  0.69265  0.53588  1.0000
  C   C1677     1.0  0.90139  0.58212  0.60710  1.0000
  H   H1340     1.0  0.90141  0.02601  0.72832  1.0000
  H   H1341     1.0  0.90214  0.00552  0.65471  1.0000
  S   S226      1.0  0.47889  0.91533  0.53284  1.0000
  C   C1678     1.0  0.48106  0.96730  0.09456  1.0000
  C   C1679     1.0  0.76493  0.93269  0.04981  1.0000
  H   H1342     1.0  0.40921  0.82776  0.12078  1.0000
  H   H1343     1.0  0.87220  0.62824  0.48224  1.0000
  C   C1680     1.0  0.56632  0.90777  0.39939  1.0000
  C   C1681     1.0  0.71756  0.86558  0.51658  1.0000
  C   C1682     1.0  0.62178  0.65338  0.05720  1.0000
  H   H1344     1.0  0.75988  0.71583  0.30861  1.0000
  C   C1683     1.0  0.66985  0.92953  0.12307  1.0000
  C   C1684     1.0  0.82956  0.68507  0.33434  1.0000
  H   H1345     1.0  0.62000  0.61539  0.33758  1.0000
  H   H1346     1.0  0.88399  0.66710  0.24482  1.0000
  H   H1347     1.0  0.43107  0.58474  0.17640  1.0000
  P   P56       1.0  0.68016  0.87591  0.49623  1.0000
  H   H1348     1.0  0.44201  0.85142  0.29355  1.0000
  C   C1685     1.0  0.66172  0.80082  0.03527  1.0000
  C   C1686     1.0  0.41976  0.63659  0.37613  1.0000
  C   C1687     1.0  0.59217  0.85188  0.16058  1.0000
  H   H1349     1.0  0.88042  0.73089  0.08186  1.0000
  H   H1350     1.0  0.40727  0.55752  0.52460  1.0000
  C   C1688     1.0  0.59522  0.99168  0.28549  1.0000
  H   H1351     1.0  0.55499  0.61856  0.14903  1.0000
  C   C1689     1.0  0.56027  0.99747  0.30760  1.0000
  H   H1352     1.0  0.52279  0.63865  0.29839  1.0000
  H   H1353     1.0  0.69853  0.81985  0.49586  1.0000
  C   C1690     1.0  0.65286  0.64030  0.05674  1.0000
  H   H1354     1.0  0.82134  0.91119  0.07614  1.0000
  H   H1355     1.0  0.65286  0.83700  0.19212  1.0000
  C   C1691     1.0  0.72660  0.82040  0.07737  1.0000
  Fe  Fe114     1.0  0.46675  0.02899  0.26252  1.0000
  H   H1356     1.0  0.60871  0.97778  0.30488  1.0000
  H   H1357     1.0  0.71506  0.95444  0.18958  1.0000
  C   C1692     1.0  0.85720  0.98544  0.15722  1.0000
  C   C1693     1.0  0.57233  0.99263  0.45589  1.0000
  H   H1358     1.0  0.54392  0.83143  0.19721  1.0000
  C   C1694     1.0  0.87581  0.93346  0.32853  1.0000
  C   C1695     1.0  0.59304  0.98672  0.48752  1.0000
  H   H1359     1.0  0.68450  0.62243  0.10054  1.0000
  C   C1696     1.0  0.79333  0.01156  0.23217  1.0000
  C   C1697     1.0  0.63323  0.80334  0.07661  1.0000
  H   H1360     1.0  0.47390  0.71832  0.23964  1.0000
  H   H1361     1.0  0.88752  0.00415  0.28490  1.0000
  S   S227      1.0  0.68706  0.01553  0.39894  1.0000
  H   H1362     1.0  0.80579  0.55579  0.48329  1.0000
  H   H1363     1.0  0.67927  0.93251  0.45656  1.0000
  H   H1364     1.0  0.81870  0.02059  0.21779  1.0000
  C   C1698     1.0  0.87002  0.93218  0.24704  1.0000
  C   C1699     1.0  0.74358  0.77867  0.53021  1.0000
  H   H1365     1.0  0.51592  0.84326  0.36374  1.0000
  S   S228      1.0  0.87619  0.75590  0.23241  1.0000
  C   C1700     1.0  0.69486  0.72135  0.17367  1.0000
  C   C1701     1.0  0.73139  0.01605  0.27032  1.0000
  C   C1702     1.0  0.43880  0.86697  0.42959  1.0000
  H   H1366     1.0  0.87713  0.92346  0.21298  1.0000
  H   H1367     1.0  0.83244  0.64796  0.14243  1.0000
  H   H1368     1.0  0.64315  0.63203  0.17992  1.0000
  H   H1369     1.0  0.64471  0.98894  0.49507  1.0000
  Fe  Fe115     1.0  0.84207  0.78431  0.40476  1.0000
  C   C1703     1.0  0.56799  0.90628  0.48387  1.0000
  H   H1370     1.0  0.60903  0.03155  0.17712  1.0000
  H   H1371     1.0  0.57430  0.66875  0.10139  1.0000
  C   C1704     1.0  0.61283  0.00383  0.23850  1.0000
  H   H1372     1.0  0.85875  0.87980  0.21476  1.0000
  H   H1373     1.0  0.58230  0.95966  0.08803  1.0000
  H   H1374     1.0  0.52454  0.65799  0.50161  1.0000
  H   H1375     1.0  0.45725  0.62715  0.41575  1.0000
  S   S229      1.0  0.52984  0.98055  0.46903  1.0000
  C   C1705     1.0  0.60286  0.68107  0.26581  1.0000
  C   C1706     1.0  0.78923  0.98480  0.23064  1.0000
  H   H1376     1.0  0.81882  0.97984  0.30512  1.0000
  H   H1377     1.0  0.50074  0.85118  0.52693  1.0000
  C   C1707     1.0  0.68605  0.94784  0.14052  1.0000
  C   C1708     1.0  0.40955  0.65480  0.34247  1.0000
  S   S230      1.0  0.79296  0.80705  0.41143  1.0000
  C   C1709     1.0  0.55150  0.89721  0.16679  1.0000
  C   C1710     1.0  0.64273  0.00752  0.42391  1.0000
  C   C1711     1.0  0.77095  0.74176  0.07878  1.0000
  C   C1712     1.0  0.62135  0.01450  0.39397  1.0000
  C   C1713     1.0  0.41652  0.53915  0.09241  1.0000
  S   S231      1.0  0.50266  0.67124  0.39221  1.0000
  C   C1714     1.0  0.58744  0.92219  0.26457  1.0000
  Fe  Fe116     1.0  0.72549  0.00883  0.44181  1.0000
  H   H1378     1.0  0.70894  0.02809  0.28520  1.0000
  H   H1379     1.0  0.68843  0.71358  0.25171  1.0000
  H   H1380     1.0  0.64429  0.80968  0.28962  1.0000
  C   C1715     1.0  0.62313  0.65730  0.33073  1.0000
  C   C1716     1.0  0.50798  0.88284  0.38344  1.0000
  H   H1381     1.0  0.61446  0.87328  0.04220  1.0000
  H   H1382     1.0  0.59880  0.70838  0.14916  1.0000
  C   C1717     1.0  0.90233  0.01998  0.08421  1.0000
  S   S232      1.0  0.71609  0.98621  0.51687  1.0000
  C   C1718     1.0  0.88559  0.99745  0.40451  1.0000
  H   H1383     1.0  0.44397  0.54051  0.08780  1.0000
  H   H1384     1.0  0.40973  0.65404  0.22221  1.0000
  H   H1385     1.0  0.83969  0.58852  0.41918  1.0000
  C   C1719     1.0  0.60443  0.93671  0.41947  1.0000
  C   C1720     1.0  0.51361  0.59598  0.20078  1.0000
  C   C1721     1.0  0.85425  0.65776  0.19807  1.0000
  H   H1386     1.0  0.45995  0.91112  0.17367  1.0000
  H   H1387     1.0  0.66830  0.78194  0.48447  1.0000
  C   C1722     1.0  0.58631  0.00759  0.41033  1.0000
  H   H1388     1.0  0.58449  0.83167  0.46412  1.0000
  C   C1723     1.0  0.69668  0.67818  0.21755  1.0000
  S   S233      1.0  0.79901  0.79615  0.30001  1.0000
  C   C1724     1.0  0.76904  0.95958  0.04921  1.0000
  H   H1389     1.0  0.56050  0.92210  0.05944  1.0000
  C   C1725     1.0  0.60937  0.86028  0.35376  1.0000
  C   C1726     1.0  0.55515  0.89688  0.44912  1.0000
  C   C1727     1.0  0.70105  0.91924  0.33841  1.0000
  H   H1390     1.0  0.62285  0.69926  0.31527  1.0000
  H   H1391     1.0  0.63202  0.02491  0.35736  1.0000
  H   H1392     1.0  0.88792  0.72433  0.44596  1.0000
  C   C1728     1.0  0.55525  0.91737  0.30094  1.0000
  C   C1729     1.0  0.66045  0.63276  0.10112  1.0000
  C   C1730     1.0  0.87294  0.86758  0.18725  1.0000
  C   C1731     1.0  0.70039  0.75784  0.37434  1.0000
  H   H1393     1.0  0.56976  0.75137  0.14443  1.0000
  S   S234      1.0  0.72536  0.75765  0.41450  1.0000
  C   C1732     1.0  0.77638  0.84839  0.50006  1.0000
  C   C1733     1.0  0.66023  0.89176  0.04755  1.0000
  C   C1734     1.0  0.55070  0.68762  0.52340  1.0000
  H   H1394     1.0  0.55664  0.85798  0.28103  1.0000
  C   C1735     1.0  0.88754  0.84955  0.47043  1.0000
  C   C1736     1.0  0.45648  0.76639  0.13284  1.0000
  H   H1395     1.0  0.85045  0.69025  0.08104  1.0000
  H   H1396     1.0  0.73312  0.72455  0.50232  1.0000
  C   C1737     1.0  0.88794  0.64292  0.12066  1.0000
  C   C1738     1.0  0.43175  0.87043  0.28416  1.0000
  S   S235      1.0  0.63206  0.75596  0.27444  1.0000
  H   H1397     1.0  0.43110  0.69857  0.46353  1.0000
  C   C1739     1.0  0.47816  0.91311  0.09468  1.0000
  C   C1740     1.0  0.58171  0.86688  0.33399  1.0000
  H   H1398     1.0  0.57011  0.01343  0.38694  1.0000
  H   H1399     1.0  0.59504  0.61531  0.26873  1.0000
  H   H1400     1.0  0.46189  0.95898  0.17368  1.0000
  Fe  Fe117     1.0  0.51681  0.71378  0.37612  1.0000
  C   C1741     1.0  0.57139  0.72568  0.04251  1.0000
  C   C1742     1.0  0.77604  0.66944  0.39521  1.0000
  H   H1401     1.0  0.65672  0.93640  0.09591  1.0000
  C   C1743     1.0  0.46859  0.92381  0.13926  1.0000
  C   C1744     1.0  0.80012  0.57638  0.48612  1.0000
  S   S236      1.0  0.65575  0.99428  0.21103  1.0000
  H   H1402     1.0  0.50110  0.92943  0.32356  1.0000
  H   H1403     1.0  0.41471  0.78179  0.19086  1.0000
  C   C1745     1.0  0.62844  0.99410  0.47140  1.0000
  H   H1404     1.0  0.82222  0.74817  0.08348  1.0000
  C   C1746     1.0  0.63704  0.63839  0.14596  1.0000
  H   H1405     1.0  0.42127  0.69155  0.29596  1.0000
  C   C1747     1.0  0.70398  0.68338  0.12969  1.0000
  H   H1406     1.0  0.60320  0.93298  0.49587  1.0000
  H   H1407     1.0  0.53564  0.91475  0.16837  1.0000
  H   H1408     1.0  0.86353  0.59339  0.26854  1.0000
  H   H1409     1.0  0.69304  0.74229  0.17438  1.0000
  H   H1410     1.0  0.41087  0.82308  0.37127  1.0000
  C   C1748     1.0  0.69180  0.89361  0.43445  1.0000
  H   H1411     1.0  0.79311  0.91583  0.25583  1.0000
  H   H1412     1.0  0.46075  0.62761  0.10747  1.0000
  C   C1749     1.0  0.82633  0.88042  0.39528  1.0000
  H   H1413     1.0  0.71725  0.90738  0.22092  1.0000
  C   C1750     1.0  0.53875  0.61564  0.18700  1.0000
  H   H1414     1.0  0.47176  0.70075  0.32401  1.0000
  Fe  Fe118     1.0  0.57826  0.75087  0.32744  1.0000
  C   C1751     1.0  0.69485  0.75996  0.29177  1.0000
  H   H1415     1.0  0.45579  0.82984  0.40397  1.0000
  C   C1752     1.0  0.89075  0.98981  0.15954  1.0000
  H   H1416     1.0  0.75889  0.93676  0.41605  1.0000
  H   H1417     1.0  0.87486  0.82686  0.42016  1.0000
  S   S237      1.0  0.79623  0.00121  0.50886  1.0000
  C   C1753     1.0  0.81467  0.93669  0.18286  1.0000
  H   H1418     1.0  0.89122  0.73084  0.32044  1.0000
  H   H1419     1.0  0.78288  0.64991  0.49933  1.0000
  H   H1420     1.0  0.77867  0.87635  0.22627  1.0000
  H   H1421     1.0  0.60509  0.78645  0.15010  1.0000
  C   C1754     1.0  0.83729  0.96393  0.29851  1.0000
  C   C1755     1.0  0.59459  0.65745  0.25244  1.0000
  C   C1756     1.0  0.64372  0.75631  0.36303  1.0000
  C   C1757     1.0  0.87618  0.82706  0.45724  1.0000
  C   C1758     1.0  0.51241  0.61766  0.06587  1.0000
  P   P57       1.0  0.82685  0.96487  0.20573  1.0000
  C   C1759     1.0  0.48344  0.89995  0.40989  1.0000
  P   P58       1.0  0.65463  0.87894  0.11139  1.0000
  H   H1422     1.0  0.73566  0.78309  0.49709  1.0000
  C   C1760     1.0  0.44602  0.00103  0.43512  1.0000
  H   H1423     1.0  0.64016  0.68289  0.51897  1.0000
  Fe  Fe119     1.0  0.50532  0.77145  0.34636  1.0000
  P   P59       1.0  0.70516  0.73131  0.07155  1.0000
  C   C1761     1.0  0.70402  0.91351  0.19359  1.0000
  C   C1762     1.0  0.77448  0.58400  0.52691  1.0000
  C   C1763     1.0  0.40310  0.57793  0.53009  1.0000
  H   H1424     1.0  0.72908  0.68730  0.38441  1.0000
  C   C1764     1.0  0.62400  0.80426  0.47471  1.0000
  H   H1425     1.0  0.52457  0.63265  0.07816  1.0000
  H   H1426     1.0  0.82503  0.61408  0.33861  1.0000
  C   C1765     1.0  0.44001  0.74151  0.05557  1.0000
  C   C1766     1.0  0.62613  0.85059  0.47915  1.0000
  Fe  Fe120     1.0  0.84801  0.77412  0.30044  1.0000
  S   S238      1.0  0.53362  0.73962  0.30362  1.0000
  H   H1427     1.0  0.55904  0.89799  0.52225  1.0000
  S   S239      1.0  0.44670  0.99392  0.24162  1.0000
  S   S240      1.0  0.55104  0.78425  0.36630  1.0000
  C   C1767     1.0  0.51613  0.81098  0.51688  1.0000
  C   C1768     1.0  0.51734  0.69169  0.22350  1.0000
  C   C1769     1.0  0.84641  0.99865  0.11821  1.0000
  C   C1770     1.0  0.60595  0.65183  0.14660  1.0000
  C   C1771     1.0  0.87109  0.69778  0.04884  1.0000
  C   C1772     1.0  0.56036  0.02813  0.23600  1.0000
  H   H1428     1.0  0.74350  0.76217  0.30757  1.0000
  S   S241      1.0  0.47612  0.80328  0.31483  1.0000
  C   C1773     1.0  0.60129  0.63375  0.27824  1.0000
  C   C1774     1.0  0.69284  0.70516  0.21758  1.0000
  Fe  Fe121     1.0  0.45756  0.01653  0.16621  1.0000
  C   C1775     1.0  0.59042  0.94165  0.22473  1.0000
  C   C1776     1.0  0.42924  0.67741  0.32188  1.0000
  H   H1429     1.0  0.61561  0.94646  0.19864  1.0000
  C   C1777     1.0  0.46029  0.59610  0.06475  1.0000
  C   C1778     1.0  0.40725  0.59603  0.18250  1.0000
  C   C1779     1.0  0.55615  0.85028  0.18256  1.0000
  S   S242      1.0  0.48183  0.00133  0.09326  1.0000
  C   C1780     1.0  0.70297  0.93992  0.17592  1.0000
  H   H1430     1.0  0.58010  0.71170  0.06762  1.0000
  S   S243      1.0  0.86983  0.80543  0.33021  1.0000
  C   C1781     1.0  0.79603  0.91405  0.44460  1.0000
  C   C1782     1.0  0.81253  0.66882  0.37756  1.0000
  H   H1431     1.0  0.43013  0.90539  0.45282  1.0000
  C   C1783     1.0  0.42888  0.66677  0.19551  1.0000
  Fe  Fe122     1.0  0.76966  0.97011  0.48580  1.0000
  C   C1784     1.0  0.59128  0.92764  0.38474  1.0000
  C   C1785     1.0  0.47815  0.70008  0.12739  1.0000
  H   H1432     1.0  0.88828  0.63772  0.08529  1.0000
  C   C1786     1.0  0.44459  0.98328  0.40282  1.0000
  C   C1787     1.0  0.46331  0.84956  0.40508  1.0000
  C   C1788     1.0  0.85289  0.61662  0.32891  1.0000
  H   H1433     1.0  0.41722  0.94507  0.05119  1.0000
  H   H1434     1.0  0.54390  0.70308  0.49854  1.0000
  H   H1435     1.0  0.82956  0.66327  0.22263  1.0000
  C   C1789     1.0  0.49771  0.85738  0.38203  1.0000
  H   H1436     1.0  0.51422  0.66853  0.12934  1.0000
  C   C1790     1.0  0.89241  0.66217  0.50005  1.0000
  H   H1437     1.0  0.65257  0.75329  0.43379  1.0000
  C   C1791     1.0  0.59981  0.83225  0.28162  1.0000
  H   H1438     1.0  0.44719  0.63518  0.50658  1.0000
  C   C1792     1.0  0.65879  0.75761  0.31199  1.0000
  C   C1793     1.0  0.46327  0.65858  0.17860  1.0000
  C   C1794     1.0  0.55257  0.68850  0.19775  1.0000
  H   H1439     1.0  0.50696  0.96310  0.25284  1.0000
  C   C1795     1.0  0.82094  0.89411  0.43638  1.0000
  Fe  Fe123     1.0  0.80053  0.02250  0.43439  1.0000
  C   C1796     1.0  0.55529  0.73464  0.16642  1.0000
  H   H1440     1.0  0.53571  0.79580  0.08434  1.0000
  C   C1797     1.0  0.59300  0.92591  0.46896  1.0000
  C   C1798     1.0  0.45780  0.68259  0.33747  1.0000
  C   C1799     1.0  0.47629  0.61468  0.08248  1.0000
  S   S244      1.0  0.78583  0.92861  0.49944  1.0000
  C   C1800     1.0  0.70211  0.87958  0.39333  1.0000
  Fe  Fe124     1.0  0.75404  0.02588  0.06036  1.0000
  C   C1801     1.0  0.69988  0.71055  0.12937  1.0000
  H   H1441     1.0  0.88659  0.92560  0.35792  1.0000
  H   H1442     1.0  0.68760  0.79697  0.19753  1.0000
  C   C1802     1.0  0.44640  0.89286  0.29203  1.0000
  H   H1443     1.0  0.84385  0.86823  0.05005  1.0000
  H   H1444     1.0  0.47833  0.60418  0.32196  1.0000
  C   C1803     1.0  0.53957  0.66219  0.52546  1.0000
  H   H1445     1.0  0.70627  0.64644  0.17324  1.0000
  H   H1446     1.0  0.70671  0.76130  0.25223  1.0000
  C   C1804     1.0  0.70639  0.89230  0.34566  1.0000
  H   H1447     1.0  0.61383  0.87085  0.38154  1.0000
  H   H1448     1.0  0.61520  0.81940  0.07553  1.0000
  C   C1805     1.0  0.70251  0.66731  0.17355  1.0000
  C   C1806     1.0  0.76810  0.61053  0.53139  1.0000
  H   H1449     1.0  0.53668  0.88101  0.46109  1.0000
  H   H1450     1.0  0.69067  0.87465  0.18870  1.0000
  C   C1807     1.0  0.49379  0.80937  0.14192  1.0000
  H   H1451     1.0  0.79197  0.87407  0.13610  1.0000
  H   H1452     1.0  0.70386  0.92907  0.30169  1.0000
  C   C1808     1.0  0.88864  0.84999  0.51867  1.0000
  C   C1809     1.0  0.45995  0.80485  0.17256  1.0000
  C   C1810     1.0  0.46765  0.66460  0.37167  1.0000
  H   H1453     1.0  0.84504  0.96240  0.37020  1.0000
  C   C1811     1.0  0.65622  0.80107  0.48364  1.0000
  H   H1454     1.0  0.58212  0.97584  0.52353  1.0000
  P   P60       1.0  0.41355  0.59405  0.08318  1.0000
  C   C1812     1.0  0.86708  0.63137  0.35617  1.0000
  S   S245      1.0  0.81111  0.86863  0.31310  1.0000
  H   H1455     1.0  0.73579  0.78668  0.12458  1.0000
  C   C1813     1.0  0.72705  0.98951  0.26896  1.0000
  P   P61       1.0  0.55246  0.89347  0.35422  1.0000
  C   C1814     1.0  0.88474  0.65991  0.21064  1.0000
  C   C1815     1.0  0.86811  0.80456  0.49132  1.0000
  C   C1816     1.0  0.68743  0.70362  0.50568  1.0000
  C   C1817     1.0  0.60831  0.87623  0.14233  1.0000
  C   C1818     1.0  0.86671  0.69052  0.42820  1.0000
  C   C1819     1.0  0.40597  0.91958  0.25889  1.0000
  C   C1820     1.0  0.88401  0.70337  0.45410  1.0000
  S   S246      1.0  0.48446  0.74480  0.41728  1.0000
  Fe  Fe125     1.0  0.53272  0.75522  0.43373  1.0000
  C   C1821     1.0  0.68727  0.92083  0.42646  1.0000
  C   C1822     1.0  0.59851  0.65916  0.10183  1.0000
  C   C1823     1.0  0.78451  0.90841  0.36809  1.0000
  H   H1456     1.0  0.41298  0.96673  0.36569  1.0000
  H   H1457     1.0  0.77039  0.91411  0.34189  1.0000
  H   H1458     1.0  0.44645  0.78343  0.04042  1.0000
  H   H1459     1.0  0.85723  0.70194  0.40054  1.0000
  C   C1824     1.0  0.54254  0.63119  0.22196  1.0000
  C   C1825     1.0  0.49537  0.60723  0.28433  1.0000
  C   C1826     1.0  0.40421  0.87245  0.26370  1.0000
  H   H1460     1.0  0.41209  0.86081  0.44687  1.0000
  H   H1461     1.0  0.49752  0.71259  0.10070  1.0000
  C   C1827     1.0  0.76451  0.02707  0.25199  1.0000
  H   H1462     1.0  0.60079  0.93612  0.34667  1.0000
  H   H1463     1.0  0.50777  0.87163  0.20112  1.0000
  C   C1828     1.0  0.70614  0.84269  0.07374  1.0000
  C   C1829     1.0  0.74799  0.85689  0.48350  1.0000
  C   C1830     1.0  0.67867  0.76057  0.07667  1.0000
  C   C1831     1.0  0.77831  0.92151  0.40988  1.0000
  C   C1832     1.0  0.77446  0.70263  0.32766  1.0000
  H   H1464     1.0  0.89945  0.98051  0.18990  1.0000
  H   H1465     1.0  0.61057  0.91166  0.26787  1.0000
  C   C1833     1.0  0.69288  0.80975  0.16295  1.0000
  H   H1466     1.0  0.68904  0.95462  0.37294  1.0000
  C   C1834     1.0  0.68866  0.89496  0.17519  1.0000
  C   C1835     1.0  0.52914  0.95117  0.25558  1.0000
  C   C1836     1.0  0.71995  0.80392  0.12192  1.0000
  C   C1837     1.0  0.42705  0.77065  0.30683  1.0000
  C   C1838     1.0  0.49182  0.59185  0.24940  1.0000
  S   S247      1.0  0.82457  0.75138  0.37458  1.0000
  C   C1839     1.0  0.64940  0.76292  0.11775  1.0000
  H   H1467     1.0  0.61600  0.75620  0.37881  1.0000
  C   C1840     1.0  0.60912  0.82908  0.47207  1.0000
  H   H1468     1.0  0.50533  0.81032  0.48673  1.0000
  C   C1841     1.0  0.42547  0.62176  0.52044  1.0000
  Fe  Fe126     1.0  0.81897  0.82595  0.33508  1.0000
  C   C1842     1.0  0.81065  0.70185  0.30948  1.0000
  H   H1469     1.0  0.63355  0.65734  0.36146  1.0000
  H   H1470     1.0  0.89493  0.86665  0.44352  1.0000
  C   C1843     1.0  0.46982  0.95090  0.13923  1.0000
  H   H1471     1.0  0.86089  0.98900  0.42659  1.0000
  H   H1472     1.0  0.56392  0.97177  0.19012  1.0000
  H   H1473     1.0  0.76193  0.65678  0.42750  1.0000
  C   C1844     1.0  0.87511  0.64925  0.47420  1.0000
  C   C1845     1.0  0.70882  0.71602  0.52612  1.0000
  H   H1474     1.0  0.70637  0.85868  0.39799  1.0000
  C   C1846     1.0  0.81916  0.59517  0.44933  1.0000
  C   C1847     1.0  0.84587  0.95280  0.25410  1.0000
  H   H1475     1.0  0.44030  0.79030  0.46321  1.0000
  C   C1848     1.0  0.61549  0.63371  0.31724  1.0000
  H   H1476     1.0  0.47053  0.00346  0.44205  1.0000
  C   C1849     1.0  0.78733  0.62942  0.49478  1.0000
  H   H1477     1.0  0.75682  0.96893  0.08192  1.0000
  C   C1850     1.0  0.52608  0.93205  0.29599  1.0000
  S   S248      1.0  0.74449  0.02277  0.14198  1.0000
  C   C1851     1.0  0.44377  0.70872  0.14501  1.0000
  C   C1852     1.0  0.41889  0.69138  0.17792  1.0000
  S   S249      1.0  0.56381  0.72252  0.39652  1.0000
  H   H1478     1.0  0.82417  0.71453  0.27646  1.0000
  C   C1853     1.0  0.57757  0.85304  0.29704  1.0000
  S   S250      1.0  0.88218  0.54546  0.45270  1.0000
  C   C1854     1.0  0.62706  0.82573  0.30168  1.0000
  H   H1479     1.0  0.74950  0.92127  0.08306  1.0000
  P   P62       1.0  0.83822  0.64648  0.40684  1.0000
  H   H1480     1.0  0.86040  0.02532  0.05134  1.0000
  C   C1855     1.0  0.57148  0.71022  0.16900  1.0000
  C   C1856     1.0  0.75586  0.97388  0.24940  1.0000
  C   C1857     1.0  0.88456  0.92233  0.28440  1.0000
  C   C1858     1.0  0.79866  0.91533  0.21652  1.0000
  H   H1481     1.0  0.47073  0.63945  0.19227  1.0000
  H   H1482     1.0  0.82025  0.99623  0.11645  1.0000
  S   S251      1.0  0.49955  0.02337  0.31323  1.0000
  C   C1859     1.0  0.52066  0.62675  0.27082  1.0000
  C   C1860     1.0  0.69239  0.93357  0.37861  1.0000
  C   C1861     1.0  0.79041  0.89288  0.19981  1.0000
  S   S252      1.0  0.47446  0.87949  0.09502  1.0000
  C   C1862     1.0  0.85585  0.64907  0.15320  1.0000
  C   C1863     1.0  0.89678  0.68926  0.49008  1.0000
  H   H1483     1.0  0.46803  0.97298  0.38487  1.0000
  H   H1484     1.0  0.71423  0.88124  0.31438  1.0000
  H   H1485     1.0  0.61069  0.78760  0.46924  1.0000
  C   C1864     1.0  0.63188  0.83974  0.33767  1.0000
  C   C1865     1.0  0.65771  0.84746  0.49024  1.0000
  C   C1866     1.0  0.44918  0.64131  0.39008  1.0000
  C   C1867     1.0  0.41788  0.78071  0.48994  1.0000
  H   H1486     1.0  0.75011  0.85693  0.44487  1.0000
  H   H1487     1.0  0.51083  0.58414  0.17354  1.0000
  H   H1488     1.0  0.84465  0.86439  0.39001  1.0000
  H   H1489     1.0  0.69513  0.70293  0.46614  1.0000
  C   C1868     1.0  0.88741  0.02378  0.38428  1.0000
  H   H1490     1.0  0.88125  0.89830  0.12766  1.0000
  H   H1491     1.0  0.44449  0.93487  0.28615  1.0000
  C   C1869     1.0  0.52031  0.73759  0.19236  1.0000
  H   H1492     1.0  0.59559  0.82078  0.25480  1.0000
  H   H1493     1.0  0.69538  0.66573  0.25157  1.0000
  H   H1494     1.0  0.83499  0.88856  0.46293  1.0000
  H   H1495     1.0  0.83540  0.95073  0.10463  1.0000
  H   H1496     1.0  0.61498  0.86976  0.47544  1.0000
  C   C1870     1.0  0.43325  0.91742  0.27995  1.0000
  C   C1871     1.0  0.49097  0.77078  0.10327  1.0000
  H   H1497     1.0  0.70903  0.67452  0.09599  1.0000
  C   C1872     1.0  0.71567  0.76043  0.32306  1.0000
  H   H1498     1.0  0.62295  0.95258  0.40813  1.0000
  C   C1873     1.0  0.50120  0.71606  0.22021  1.0000
  H   H1499     1.0  0.46784  0.89112  0.30766  1.0000
  C   C1874     1.0  0.75034  0.74076  0.04728  1.0000
  H   H1500     1.0  0.70112  0.98130  0.28263  1.0000
  C   C1875     1.0  0.49144  0.95645  0.04999  1.0000
  H   H1501     1.0  0.71199  0.85517  0.03887  1.0000
  H   H1502     1.0  0.60704  0.83405  0.15754  1.0000
  S   S253      1.0  0.53485  0.75864  0.51041  1.0000
  H   H1503     1.0  0.74750  0.81589  0.04538  1.0000
  P   P63       1.0  0.43155  0.74069  0.12129  1.0000
  H   H1504     1.0  0.49106  0.91937  0.41324  1.0000
  S   S254      1.0  0.77736  0.99039  0.40922  1.0000
  C   C1876     1.0  0.75716  0.68649  0.37049  1.0000
  C   C1877     1.0  0.80755  0.88723  0.36166  1.0000
  S   S255      1.0  0.85811  0.77549  0.47343  1.0000
  H   H1505     1.0  0.43283  0.69995  0.05749  1.0000
  C   C1878     1.0  0.86200  0.66335  0.43812  1.0000
  H   H1506     1.0  0.78650  0.75456  0.49570  1.0000
  C   C1879     1.0  0.67274  0.83222  0.15955  1.0000
  H   H1507     1.0  0.86526  0.83296  0.23952  1.0000
  H   H1508     1.0  0.65286  0.83446  0.35351  1.0000
  C   C1880     1.0  0.67316  0.82261  0.49087  1.0000
  C   C1881     1.0  0.85229  0.95425  0.33547  1.0000
  C   C1882     1.0  0.88784  0.72096  0.04914  1.0000
  P   P64       1.0  0.57402  0.65739  0.20433  1.0000
  H   H1509     1.0  0.40513  0.61883  0.39122  1.0000
  C   C1883     1.0  0.81237  0.62190  0.45271  1.0000
  H   H1510     1.0  0.68532  0.96831  0.12672  1.0000
  H   H1511     1.0  0.44784  0.81824  0.19910  1.0000
  C   C1884     1.0  0.81473  0.91242  0.11541  1.0000
  C   C1885     1.0  0.56129  0.95605  0.22006  1.0000
  H   H1512     1.0  0.80015  0.84204  0.47468  1.0000
  H   H1513     1.0  0.59812  0.69972  0.24690  1.0000
  C   C1886     1.0  0.58757  0.89887  0.14551  1.0000
  C   C1887     1.0  0.87658  0.84104  0.20142  1.0000
  H   H1514     1.0  0.75194  0.95346  0.24868  1.0000
  H   H1515     1.0  0.50197  0.67544  0.24581  1.0000
  C   C1888     1.0  0.43359  0.79280  0.32601  1.0000
  S   S256      1.0  0.69784  0.02104  0.06672  1.0000
  H   H1516     1.0  0.47211  0.57681  0.26005  1.0000
  C   C1889     1.0  0.61698  0.68093  0.30486  1.0000
  H   H1517     1.0  0.59669  0.75810  0.05769  1.0000
  C   C1890     1.0  0.53578  0.87292  0.18530  1.0000
  H   H1518     1.0  0.54667  0.98762  0.34372  1.0000
  H   H1519     1.0  0.64280  0.74789  0.14902  1.0000
  C   C1891     1.0  0.48769  0.67498  0.14354  1.0000
  H   H1520     1.0  0.76011  0.73775  0.11839  1.0000
  C   C1892     1.0  0.66448  0.75545  0.39423  1.0000
  C   C1893     1.0  0.87457  0.60486  0.28927  1.0000
  C   C1894     1.0  0.67171  0.90278  0.13926  1.0000
  H   H1521     1.0  0.50759  0.82656  0.14371  1.0000
  H   H1522     1.0  0.85761  0.68489  0.31997  1.0000
  H   H1523     1.0  0.50803  0.75661  0.19166  1.0000
  H   H1524     1.0  0.59915  0.91782  0.13075  1.0000
  Fe  Fe127     1.0  0.77731  0.77551  0.37646  1.0000
  H   H1525     1.0  0.45690  0.58845  0.49617  1.0000
  C   C1895     1.0  0.79826  0.89147  0.14921  1.0000
  C   C1896     1.0  0.54288  0.01585  0.28324  1.0000
  C   C1897     1.0  0.44126  0.78365  0.16790  1.0000
  C   C1898     1.0  0.82270  0.93500  0.13197  1.0000
  C   C1899     1.0  0.67892  0.84879  0.11482  1.0000
  C   C1900     1.0  0.62737  0.78462  0.11815  1.0000
  Fe  Fe128     1.0  0.68780  0.02184  0.14821  1.0000
  H   H1526     1.0  0.88271  0.01428  0.50664  1.0000
  C   C1901     1.0  0.44892  0.89211  0.43245  1.0000
  C   C1902     1.0  0.68444  0.77968  0.03542  1.0000
  H   H1527     1.0  0.44837  0.76022  0.28395  1.0000
  C   C1903     1.0  0.50947  0.79214  0.10793  1.0000
  H   H1528     1.0  0.50323  0.75822  0.07542  1.0000
  C   C1904     1.0  0.86914  0.01535  0.08131  1.0000
  C   C1905     1.0  0.59550  0.02219  0.21362  1.0000
  H   H1529     1.0  0.41964  0.72298  0.39023  1.0000
  C   C1906     1.0  0.48988  0.92936  0.05009  1.0000
  H   H1530     1.0  0.41180  0.86673  0.16105  1.0000
  C   C1907     1.0  0.80634  0.74760  0.05912  1.0000
  C   C1908     1.0  0.41642  0.01552  0.45700  1.0000
  C   C1909     1.0  0.40609  0.69654  0.45788  1.0000
  C   C1910     1.0  0.43102  0.59533  0.51417  1.0000
  H   H1531     1.0  0.40732  0.65085  0.06435  1.0000
  C   C1911     1.0  0.40607  0.80615  0.35576  1.0000
  C   C1912     1.0  0.88614  0.87798  0.13769  1.0000
  C   C1913     1.0  0.90033  0.02011  0.25790  1.0000
  C   C1914     1.0  0.89375  0.82483  0.16621  1.0000
  C   C1915     1.0  0.43969  0.71846  0.03453  1.0000
  C   C1916     1.0  0.58106  0.75182  0.03663  1.0000
  H   H1532     1.0  0.89562  0.80411  0.17713  1.0000
  C   C1917     1.0  0.41366  0.97979  0.39206  1.0000
  C   C1918     1.0  0.58488  0.95965  0.04925  1.0000
  H   H1533     1.0  0.70872  0.91089  0.03796  1.0000
  C   C1919     1.0  0.77210  0.76232  0.52956  1.0000
  H   H1534     1.0  0.64445  0.73233  0.03540  1.0000
  H   H1535     1.0  0.90193  0.90565  0.27989  1.0000
  C   C1920     1.0  0.57262  0.93859  0.03323  1.0000
  H   H1536     1.0  0.69392  0.92388  0.53104  1.0000
