data_image0
_chemical_formula_structural       CHSHCHCFeC3H4CPHC3HCH2C3HCHCHCHCHCHC2SFeHCH2CHCHCSHC6HC4HCPHSFeC3HFeS2HCH2SHCH2C2FeCH2CSCFeHC2H2SCFeHC2H2C5HSC2SH2CHSC2FeHC3PCH2CHCHC2SH2C5H5C3HCSC3SHCH3CH5C2HCHC3HCH3C4H2C2H6C3HC2HC3HC2PHCHCHC2H3CH2CPC2SHCH3C3HC2PHC5H3C2HCHCHCHC2HCH2C5HCSHC2SCHCHCH3C4HSHSH2C2H2CH2FeCH2C2H4CHC5H3C2HCH2CH3C3HC3H2C2HC3H4CH2C8PHC2HC2FeCHCFeHCSC2H5CSH2SCH2CHC3H2CPHCSC3PHCH5CHC4HC2HC3HCH2SC2H2CHC2HC3FeSFeHCH2CFeSHCFeCPSCH2CHCH4SC3H3C4HC3H2SC3SCHCH2C5HCHCHC3HC2HFeSHSHPCSHCHFeH3C2H2CHSCH2C2FeCH3C2HC3SHC2HCHCSCSHFeH2CHC2HC2H2CH2CH2C2H2CFeH2CSHSC2HCHC2HCSHCHC2H2C3HCHCHSCHCSPCHC2HCHC3HCHC4HCHC2PHC2HC2HCH2C2HCFeH4C2Fe2HSC2HSH3C2HCHC3HCHSCHFeCH6C5HSC2HC2HCHC2H2C10HCHCHCHC2H2C3H2CHC4HCFeC3HC2SC2H2PC2HCH5C2HCSCH3CSHC3HC3HCFeHCHC2HC2HCSHFeH2C3H5CSHCHSCSC3PCHC2HC4H2CH3C3SC3HCH5C2H2SHC2H4Fe2CSCHCHFeH2CFeC3HCSH2SCH2C4HSCHC9SH2C4HSHC2HCFeH4C2H3CHCSC2HCPHCHC2HCHC2SC4H3C
_chemical_formula_sum              "C480 H384 S64 Fe32 P16"
_cell_length_a       20.3561
_cell_length_b       13.0843
_cell_length_c       48.248
_cell_angle_alpha    87.4285
_cell_angle_beta     79.0515
_cell_angle_gamma    87.5189

_space_group_name_H-M_alt    "P 1"
_space_group_IT_number       1

loop_
  _space_group_symop_operation_xyz
  'x, y, z'

loop_
  _atom_site_type_symbol
  _atom_site_label
  _atom_site_symmetry_multiplicity
  _atom_site_fract_x
  _atom_site_fract_y
  _atom_site_fract_z
  _atom_site_occupancy
  C   C1        1.0  0.11741  0.97993  0.21216  1.0000
  H   H1        1.0  0.12577  0.00337  0.29121  1.0000
  S   S1        1.0  0.43159  0.78445  0.33127  1.0000
  H   H2        1.0  0.28647  0.87871  0.33397  1.0000
  C   C2        1.0  0.07429  0.92486  0.23297  1.0000
  H   H3        1.0  0.09309  0.80359  0.31926  1.0000
  C   C3        1.0  0.99622  0.02265  0.35447  1.0000
  Fe  Fe1       1.0  0.43788  0.62175  0.34763  1.0000
  C   C4        1.0  0.07785  0.93335  0.26139  1.0000
  C   C5        1.0  0.46170  0.75334  0.19488  1.0000
  C   C6        1.0  0.23556  0.85623  0.34208  1.0000
  H   H4        1.0  0.49449  0.86117  0.13396  1.0000
  H   H5        1.0  0.28951  0.71022  0.22304  1.0000
  H   H6        1.0  0.30581  0.71863  0.27001  1.0000
  H   H7        1.0  0.37199  0.85210  0.19908  1.0000
  C   C7        1.0  0.12412  0.99744  0.26907  1.0000
  P   P1        1.0  0.42029  0.63552  0.19248  1.0000
  H   H8        1.0  0.37628  0.63232  0.13742  1.0000
  C   C8        1.0  0.31169  0.97333  0.26274  1.0000
  C   C9        1.0  0.46331  0.85344  0.11839  1.0000
  C   C10       1.0  0.19097  0.84796  0.32370  1.0000
  H   H9        1.0  0.03796  0.87556  0.22717  1.0000
  C   C11       1.0  0.22518  0.72917  0.19271  1.0000
  H   H10       1.0  0.37902  0.84557  0.26932  1.0000
  H   H11       1.0  0.38021  0.93894  0.14201  1.0000
  C   C12       1.0  0.37215  0.92797  0.26778  1.0000
  C   C13       1.0  0.21947  0.63792  0.29064  1.0000
  C   C14       1.0  0.42542  0.84736  0.19818  1.0000
  H   H12       1.0  0.17226  0.74134  0.15801  1.0000
  C   C15       1.0  0.28577  0.70224  0.20120  1.0000
  H   H13       1.0  0.42996  0.00953  0.20329  1.0000
  C   C16       1.0  0.39875  0.89759  0.12298  1.0000
  H   H14       1.0  0.11455  0.97342  0.19012  1.0000
  C   C17       1.0  0.32613  0.62822  0.30581  1.0000
  H   H15       1.0  0.47054  0.95375  0.27572  1.0000
  C   C18       1.0  0.27411  0.68586  0.14483  1.0000
  H   H16       1.0  0.00299  0.97764  0.33576  1.0000
  C   C19       1.0  0.28564  0.66699  0.28724  1.0000
  H   H17       1.0  0.37809  0.64718  0.30210  1.0000
  C   C20       1.0  0.42454  0.98889  0.27110  1.0000
  C   C21       1.0  0.45814  0.93744  0.20055  1.0000
  S   S2        1.0  0.16986  0.69417  0.26799  1.0000
  Fe  Fe2       1.0  0.07107  0.62273  0.27237  1.0000
  H   H18       1.0  0.26940  0.67828  0.12299  1.0000
  C   C22       1.0  0.21936  0.72110  0.16454  1.0000
  H   H19       1.0  0.20730  0.86283  0.30133  1.0000
  H   H20       1.0  0.18260  0.75580  0.20809  1.0000
  C   C23       1.0  0.34103  0.66611  0.18162  1.0000
  H   H21       1.0  0.27169  0.92492  0.26010  1.0000
  C   C24       1.0  0.12637  0.81443  0.33385  1.0000
  H   H22       1.0  0.04458  0.88996  0.27740  1.0000
  C   C25       1.0  0.33478  0.65880  0.15324  1.0000
  S   S3        1.0  0.03399  0.62811  0.23185  1.0000
  H   H23       1.0  0.10212  0.02575  0.35437  1.0000
  C   C26       1.0  0.10563  0.79112  0.36260  1.0000
  C   C27       1.0  0.16358  0.04449  0.21977  1.0000
  C   C28       1.0  0.16659  0.05504  0.24836  1.0000
  C   C29       1.0  0.19367  0.56843  0.31247  1.0000
  C   C30       1.0  0.07871  0.78543  0.55933  1.0000
  C   C31       1.0  0.32603  0.66551  0.41663  1.0000
  H   H24       1.0  0.20665  0.61437  0.38658  1.0000
  C   C32       1.0  0.03295  0.79910  0.42702  1.0000
  C   C33       1.0  0.00723  0.89811  0.43348  1.0000
  C   C34       1.0  0.33094  0.75514  0.43065  1.0000
  C   C35       1.0  0.18124  0.82408  0.46437  1.0000
  H   H25       1.0  0.30959  0.66978  0.39658  1.0000
  C   C36       1.0  0.05748  0.63570  0.53508  1.0000
  P   P2        1.0  0.12228  0.77432  0.41872  1.0000
  H   H26       1.0  0.31713  0.82877  0.42190  1.0000
  S   S4        1.0  0.29687  0.74915  0.59117  1.0000
  Fe  Fe3       1.0  0.31968  0.75034  0.54420  1.0000
  C   C37       1.0  0.02833  0.99846  0.49267  1.0000
  C   C38       1.0  0.37684  0.65648  0.46643  1.0000
  C   C39       1.0  0.14948  0.80190  0.38143  1.0000
  H   H27       1.0  0.05573  0.76370  0.36989  1.0000
  Fe  Fe4       1.0  0.43861  0.88095  0.54046  1.0000
  S   S5        1.0  0.43194  0.95603  0.39130  1.0000
  S   S6        1.0  0.25670  0.66237  0.52136  1.0000
  H   H28       1.0  0.08059  0.98121  0.48449  1.0000
  C   C40       1.0  0.41785  0.01531  0.44564  1.0000
  H   H29       1.0  0.16424  0.98650  0.40874  1.0000
  H   H30       1.0  0.39590  0.65489  0.48589  1.0000
  S   S7        1.0  0.42887  0.71071  0.54119  1.0000
  H   H31       1.0  0.00708  0.64578  0.41876  1.0000
  C   C41       1.0  0.17133  0.68491  0.53362  1.0000
  H   H32       1.0  0.22875  0.86218  0.49867  1.0000
  H   H33       1.0  0.25629  0.03673  0.47967  1.0000
  C   C42       1.0  0.17786  0.95820  0.42836  1.0000
  C   C43       1.0  0.43629  0.01630  0.47216  1.0000
  Fe  Fe5       1.0  0.48039  0.82194  0.36701  1.0000
  C   C44       1.0  0.16326  0.85777  0.43867  1.0000
  H   H34       1.0  0.17170  0.74727  0.47292  1.0000
  H   H35       1.0  0.07624  0.63823  0.46798  1.0000
  C   C45       1.0  0.03371  0.71797  0.55211  1.0000
  S   S8        1.0  0.47961  0.66159  0.38532  1.0000
  C   C46       1.0  0.11140  0.59515  0.45271  1.0000
  Fe  Fe6       1.0  0.40696  0.72290  0.58826  1.0000
  H   H36       1.0  0.25082  0.83750  0.38469  1.0000
  C   C47       1.0  0.35539  0.75029  0.45578  1.0000
  C   C48       1.0  0.21514  0.83246  0.37085  1.0000
  H   H37       1.0  0.35899  0.81940  0.46685  1.0000
  H   H38       1.0  0.02298  0.58423  0.52910  1.0000
  S   S9        1.0  0.33118  0.91937  0.53894  1.0000
  C   C49       1.0  0.21392  0.88920  0.47914  1.0000
  Fe  Fe7       1.0  0.31907  0.91493  0.58598  1.0000
  H   H39       1.0  0.18267  0.81938  0.55629  1.0000
  C   C50       1.0  0.22948  0.98782  0.46841  1.0000
  C   C51       1.0  0.45616  0.95782  0.42419  1.0000
  H   H40       1.0  0.04004  0.95908  0.43521  1.0000
  H   H41       1.0  0.06022  0.85031  0.57203  1.0000
  C   C52       1.0  0.18410  0.58187  0.40699  1.0000
  C   C53       1.0  0.12626  0.61934  0.52586  1.0000
  C   C54       1.0  0.49393  0.96202  0.47703  1.0000
  C   C55       1.0  0.14781  0.76811  0.55038  1.0000
  C   C56       1.0  0.14085  0.64111  0.42675  1.0000
  H   H42       1.0  0.00706  0.84302  0.50702  1.0000
  S   S10       1.0  0.42774  0.88955  0.58736  1.0000
  C   C57       1.0  0.05240  0.04985  0.36491  1.0000
  C   C58       1.0  0.21127  0.02248  0.44304  1.0000
  S   S11       1.0  0.25046  0.02882  0.61103  1.0000
  H   H43       1.0  0.40613  0.05914  0.48882  1.0000
  H   H44       1.0  0.37341  0.05763  0.44190  1.0000
  C   C59       1.0  0.34775  0.57114  0.42720  1.0000
  H   H45       1.0  0.11958  0.80306  0.78536  1.0000
  S   S12       1.0  0.44843  0.04504  0.76698  1.0000
  C   C60       1.0  0.01755  0.66814  0.62205  1.0000
  C   C61       1.0  0.16324  0.80129  0.79521  1.0000
  Fe  Fe8       1.0  0.05739  0.96720  0.74444  1.0000
  H   H46       1.0  0.40342  0.83861  0.78670  1.0000
  C   C62       1.0  0.16207  0.85544  0.81959  1.0000
  C   C63       1.0  0.14910  0.86661  0.69231  1.0000
  C   C64       1.0  0.05604  0.74932  0.62656  1.0000
  P   P3        1.0  0.34086  0.64080  0.78757  1.0000
  C   C65       1.0  0.42027  0.67640  0.79492  1.0000
  H   H47       1.0  0.24370  0.78694  0.69210  1.0000
  H   H48       1.0  0.21871  0.69876  0.76543  1.0000
  C   C66       1.0  0.14445  0.98742  0.65318  1.0000
  H   H49       1.0  0.15415  0.79508  0.62980  1.0000
  C   C67       1.0  0.21787  0.85203  0.83248  1.0000
  H   H50       1.0  0.01911  0.68908  0.83751  1.0000
  C   C68       1.0  0.34414  0.67221  0.72942  1.0000
  C   C69       1.0  0.49245  0.95437  0.66550  1.0000
  S   S13       1.0  0.07307  0.02384  0.78571  1.0000
  H   H51       1.0  0.29918  0.87137  0.64684  1.0000
  H   H52       1.0  0.38482  0.96912  0.82363  1.0000
  C   C70       1.0  0.27454  0.79252  0.82135  1.0000
  C   C71       1.0  0.43754  0.77955  0.79272  1.0000
  C   C72       1.0  0.12397  0.73247  0.62677  1.0000
  C   C73       1.0  0.34785  0.99859  0.84086  1.0000
  C   C74       1.0  0.22022  0.74323  0.78369  1.0000
  H   H53       1.0  0.20502  0.62181  0.62501  1.0000
  H   H54       1.0  0.31575  0.78542  0.83262  1.0000
  H   H55       1.0  0.03380  0.82561  0.62934  1.0000
  H   H56       1.0  0.47709  0.76332  0.71653  1.0000
  H   H57       1.0  0.32081  0.96822  0.76134  1.0000
  C   C75       1.0  0.35746  0.60457  0.75128  1.0000
  C   C76       1.0  0.00017  0.61296  0.84248  1.0000
  C   C77       1.0  0.48901  0.80031  0.69575  1.0000
  H   H58       1.0  0.24033  0.04969  0.69883  1.0000
  C   C78       1.0  0.27644  0.73840  0.79670  1.0000
  S   S14       1.0  0.43766  0.60885  0.61993  1.0000
  C   C79       1.0  0.21582  0.84094  0.68084  1.0000
  C   C80       1.0  0.15322  0.63455  0.62309  1.0000
  C   C81       1.0  0.35833  0.64124  0.70142  1.0000
  S   S15       1.0  0.11304  0.82585  0.72659  1.0000
  H   H59       1.0  0.04360  0.64287  0.72003  1.0000
  C   C82       1.0  0.24721  0.88974  0.65552  1.0000
  H   H60       1.0  0.34880  0.69314  0.68433  1.0000
  H   H61       1.0  0.99811  0.89354  0.83788  1.0000
  H   H62       1.0  0.32360  0.74884  0.73382  1.0000
  C   C83       1.0  0.47806  0.90601  0.69244  1.0000
  H   H63       1.0  0.21047  0.05751  0.76237  1.0000
  H   H64       1.0  0.11767  0.89947  0.82858  1.0000
  H   H65       1.0  0.35576  0.98505  0.68246  1.0000
  H   H66       1.0  0.21661  0.89399  0.85139  1.0000
  H   H67       1.0  0.11609  0.04290  0.64264  1.0000
  C   C84       1.0  0.31692  0.05095  0.76122  1.0000
  C   C85       1.0  0.46741  0.60112  0.80076  1.0000
  H   H68       1.0  0.45845  0.95030  0.71086  1.0000
  C   C86       1.0  0.11291  0.93635  0.67784  1.0000
  H   H69       1.0  0.06079  0.95333  0.68630  1.0000
  C   C87       1.0  0.21189  0.96535  0.64216  1.0000
  C   C88       1.0  0.04682  0.57000  0.61806  1.0000
  C   C89       1.0  0.38348  0.83979  0.07782  1.0000
  H   H70       1.0  0.30859  0.92466  0.10611  1.0000
  C   C90       1.0  0.27571  0.60848  0.02431  1.0000
  H   H71       1.0  0.07987  0.65900  0.95714  1.0000
  H   H72       1.0  0.28029  0.73592  0.99441  1.0000
  H   H73       1.0  0.25295  0.60027  0.89223  1.0000
  C   C91       1.0  0.28177  0.64187  0.90434  1.0000
  C   C92       1.0  0.30630  0.80250  0.92277  1.0000
  C   C93       1.0  0.48824  0.80212  0.09351  1.0000
  C   C94       1.0  0.48783  0.68515  0.87691  1.0000
  H   H74       1.0  0.02764  0.79912  0.88056  1.0000
  H   H75       1.0  0.12539  0.91122  0.06065  1.0000
  C   C95       1.0  0.40608  0.04157  0.92782  1.0000
  C   C96       1.0  0.27090  0.74742  0.90649  1.0000
  H   H76       1.0  0.02996  0.03295  0.98830  1.0000
  H   H77       1.0  0.37701  0.89244  0.87183  1.0000
  H   H78       1.0  0.10345  0.98872  0.87077  1.0000
  H   H79       1.0  0.04049  0.59452  0.88020  1.0000
  H   H80       1.0  0.17329  0.81052  0.94890  1.0000
  H   H81       1.0  0.43492  0.70356  0.87871  1.0000
  C   C97       1.0  0.20784  0.96603  0.94653  1.0000
  C   C98       1.0  0.34308  0.95547  0.86818  1.0000
  C   C99       1.0  0.36797  0.58857  0.04964  1.0000
  H   H82       1.0  0.04916  0.01609  0.92021  1.0000
  C   C100      1.0  0.33938  0.98796  0.97285  1.0000
  C   C101      1.0  0.30580  0.69266  0.00912  1.0000
  H   H83       1.0  0.35132  0.83618  0.06247  1.0000
  C   C102      1.0  0.35355  0.75055  0.93658  1.0000
  C   C103      1.0  0.40065  0.66951  0.03336  1.0000
  C   C104      1.0  0.34961  0.99320  0.94323  1.0000
  H   H84       1.0  0.38790  0.79239  0.00274  1.0000
  C   C105      1.0  0.36763  0.72348  0.01370  1.0000
  C   C106      1.0  0.12085  0.98911  0.05254  1.0000
  P   P4        1.0  0.47589  0.71995  0.04186  1.0000
  H   H85       1.0  0.00359  0.61546  0.05607  1.0000
  C   C107      1.0  0.17716  0.05006  0.04699  1.0000
  H   H86       1.0  0.06155  0.85401  0.97602  1.0000
  C   C108      1.0  0.36419  0.64449  0.93443  1.0000
  H   H87       1.0  0.38231  0.79124  0.94897  1.0000
  C   C109      1.0  0.44825  0.79417  0.07302  1.0000
  C   C110      1.0  0.09749  0.91320  0.96976  1.0000
  H   H88       1.0  0.41500  0.04811  0.90499  1.0000
  H   H89       1.0  0.23408  0.78603  0.89579  1.0000
  H   H90       1.0  1.00000  0.57888  0.93319  1.0000
  C   C111      1.0  0.16116  0.88905  0.95438  1.0000
  H   H91       1.0  0.37525  0.02871  0.00965  1.0000
  H   H92       1.0  0.40053  0.60413  0.94515  1.0000
  C   C112      1.0  0.32847  0.59027  0.91823  1.0000
  P   P5        1.0  0.28966  0.93852  0.92572  1.0000
  C   C113      1.0  0.38434  0.03202  0.98685  1.0000
  C   C114      1.0  0.35878  0.89038  0.10273  1.0000
  S   S16       1.0  0.25470  0.00004  0.05370  1.0000
  H   H93       1.0  0.01502  0.98240  0.05279  1.0000
  C   C115      1.0  0.29569  0.99507  0.89053  1.0000
  H   H94       1.0  0.22753  0.58471  0.02103  1.0000
  H   H95       1.0  0.29612  0.95135  0.98532  1.0000
  H   H96       1.0  0.01210  0.69445  0.00846  1.0000
  C   C116      1.0  0.07956  0.01416  0.97679  1.0000
  C   C117      1.0  0.05836  0.02929  0.04805  1.0000
  C   C118      1.0  0.09317  0.58588  0.94750  1.0000
  H   H97       1.0  0.18933  0.57103  0.96009  1.0000
  C   C119      1.0  0.19045  0.06642  0.95508  1.0000
  C   C120      1.0  0.08522  0.06455  0.87702  1.0000
  P   P6        1.0  0.22377  0.14224  0.25852  1.0000
  H   H98       1.0  0.35280  0.22347  0.26195  1.0000
  C   C121      1.0  0.09055  0.46384  0.17306  1.0000
  C   C122      1.0  0.26700  0.39912  0.18960  1.0000
  C   C123      1.0  0.35264  0.51068  0.23647  1.0000
  C   C124      1.0  0.46979  0.55603  0.16606  1.0000
  C   C125      1.0  0.14219  0.48741  0.15039  1.0000
  H   H99       1.0  0.30980  0.52077  0.22649  1.0000
  H   H100      1.0  0.42429  0.41581  0.18410  1.0000
  H   H101      1.0  0.45866  0.14166  0.27124  1.0000
  C   C126      1.0  0.12542  0.28427  0.34332  1.0000
  C   C127      1.0  0.30344  0.08041  0.26144  1.0000
  H   H102      1.0  0.48953  0.29075  0.23743  1.0000
  C   C128      1.0  0.12482  0.28485  0.17042  1.0000
  H   H103      1.0  0.16152  0.34680  0.25136  1.0000
  C   C129      1.0  0.19405  0.26074  0.33777  1.0000
  H   H104      1.0  0.19574  0.08731  0.20328  1.0000
  C   C130      1.0  0.30424  0.30677  0.18678  1.0000
  H   H105      1.0  0.03304  0.28167  0.32801  1.0000
  C   C131      1.0  0.34788  0.44700  0.26077  1.0000
  C   C132      1.0  0.45935  0.45057  0.16697  1.0000
  H   H106      1.0  0.11856  0.20664  0.17837  1.0000
  C   C133      1.0  0.18700  0.41042  0.13841  1.0000
  H   H107      1.0  0.18518  0.48338  0.21462  1.0000
  H   H108      1.0  0.34210  0.29490  0.16802  1.0000
  C   C134      1.0  0.30050  0.56074  0.32805  1.0000
  C   C135      1.0  0.20209  0.33506  0.23377  1.0000
  C   C136      1.0  0.29125  0.22909  0.20773  1.0000
  C   C137      1.0  0.49279  0.38954  0.14529  1.0000
  C   C138      1.0  0.11613  0.22014  0.29792  1.0000
  H   H109      1.0  0.21443  0.47708  0.34833  1.0000
  C   C139      1.0  0.24037  0.24310  0.23156  1.0000
  S   S17       1.0  0.35141  0.51652  0.35176  1.0000
  H   H110      1.0  0.14213  0.54669  0.31539  1.0000
  C   C140      1.0  0.08636  0.26291  0.32359  1.0000
  C   C141      1.0  0.17707  0.30856  0.14787  1.0000
  S   S18       1.0  0.05031  0.45749  0.28190  1.0000
  C   C142      1.0  0.18538  0.19689  0.29198  1.0000
  H   H111      1.0  0.21086  0.24857  0.13863  1.0000
  C   C143      1.0  0.40190  0.43506  0.27479  1.0000
  H   H112      1.0  0.32007  0.15752  0.20505  1.0000
  C   C144      1.0  0.35777  0.14081  0.26337  1.0000
  H   H113      1.0  0.27701  0.19973  0.30892  1.0000
  H   H114      1.0  0.39729  0.38940  0.29436  1.0000
  H   H115      1.0  0.08514  0.20698  0.28255  1.0000
  C   C145      1.0  0.08330  0.36321  0.18374  1.0000
  C   C146      1.0  0.23446  0.52944  0.33118  1.0000
  C   C147      1.0  0.22391  0.21696  0.31233  1.0000
  C   C148      1.0  0.21537  0.41273  0.21288  1.0000
  H   H116      1.0  0.30114  0.41074  0.26946  1.0000
  S   S19       1.0  0.25819  0.44564  0.11377  1.0000
  H   H117      1.0  0.27681  0.45927  0.17333  1.0000
  S   S20       1.0  0.02478  0.33535  0.21447  1.0000
  H   H118      1.0  0.48322  0.30866  0.14567  1.0000
  H   H119      1.0  0.05694  0.52371  0.18244  1.0000
  C   C149      1.0  0.41776  0.09514  0.26853  1.0000
  C   C150      1.0  0.46055  0.48699  0.26446  1.0000
  H   H120      1.0  0.02033  0.47823  0.36119  1.0000
  H   H121      1.0  0.22444  0.27767  0.35307  1.0000
  C   C151      1.0  0.46547  0.55044  0.24008  1.0000
  H   H122      1.0  0.02423  0.13802  0.11461  1.0000
  H   H123      1.0  0.49224  0.19718  0.19356  1.0000
  Fe  Fe9       1.0  0.00415  0.46750  0.24336  1.0000
  C   C152      1.0  0.41141  0.56282  0.22578  1.0000
  H   H124      1.0  0.14853  0.56576  0.14263  1.0000
  H   H125      1.0  0.10245  0.31910  0.36294  1.0000
  C   C153      1.0  0.00187  0.09784  0.48985  1.0000
  C   C154      1.0  0.44463  0.11766  0.60971  1.0000
  H   H126      1.0  0.04074  0.32577  0.54194  1.0000
  H   H127      1.0  0.27286  0.48688  0.48908  1.0000
  H   H128      1.0  0.10698  0.07897  0.59305  1.0000
  H   H129      1.0  0.10358  0.45748  0.47912  1.0000
  C   C155      1.0  0.49463  0.44817  0.50478  1.0000
  H   H130      1.0  0.34830  0.52273  0.54833  1.0000
  C   C156      1.0  0.23891  0.42118  0.60399  1.0000
  C   C157      1.0  0.33136  0.22735  0.51993  1.0000
  C   C158      1.0  0.45332  0.14760  0.58108  1.0000
  C   C159      1.0  0.09888  0.16032  0.58893  1.0000
  C   C160      1.0  0.35276  0.35985  0.60494  1.0000
  H   H131      1.0  0.14480  0.55558  0.51285  1.0000
  H   H132      1.0  0.08804  0.13336  0.39631  1.0000
  H   H133      1.0  0.19612  0.39206  0.52593  1.0000
  C   C161      1.0  0.12065  0.23114  0.60583  1.0000
  C   C162      1.0  0.49095  0.26141  0.38382  1.0000
  H   H134      1.0  0.05286  0.13918  0.55299  1.0000
  C   C163      1.0  0.40818  0.29412  0.42595  1.0000
  H   H135      1.0  0.34749  0.15514  0.52880  1.0000
  H   H136      1.0  0.34654  0.50335  0.41529  1.0000
  C   C164      1.0  0.20008  0.47980  0.41362  1.0000
  H   H137      1.0  0.22392  0.09873  0.43459  1.0000
  H   H138      1.0  0.08275  0.45063  0.57054  1.0000
  H   H139      1.0  0.46385  0.38932  0.51616  1.0000
  C   C165      1.0  0.43101  0.23764  0.40185  1.0000
  C   C166      1.0  0.24595  0.36052  0.51828  1.0000
  C   C167      1.0  0.08521  0.36999  0.57657  1.0000
  H   H140      1.0  0.03338  0.15815  0.47931  1.0000
  C   C168      1.0  0.06231  0.29919  0.55999  1.0000
  C   C169      1.0  0.37535  0.28092  0.49900  1.0000
  C   C170      1.0  0.26685  0.26750  0.52974  1.0000
  H   H141      1.0  0.42922  0.42173  0.57215  1.0000
  H   H142      1.0  0.40238  0.17494  0.39714  1.0000
  C   C171      1.0  0.04461  0.11062  0.38847  1.0000
  C   C172      1.0  0.00356  0.43793  0.40601  1.0000
  H   H143      1.0  0.42532  0.24883  0.49161  1.0000
  C   C173      1.0  0.33065  0.47767  0.56747  1.0000
  C   C174      1.0  0.37529  0.56657  0.45177  1.0000
  C   C175      1.0  0.35565  0.37665  0.48826  1.0000
  H   H144      1.0  0.23331  0.22679  0.54635  1.0000
  H   H145      1.0  0.18395  0.35631  0.44496  1.0000
  H   H146      1.0  0.36127  0.27478  0.43945  1.0000
  H   H147      1.0  0.23501  0.43577  0.39849  1.0000
  C   C176      1.0  0.28999  0.41472  0.49753  1.0000
  H   H148      1.0  0.41461  0.13368  0.56922  1.0000
  H   H149      1.0  0.22777  0.52578  0.56918  1.0000
  C   C177      1.0  0.11287  0.33639  0.60011  1.0000
  C   C178      1.0  0.44555  0.37480  0.43232  1.0000
  C   C179      1.0  0.06914  0.19427  0.56618  1.0000
  C   C180      1.0  0.37603  0.41961  0.58061  1.0000
  C   C181      1.0  0.12717  0.49284  0.45919  1.0000
  C   C182      1.0  0.17185  0.43539  0.43978  1.0000
  C   C183      1.0  0.48378  0.48899  0.47850  1.0000
  C   C184      1.0  0.26234  0.47913  0.57926  1.0000
  P   P7        1.0  0.41480  0.44966  0.46306  1.0000
  H   H150      1.0  0.05316  0.45733  0.40848  1.0000
  C   C185      1.0  0.30573  0.26441  0.76220  1.0000
  C   C186      1.0  0.26574  0.20811  0.69426  1.0000
  H   H151      1.0  0.04060  0.33422  0.65973  1.0000
  C   C187      1.0  0.11528  0.55295  0.61817  1.0000
  C   C188      1.0  0.13704  0.40214  0.65691  1.0000
  Fe  Fe10      1.0  0.48049  0.26066  0.84861  1.0000
  C   C189      1.0  0.40161  0.47756  0.71675  1.0000
  H   H152      1.0  0.14605  0.20404  0.62272  1.0000
  C   C190      1.0  0.24838  0.20837  0.76347  1.0000
  Fe  Fe11      1.0  0.08670  0.17516  0.76272  1.0000
  H   H153      1.0  0.45628  0.52094  0.80143  1.0000
  C   C191      1.0  0.07618  0.36339  0.67124  1.0000
  S   S21       1.0  0.47806  0.30121  0.80318  1.0000
  C   C192      1.0  0.24825  0.49014  0.80159  1.0000
  C   C193      1.0  0.22237  0.40384  0.84744  1.0000
  H   H154      1.0  0.08944  0.41037  0.73875  1.0000
  H   H155      1.0  0.22570  0.48052  0.66186  1.0000
  H   H156      1.0  0.22768  0.18649  0.85349  1.0000
  H   H157      1.0  0.16490  0.39233  0.81471  1.0000
  H   H158      1.0  0.39685  0.51966  0.67355  1.0000
  C   C194      1.0  0.10285  0.40801  0.71597  1.0000
  S   S22       1.0  0.07921  0.11728  0.72081  1.0000
  H   H159      1.0  0.30163  0.34675  0.76218  1.0000
  H   H160      1.0  0.42159  0.29577  0.66994  1.0000
  S   S23       1.0  0.49112  0.09232  0.84180  1.0000
  C   C195      1.0  0.16351  0.44651  0.70191  1.0000
  H   H161      1.0  0.31150  0.11843  0.81502  1.0000
  H   H162      1.0  0.35826  0.54931  0.84317  1.0000
  C   C196      1.0  0.38762  0.50809  0.74467  1.0000
  H   H163      1.0  0.11385  0.13398  0.83532  1.0000
  C   C197      1.0  0.31700  0.27726  0.68645  1.0000
  C   C198      1.0  0.25415  0.10147  0.76225  1.0000
  C   C199      1.0  0.38275  0.24134  0.67702  1.0000
  H   H164      1.0  0.47528  0.22458  0.71072  1.0000
  H   H165      1.0  0.21469  0.23555  0.70163  1.0000
  C   C200      1.0  0.37358  0.10751  0.76172  1.0000
  P   P8        1.0  0.48253  0.09158  0.66201  1.0000
  H   H166      1.0  0.26677  0.30894  0.63447  1.0000
  C   C201      1.0  0.28031  0.10305  0.69287  1.0000
  S   S24       1.0  0.17043  0.27443  0.76720  1.0000
  C   C202      1.0  0.20792  0.42509  0.82066  1.0000
  C   C203      1.0  0.31766  0.51323  0.83624  1.0000
  C   C204      1.0  0.36815  0.21426  0.76127  1.0000
  P   P9        1.0  0.15096  0.42518  0.61923  1.0000
  H   H167      1.0  0.41202  0.25826  0.76040  1.0000
  C   C205      1.0  0.39818  0.13576  0.67638  1.0000
  H   H168      1.0  0.30560  0.35864  0.68748  1.0000
  H   H169      1.0  0.23488  0.50775  0.78115  1.0000
  H   H170      1.0  0.40022  0.45609  0.76114  1.0000
  H   H171      1.0  0.39848  0.08206  0.61968  1.0000
  H   H172      1.0  0.19695  0.47924  0.71385  1.0000
  C   C206      1.0  0.27757  0.44663  0.85507  1.0000
  H   H173      1.0  0.07204  0.30603  0.84966  1.0000
  C   C207      1.0  0.38633  0.54364  0.69517  1.0000
  C   C208      1.0  0.18023  0.44481  0.67248  1.0000
  C   C209      1.0  0.30335  0.53518  0.80922  1.0000
  C   C210      1.0  0.09087  0.14624  0.85717  1.0000
  H   H174      1.0  0.42441  0.40267  0.71192  1.0000
  C   C211      1.0  0.05915  0.36732  0.70067  1.0000
  C   C212      1.0  0.25936  0.12179  0.85776  1.0000
  H   H175      1.0  0.01157  0.34011  0.71172  1.0000
  C   C213      1.0  0.34621  0.06672  0.68395  1.0000
  C   C214      1.0  0.49512  0.13260  0.62516  1.0000
  C   C215      1.0  0.30662  0.08251  0.83581  1.0000
  H   H176      1.0  0.19059  0.35472  0.86234  1.0000
  C   C216      1.0  0.28421  0.35834  0.61619  1.0000
  H   H177      1.0  0.01573  0.50768  0.61543  1.0000
  H   H178      1.0  0.38794  0.31536  0.61517  1.0000
  S   S25       1.0  0.43402  0.32870  0.08199  1.0000
  C   C217      1.0  0.17078  0.15031  0.03628  1.0000
  C   C218      1.0  0.06656  0.24395  0.86541  1.0000
  H   H179      1.0  0.38867  0.55142  0.06672  1.0000
  H   H180      1.0  0.15558  0.37829  0.08031  1.0000
  C   C219      1.0  0.05008  0.41464  0.08354  1.0000
  H   H181      1.0  0.49002  0.49416  0.04117  1.0000
  C   C220      1.0  0.12672  0.39733  0.92237  1.0000
  C   C221      1.0  0.45113  0.08510  0.94200  1.0000
  H   H182      1.0  0.33714  0.50832  0.91642  1.0000
  C   C222      1.0  0.15470  0.53652  0.94906  1.0000
  C   C223      1.0  0.12590  0.09079  0.96942  1.0000
  C   C224      1.0  0.01172  0.55892  0.86690  1.0000
  Fe  Fe12      1.0  0.32395  0.11869  0.06332  1.0000
  S   S26       1.0  0.43640  0.10912  0.05077  1.0000
  Fe  Fe13      1.0  0.42562  0.27634  0.03925  1.0000
  H   H183      1.0  0.47636  0.52226  0.87596  1.0000
  C   C225      1.0  0.10831  0.19110  0.03230  1.0000
  H   H184      1.0  0.28830  0.42966  0.87591  1.0000
  H   H185      1.0  0.14043  0.32363  0.91323  1.0000
  C   C226      1.0  0.42295  0.32651  0.91632  1.0000
  Fe  Fe14      1.0  0.43693  0.16197  0.09426  1.0000
  S   S27       1.0  0.32542  0.15494  0.10829  1.0000
  H   H186      1.0  0.05912  0.49185  0.07550  1.0000
  C   C227      1.0  0.48882  0.34872  0.91744  1.0000
  Fe  Fe15      1.0  0.32265  0.31784  0.09239  1.0000
  C   C228      1.0  0.05488  0.08013  0.90501  1.0000
  P   P10       1.0  0.00393  0.38681  0.90436  1.0000
  S   S28       1.0  0.31402  0.28210  0.04842  1.0000
  C   C229      1.0  0.04805  0.54055  0.93370  1.0000
  H   H187      1.0  0.21400  0.19614  0.03045  1.0000
  H   H188      1.0  0.28153  0.49477  0.05709  1.0000
  C   C230      1.0  0.03009  0.17746  0.91329  1.0000
  H   H189      1.0  0.10390  0.26905  0.02422  1.0000
  C   C231      1.0  0.39499  0.32448  0.96765  1.0000
  H   H190      1.0  0.49378  0.12461  0.93017  1.0000
  H   H191      1.0  0.13884  0.20107  0.09958  1.0000
  H   H192      1.0  0.21621  0.11114  0.90138  1.0000
  H   H193      1.0  0.00673  0.18703  0.93509  1.0000
  S   S29       1.0  0.48878  0.34981  0.00089  1.0000
  C   C232      1.0  0.03519  0.26027  0.89353  1.0000
  C   C233      1.0  0.37565  0.31630  0.94142  1.0000
  C   C234      1.0  0.43981  0.08165  0.97148  1.0000
  H   H194      1.0  0.47366  0.11887  0.98236  1.0000
  H   H195      1.0  0.35902  0.31294  0.98697  1.0000
  H   H196      1.0  0.22650  0.12633  0.95021  1.0000
  C   C235      1.0  0.46130  0.34525  0.96869  1.0000
  C   C236      1.0  0.05205  0.13061  0.03799  1.0000
  C   C237      1.0  0.10528  0.35067  0.08655  1.0000
  C   C238      1.0  0.17150  0.44239  0.93646  1.0000
  H   H197      1.0  0.32476  0.29817  0.94065  1.0000
  C   C239      1.0  0.09589  0.25106  0.09771  1.0000
  C   C240      1.0  0.03126  0.21567  0.10619  1.0000
  C   C241      1.0  0.06465  0.44643  0.92078  1.0000
  H   H198      1.0  0.11187  0.16882  0.97526  1.0000
  H   H199      1.0  0.21906  0.40381  0.93784  1.0000
  S   S30       1.0  0.39841  0.31368  0.88377  1.0000
  C   C242      1.0  0.30650  0.55723  0.04465  1.0000
  C   C243      1.0  0.25351  0.07840  0.88500  1.0000
  C   C244      1.0  0.52699  0.93417  0.20000  1.0000
  S   S31       1.0  0.58520  0.80663  0.34227  1.0000
  C   C245      1.0  0.74193  0.69406  0.17481  1.0000
  H   H200      1.0  0.69165  0.86235  0.12938  1.0000
  C   C246      1.0  0.76604  0.74577  0.26864  1.0000
  H   H201      1.0  0.51149  0.58969  0.23273  1.0000
  H   H202      1.0  0.84877  0.94909  0.29615  1.0000
  C   C247      1.0  0.69427  0.62854  0.16906  1.0000
  C   C248      1.0  0.66476  0.90602  0.11530  1.0000
  C   C249      1.0  0.56350  0.84145  0.19614  1.0000
  C   C250      1.0  0.82163  0.68191  0.35366  1.0000
  C   C251      1.0  0.88412  0.74840  0.12249  1.0000
  H   H203      1.0  0.81097  0.60129  0.35453  1.0000
  C   C252      1.0  0.94555  0.64349  0.15219  1.0000
  H   H204      1.0  0.75482  0.91213  0.33612  1.0000
  C   C253      1.0  0.69342  0.88111  0.23816  1.0000
  H   H205      1.0  0.96928  0.63524  0.17050  1.0000
  C   C254      1.0  0.61209  0.97382  0.12628  1.0000
  C   C255      1.0  0.77809  0.75341  0.34368  1.0000
  C   C256      1.0  0.78433  0.66140  0.19326  1.0000
  H   H206      1.0  0.86127  0.04337  0.19105  1.0000
  C   C257      1.0  0.86898  0.02460  0.29341  1.0000
  C   C258      1.0  0.79971  0.81283  0.24789  1.0000
  H   H207      1.0  0.78914  0.93290  0.21697  1.0000
  Fe  Fe16      1.0  0.53596  0.75341  0.30808  1.0000
  S   S32       1.0  0.57246  0.80888  0.26372  1.0000
  H   H208      1.0  0.66155  0.65417  0.15466  1.0000
  S   S33       1.0  0.88710  0.80866  0.23877  1.0000
  H   H209      1.0  0.82121  0.71208  0.19780  1.0000
  P   P11       1.0  0.86027  0.02724  0.35241  1.0000
  C   C259      1.0  0.76332  0.88142  0.23301  1.0000
  S   S34       1.0  0.97525  0.68150  0.29855  1.0000
  H   H210      1.0  0.91705  0.80216  0.15904  1.0000
  C   C260      1.0  0.89050  0.81880  0.36253  1.0000
  H   H211      1.0  0.52326  0.68027  0.14187  1.0000
  Fe  Fe17      1.0  0.57916  0.64157  0.35712  1.0000
  H   H212      1.0  0.55983  0.68002  0.19202  1.0000
  H   H213      1.0  0.66946  0.69542  0.29016  1.0000
  H   H214      1.0  0.66560  0.93438  0.22662  1.0000
  C   C261      1.0  0.51494  0.59916  0.14334  1.0000
  C   C262      1.0  0.65967  0.81267  0.25842  1.0000
  H   H215      1.0  0.79397  0.69301  0.28033  1.0000
  H   H216      1.0  0.61684  0.83856  0.19576  1.0000
  C   C263      1.0  0.69580  0.74675  0.27413  1.0000
  H   H217      1.0  0.59856  0.98190  0.14876  1.0000
  S   S35       1.0  0.53806  0.58719  0.32084  1.0000
  C   C264      1.0  0.79015  0.85769  0.34335  1.0000
  H   H218      1.0  0.73411  0.72759  0.33682  1.0000
  H   H219      1.0  0.74607  0.77032  0.16508  1.0000
  C   C265      1.0  0.53094  0.75137  0.19402  1.0000
  C   C266      1.0  0.91598  0.73780  0.14575  1.0000
  Fe  Fe18      1.0  0.93597  0.67450  0.25832  1.0000
  C   C267      1.0  0.84691  0.89135  0.35248  1.0000
  H   H220      1.0  0.86050  0.82108  0.11750  1.0000
  H   H221      1.0  0.55224  0.00320  0.20261  1.0000
  H   H222      1.0  0.87731  0.02373  0.24825  1.0000
  C   C268      1.0  0.88566  0.06639  0.26590  1.0000
  C   C269      1.0  0.87762  0.71439  0.36318  1.0000
  H   H223      1.0  0.70730  0.97745  0.50841  1.0000
  C   C270      1.0  0.57283  0.60730  0.47806  1.0000
  C   C271      1.0  0.89483  0.84390  0.43435  1.0000
  C   C272      1.0  0.93166  0.05501  0.36780  1.0000
  S   S36       1.0  0.51698  0.96328  0.51014  1.0000
  H   H224      1.0  0.91874  0.99551  0.44344  1.0000
  C   C273      1.0  0.75093  0.59784  0.43639  1.0000
  C   C274      1.0  0.91973  0.94300  0.51710  1.0000
  H   H225      1.0  0.75027  0.94977  0.39610  1.0000
  C   C275      1.0  0.66402  0.82223  0.56659  1.0000
  H   H226      1.0  0.63827  0.75047  0.39182  1.0000
  C   C276      1.0  0.69194  0.75486  0.42604  1.0000
  S   S37       1.0  0.91318  0.64228  0.49259  1.0000
  C   C277      1.0  0.74055  0.03060  0.39215  1.0000
  S   S38       1.0  0.78589  0.64808  0.54532  1.0000
  H   H227      1.0  0.84165  0.86177  0.43692  1.0000
  Fe  Fe19      1.0  0.80178  0.64101  0.49836  1.0000
  H   H228      1.0  0.91827  0.95209  0.59575  1.0000
  H   H229      1.0  0.62679  0.76744  0.57538  1.0000
  C   C278      1.0  0.98867  0.72257  0.42410  1.0000
  H   H230      1.0  0.91073  0.65802  0.37110  1.0000
  C   C279      1.0  0.71398  0.84467  0.58138  1.0000
  C   C280      1.0  0.91984  0.74510  0.42776  1.0000
  H   H231      1.0  0.71565  0.80644  0.60158  1.0000
  C   C281      1.0  0.73059  0.69871  0.44284  1.0000
  C   C282      1.0  0.76241  0.91504  0.56982  1.0000
  H   H232      1.0  0.80089  0.93144  0.58152  1.0000
  H   H233      1.0  0.73954  0.58440  0.60933  1.0000
  C   C283      1.0  0.53199  0.90420  0.45567  1.0000
  H   H234      1.0  0.67738  0.83358  0.43056  1.0000
  H   H235      1.0  0.54203  0.85582  0.41287  1.0000
  C   C284      1.0  0.68732  0.60514  0.39873  1.0000
  H   H236      1.0  0.64773  0.03171  0.42246  1.0000
  H   H237      1.0  0.54035  0.64834  0.57096  1.0000
  C   C285      1.0  0.98697  0.92070  0.50563  1.0000
  C   C286      1.0  0.55783  0.58647  0.58362  1.0000
  H   H238      1.0  0.60115  0.67166  0.46835  1.0000
  H   H239      1.0  0.88868  0.88211  0.52748  1.0000
  C   C287      1.0  0.89361  0.04343  0.51545  1.0000
  Fe  Fe20      1.0  0.89676  0.63284  0.53971  1.0000
  H   H240      1.0  0.51539  0.60483  0.44548  1.0000
  H   H241      1.0  0.88563  0.68569  0.42580  1.0000
  C   C288      1.0  0.51285  0.90130  0.42928  1.0000
  S   S39       1.0  0.94764  0.73659  0.56387  1.0000
  H   H242      1.0  0.62611  0.84810  0.52799  1.0000
  S   S40       1.0  0.74747  0.75221  0.47327  1.0000
  C   C289      1.0  0.66336  0.86823  0.53998  1.0000
  C   C290      1.0  0.75927  0.96708  0.54394  1.0000
  H   H243      1.0  0.62287  0.59598  0.51320  1.0000
  C   C291      1.0  0.71038  0.94103  0.52874  1.0000
  H   H244      1.0  0.57540  0.86029  0.45986  1.0000
  C   C292      1.0  0.93838  0.91974  0.43769  1.0000
  C   C293      1.0  0.66947  0.70764  0.40424  1.0000
  H   H245      1.0  0.93362  0.84206  0.37036  1.0000
  C   C294      1.0  0.52374  0.56885  0.46524  1.0000
  S   S41       1.0  0.89465  0.05431  0.83363  1.0000
  H   H246      1.0  0.86013  0.80794  0.62209  1.0000
  C   C295      1.0  0.91775  0.98274  0.86202  1.0000
  H   H247      1.0  0.74562  0.71557  0.64400  1.0000
  C   C296      1.0  0.88160  0.84704  0.66277  1.0000
  C   C297      1.0  0.74601  0.68630  0.83126  1.0000
  H   H248      1.0  0.78631  0.93690  0.70805  1.0000
  H   H249      1.0  0.70938  0.64025  0.69870  1.0000
  C   C298      1.0  0.68316  0.91579  0.72606  1.0000
  C   C299      1.0  0.78434  0.81098  0.78244  1.0000
  C   C300      1.0  0.51516  0.74247  0.67224  1.0000
  H   H250      1.0  0.67562  0.99208  0.73428  1.0000
  C   C301      1.0  0.54574  0.73209  0.80422  1.0000
  H   H251      1.0  0.51249  0.88712  0.79659  1.0000
  C   C302      1.0  0.53136  0.79067  0.64553  1.0000
  H   H252      1.0  0.59911  0.69755  0.72482  1.0000
  S   S42       1.0  0.66241  0.00166  0.85466  1.0000
  C   C303      1.0  0.72461  0.66595  0.80612  1.0000
  H   H253      1.0  0.83423  0.89943  0.80824  1.0000
  C   C304      1.0  0.91593  0.94364  0.61838  1.0000
  S   S43       1.0  0.94597  0.99472  0.75326  1.0000
  P   P12       1.0  0.71484  0.61161  0.86303  1.0000
  C   C305      1.0  0.91229  0.91866  0.67653  1.0000
  H   H254      1.0  0.72588  0.71271  0.76282  1.0000
  C   C306      1.0  0.52049  0.89631  0.64213  1.0000
  C   C307      1.0  0.70272  0.71774  0.70591  1.0000
  H   H255      1.0  0.69209  0.60302  0.80538  1.0000
  C   C308      1.0  0.83060  0.64189  0.65871  1.0000
  H   H256      1.0  0.58125  0.87479  0.74203  1.0000
  C   C309      1.0  0.52987  0.62897  0.80541  1.0000
  C   C310      1.0  0.88293  0.86121  0.63357  1.0000
  C   C311      1.0  0.49960  0.80728  0.79788  1.0000
  H   H257      1.0  0.79933  0.59953  0.73081  1.0000
  C   C312      1.0  0.94486  0.00131  0.66127  1.0000
  H   H258      1.0  0.55142  0.74579  0.62732  1.0000
  C   C313      1.0  0.63991  0.75005  0.72075  1.0000
  C   C314      1.0  0.78551  0.77142  0.83188  1.0000
  C   C315      1.0  0.97033  0.90868  0.85876  1.0000
  C   C316      1.0  0.85206  0.61282  0.72890  1.0000
  H   H259      1.0  0.53398  0.93199  0.62125  1.0000
  C   C317      1.0  0.74369  0.72808  0.78187  1.0000
  H   H260      1.0  0.91139  0.91059  0.69903  1.0000
  C   C318      1.0  0.78091  0.65083  0.64207  1.0000
  C   C319      1.0  0.94691  0.01363  0.63224  1.0000
  P   P13       1.0  0.83834  0.74101  0.68267  1.0000
  H   H261      1.0  0.96535  0.68173  0.62099  1.0000
  C   C320      1.0  0.63000  0.84931  0.73066  1.0000
  C   C321      1.0  0.88429  0.68205  0.70815  1.0000
  H   H262      1.0  0.79966  0.79354  0.85122  1.0000
  C   C322      1.0  0.77745  0.57707  0.62238  1.0000
  C   C323      1.0  0.80495  0.83275  0.80746  1.0000
  H   H263      1.0  0.98102  0.74095  0.68843  1.0000
  C   C324      1.0  0.95382  0.69219  0.70504  1.0000
  H   H264      1.0  0.79877  0.85989  0.76376  1.0000
  H   H265      1.0  0.52250  0.66020  0.67459  1.0000
  C   C325      1.0  0.98987  0.63548  0.72279  1.0000
  C   C326      1.0  0.74602  0.88391  0.71114  1.0000
  H   H266      1.0  0.59381  0.75405  0.80811  1.0000
  C   C327      1.0  0.75637  0.78448  0.70086  1.0000
  Fe  Fe21      1.0  0.96436  0.06619  0.79234  1.0000
  H   H267      1.0  0.96883  0.05590  0.67197  1.0000
  H   H268      1.0  0.62640  0.05167  0.65505  1.0000
  H   H269      1.0  0.56604  0.57037  0.80991  1.0000
  H   H270      1.0  0.95584  0.61106  0.80540  1.0000
  C   C328      1.0  0.96466  0.56882  0.82429  1.0000
  C   C329      1.0  0.95716  0.56757  0.74353  1.0000
  Fe  Fe22      1.0  0.90439  0.89908  0.97710  1.0000
  Fe  Fe23      1.0  0.81161  0.89833  0.03461  1.0000
  H   H271      1.0  0.86515  0.95788  0.93264  1.0000
  S   S44       1.0  0.96841  0.81529  0.94071  1.0000
  C   C330      1.0  0.97431  0.63881  0.01598  1.0000
  C   C331      1.0  0.52239  0.75421  0.98471  1.0000
  H   H272      1.0  0.58815  0.95712  0.94465  1.0000
  S   S45       1.0  0.92378  0.89637  0.02154  1.0000
  H   H273      1.0  0.90584  0.65262  0.91021  1.0000
  H   H274      1.0  0.51536  0.84289  0.87689  1.0000
  H   H275      1.0  0.63621  0.80090  0.87103  1.0000
  C   C332      1.0  0.66829  0.03356  0.88901  1.0000
  C   C333      1.0  0.57628  0.03001  0.10833  1.0000
  H   H276      1.0  0.74006  0.91134  0.89378  1.0000
  C   C334      1.0  0.51359  0.79601  0.01156  1.0000
  H   H277      1.0  0.85738  0.67487  0.08763  1.0000
  C   C335      1.0  0.98624  0.85453  0.88277  1.0000
  C   C336      1.0  0.54877  0.81280  0.96065  1.0000
  C   C337      1.0  0.97005  0.59212  0.04286  1.0000
  H   H278      1.0  0.65943  0.69166  0.91949  1.0000
  C   C338      1.0  0.94875  0.87422  0.90968  1.0000
  H   H279      1.0  0.58178  0.02746  0.99217  1.0000
  S   S46       1.0  0.79320  0.88180  0.99087  1.0000
  C   C339      1.0  0.74341  0.70703  0.93952  1.0000
  H   H280      1.0  0.93065  0.65421  0.97870  1.0000
  Fe  Fe24      1.0  0.78837  0.05305  0.98919  1.0000
  C   C340      1.0  0.72129  0.00712  0.92989  1.0000
  H   H281      1.0  0.55322  0.78217  0.93987  1.0000
  H   H282      1.0  0.53852  0.76947  0.09057  1.0000
  H   H283      1.0  0.85291  0.60920  0.87045  1.0000
  H   H284      1.0  0.70977  0.62562  0.04956  1.0000
  H   H285      1.0  0.53160  0.92622  0.03486  1.0000
  H   H286      1.0  0.71305  0.73526  0.95879  1.0000
  C   C341      1.0  0.71180  0.97669  0.90345  1.0000
  C   C342      1.0  0.75248  0.64873  0.89181  1.0000
  C   C343      1.0  0.56450  0.95129  0.99017  1.0000
  C   C344      1.0  0.85204  0.65999  0.91217  1.0000
  C   C345      1.0  0.60700  0.66519  0.04730  1.0000
  H   H287      1.0  0.83640  0.71380  0.95437  1.0000
  S   S47       1.0  0.75322  0.81701  0.07269  1.0000
  C   C346      1.0  0.54362  0.62913  0.04575  1.0000
  C   C347      1.0  0.82203  0.63647  0.88964  1.0000
  H   H288      1.0  0.50754  0.67687  0.98241  1.0000
  C   C348      1.0  0.88068  0.00052  0.88880  1.0000
  C   C349      1.0  0.68416  0.89743  0.08611  1.0000
  H   H289      1.0  0.75489  0.96336  0.94083  1.0000
  C   C350      1.0  0.71320  0.68336  0.91701  1.0000
  H   H290      1.0  0.84026  0.05780  0.89139  1.0000
  C   C351      1.0  0.89543  0.94528  0.91232  1.0000
  C   C352      1.0  0.59540  0.02131  0.07907  1.0000
  H   H291      1.0  0.66483  0.95011  0.04530  1.0000
  H   H292      1.0  0.61500  0.74661  0.04725  1.0000
  C   C353      1.0  0.66129  0.59666  0.04832  1.0000
  C   C354      1.0  0.92819  0.61693  0.99927  1.0000
  C   C355      1.0  0.88243  0.66509  0.10554  1.0000
  C   C356      1.0  0.81279  0.69503  0.93709  1.0000
  C   C357      1.0  0.53597  0.89410  0.01428  1.0000
  C   C358      1.0  0.64978  0.95580  0.06795  1.0000
  C   C359      1.0  0.56923  0.91148  0.96339  1.0000
  C   C360      1.0  0.62562  0.63789  0.87004  1.0000
  C   C361      1.0  0.60152  0.73975  0.87232  1.0000
  C   C362      1.0  0.53293  0.76345  0.87576  1.0000
  H   H293      1.0  0.58292  0.57168  0.10422  1.0000
  C   C363      1.0  0.51128  0.58311  0.87519  1.0000
  H   H294      1.0  0.56903  0.06589  0.06498  1.0000
  C   C364      1.0  0.91314  0.57053  0.11152  1.0000
  H   H295      1.0  0.92656  0.19451  0.23972  1.0000
  C   C365      1.0  0.71036  0.46391  0.29585  1.0000
  H   H296      1.0  0.75943  0.14491  0.21132  1.0000
  C   C366      1.0  0.73301  0.49584  0.19976  1.0000
  C   C367      1.0  0.75197  0.28832  0.29597  1.0000
  H   H297      1.0  0.96866  0.48831  0.14022  1.0000
  H   H298      1.0  0.68921  0.52709  0.25668  1.0000
  C   C368      1.0  0.73326  0.37877  0.31014  1.0000
  C   C369      1.0  0.94450  0.56013  0.13510  1.0000
  C   C370      1.0  0.91856  0.28107  0.17302  1.0000
  H   H299      1.0  0.96394  0.31839  0.16304  1.0000
  H   H300      1.0  0.86438  0.42174  0.18245  1.0000
  C   C371      1.0  0.80339  0.18413  0.20053  1.0000
  H   H301      1.0  0.80658  0.24122  0.35453  1.0000
  C   C372      1.0  0.53625  0.28044  0.22266  1.0000
  C   C373      1.0  0.91842  0.17458  0.17558  1.0000
  C   C374      1.0  0.65547  0.30824  0.20893  1.0000
  C   C375      1.0  0.91377  0.16240  0.26106  1.0000
  H   H302      1.0  0.91898  0.21857  0.32854  1.0000
  C   C376      1.0  0.53766  0.22806  0.19792  1.0000
  Fe  Fe25      1.0  0.95026  0.51467  0.30451  1.0000
  C   C377      1.0  0.59498  0.32022  0.22823  1.0000
  C   C378      1.0  0.71609  0.40182  0.11846  1.0000
  C   C379      1.0  0.54870  0.53776  0.12182  1.0000
  H   H303      1.0  0.50192  0.47924  0.27563  1.0000
  C   C380      1.0  0.70763  0.45992  0.26716  1.0000
  C   C381      1.0  0.53723  0.43311  0.12267  1.0000
  S   S48       1.0  0.90169  0.51332  0.26626  1.0000
  C   C382      1.0  0.75028  0.28416  0.26722  1.0000
  C   C383      1.0  0.72971  0.37077  0.25234  1.0000
  H   H304      1.0  0.69524  0.53308  0.30724  1.0000
  H   H305      1.0  0.76577  0.21344  0.25680  1.0000
  P   P14       1.0  0.73020  0.36652  0.21483  1.0000
  C   C384      1.0  0.86072  0.12605  0.18908  1.0000
  C   C385      1.0  0.90899  0.17545  0.31128  1.0000
  H   H306      1.0  0.67256  0.43999  0.13046  1.0000
  C   C386      1.0  0.59768  0.21615  0.17859  1.0000
  H   H307      1.0  0.59858  0.17614  0.15931  1.0000
  H   H308      1.0  0.78106  0.52321  0.12194  1.0000
  H   H309      1.0  0.96349  0.12989  0.16750  1.0000
  H   H310      1.0  0.76850  0.22165  0.30721  1.0000
  H   H311      1.0  0.65061  0.48176  0.17771  1.0000
  C   C387      1.0  0.92565  0.21675  0.28373  1.0000
  C   C388      1.0  0.68896  0.53031  0.18187  1.0000
  H   H312      1.0  0.70211  0.24808  0.16848  1.0000
  C   C389      1.0  0.65631  0.25655  0.18395  1.0000
  S   S49       1.0  0.50696  0.10767  0.12341  1.0000
  C   C390      1.0  0.80349  0.29180  0.19856  1.0000
  H   H313      1.0  0.94762  0.29118  0.27995  1.0000
  H   H314      1.0  0.59306  0.36105  0.24743  1.0000
  H   H315      1.0  0.73648  0.38362  0.33220  1.0000
  C   C391      1.0  0.86162  0.33961  0.18440  1.0000
  S   S50       1.0  0.89642  0.42735  0.34291  1.0000
  H   H316      1.0  0.81335  0.53951  0.22006  1.0000
  C   C392      1.0  0.87965  0.07957  0.31649  1.0000
  C   C393      1.0  0.77982  0.56315  0.20580  1.0000
  C   C394      1.0  0.77794  0.44875  0.11350  1.0000
  H   H317      1.0  0.70439  0.32199  0.38180  1.0000
  C   C395      1.0  0.71409  0.24020  0.38434  1.0000
  C   C396      1.0  0.58420  0.56515  0.50377  1.0000
  C   C397      1.0  0.87932  0.21925  0.59586  1.0000
  H   H318      1.0  0.91936  0.17861  0.55353  1.0000
  C   C398      1.0  0.56157  0.21216  0.58320  1.0000
  Fe  Fe26      1.0  0.79013  0.47764  0.54520  1.0000
  H   H319      1.0  0.78349  0.55559  0.44817  1.0000
  C   C399      1.0  0.54496  0.48572  0.51723  1.0000
  H   H320      1.0  0.87563  0.14453  0.40185  1.0000
  C   C400      1.0  0.66897  0.18155  0.40338  1.0000
  C   C401      1.0  0.92162  0.42119  0.37593  1.0000
  H   H321      1.0  0.97481  0.19125  0.41992  1.0000
  C   C402      1.0  0.87668  0.38343  0.39939  1.0000
  C   C403      1.0  0.95731  0.40317  0.42963  1.0000
  H   H322      1.0  0.92597  0.24908  0.59911  1.0000
  C   C404      1.0  0.52781  0.34268  0.38965  1.0000
  S   S51       1.0  0.71853  0.39136  0.57818  1.0000
  H   H323      1.0  0.71048  0.11935  0.58416  1.0000
  Fe  Fe27      1.0  0.90718  0.47150  0.49564  1.0000
  H   H324      1.0  0.74238  0.47183  0.41031  1.0000
  H   H325      1.0  0.53503  0.46161  0.41763  1.0000
  C   C405      1.0  0.98515  0.44953  0.37925  1.0000
  C   C406      1.0  0.77043  0.15683  0.50889  1.0000
  C   C407      1.0  0.51702  0.55222  0.60866  1.0000
  H   H326      1.0  0.68151  0.32172  0.45675  1.0000
  H   H327      1.0  0.85797  0.34936  0.44424  1.0000
  H   H328      1.0  0.70530  0.23958  0.54136  1.0000
  H   H329      1.0  0.64901  0.34356  0.50838  1.0000
  H   H330      1.0  0.62407  0.21728  0.41539  1.0000
  C   C408      1.0  0.98074  0.14377  0.40171  1.0000
  S   S52       1.0  0.90150  0.46113  0.54277  1.0000
  H   H331      1.0  0.76968  0.19173  0.43842  1.0000
  C   C409      1.0  0.87506  0.17963  0.56981  1.0000
  H   H332      1.0  0.57377  0.36257  0.37542  1.0000
  S   S53       1.0  0.98001  0.38480  0.46302  1.0000
  C   C410      1.0  0.78731  0.14238  0.47966  1.0000
  S   S54       1.0  0.79602  0.47028  0.49859  1.0000
  C   C411      1.0  0.93460  0.12016  0.50102  1.0000
  C   C412      1.0  0.77199  0.19385  0.36881  1.0000
  C   C413      1.0  0.92440  0.11642  0.39143  1.0000
  P   P15       1.0  0.80982  0.07737  0.53311  1.0000
  C   C414      1.0  0.70569  0.27464  0.47124  1.0000
  H   H333      1.0  0.82436  0.08439  0.47137  1.0000
  C   C415      1.0  0.68728  0.28704  0.50032  1.0000
  C   C416      1.0  0.89360  0.37726  0.42625  1.0000
  H   H334      1.0  0.51901  0.21626  0.54548  1.0000
  C   C417      1.0  0.71969  0.22865  0.51904  1.0000
  C   C418      1.0  0.75818  0.14579  0.58723  1.0000
  C   C419      1.0  0.75557  0.20189  0.46093  1.0000
  C   C420      1.0  0.62138  0.54015  0.57484  1.0000
  H   H335      1.0  0.91505  0.19820  0.49921  1.0000
  H   H336      1.0  0.82837  0.35886  0.39679  1.0000
  C   C421      1.0  0.81458  0.14104  0.56535  1.0000
  H   H337      1.0  0.60621  0.25089  0.57315  1.0000
  H   H338      1.0  0.82149  0.43773  0.60375  1.0000
  H   H339      1.0  0.55291  0.45401  0.53748  1.0000
  C   C422      1.0  0.72862  0.55076  0.41460  1.0000
  C   C423      1.0  0.51196  0.19434  0.56776  1.0000
  C   C424      1.0  0.64313  0.45795  0.59062  1.0000
  S   S55       1.0  0.65959  0.54462  0.37172  1.0000
  C   C425      1.0  0.50546  0.39896  0.41383  1.0000
  C   C426      1.0  0.78525  0.08820  0.37223  1.0000
  C   C427      1.0  0.55357  0.18069  0.61170  1.0000
  H   H340      1.0  0.65290  0.56599  0.55548  1.0000
  C   C428      1.0  0.68238  0.07694  0.40739  1.0000
  H   H341      1.0  0.50862  0.21685  0.36530  1.0000
  H   H342      1.0  0.59289  0.19510  0.62300  1.0000
  H   H343      1.0  0.82671  0.25124  0.63792  1.0000
  H   H344      1.0  0.62102  0.36459  0.62886  1.0000
  H   H345      1.0  0.93239  0.33997  0.85937  1.0000
  C   C429      1.0  0.78854  0.33187  0.83291  1.0000
  C   C430      1.0  0.54011  0.47292  0.62515  1.0000
  H   H346      1.0  0.50905  0.44715  0.64473  1.0000
  H   H347      1.0  0.83571  0.19054  0.76008  1.0000
  S   S56       1.0  0.64289  0.43128  0.76998  1.0000
  H   H348      1.0  0.71634  0.46726  0.71371  1.0000
  C   C431      1.0  0.71805  0.37689  0.75193  1.0000
  C   C432      1.0  0.64232  0.19973  0.70924  1.0000
  H   H349      1.0  0.56168  0.28164  0.73549  1.0000
  H   H350      1.0  0.98548  0.52238  0.75685  1.0000
  H   H351      1.0  0.86301  0.50105  0.76198  1.0000
  H   H352      1.0  0.73072  0.27089  0.78608  1.0000
  Fe  Fe28      1.0  0.60064  0.11755  0.83447  1.0000
  Fe  Fe29      1.0  0.49849  0.13409  0.79574  1.0000
  C   C433      1.0  0.83515  0.28320  0.72201  1.0000
  S   S57       1.0  0.90826  0.22551  0.70308  1.0000
  C   C434      1.0  0.54487  0.13875  0.67989  1.0000
  H   H353      1.0  0.67975  0.22209  0.72077  1.0000
  C   C435      1.0  0.82340  0.49404  0.61924  1.0000
  H   H354      1.0  0.71877  0.19088  0.62966  1.0000
  Fe  Fe30      1.0  0.96885  0.15021  0.73322  1.0000
  H   H355      1.0  0.90709  0.41827  0.63379  1.0000
  H   H356      1.0  0.81463  0.29996  0.81334  1.0000
  C   C436      1.0  0.80105  0.36071  0.70895  1.0000
  Fe  Fe31      1.0  0.58947  0.30790  0.79804  1.0000
  C   C437      1.0  0.60319  0.42586  0.61612  1.0000
  C   C438      1.0  0.57566  0.23317  0.71750  1.0000
  C   C439      1.0  0.81030  0.25178  0.75000  1.0000
  H   H357      1.0  0.81931  0.38337  0.68718  1.0000
  C   C440      1.0  0.75107  0.29748  0.76476  1.0000
  S   S58       1.0  0.97846  0.22463  0.77311  1.0000
  H   H358      1.0  0.91472  0.43494  0.81598  1.0000
  H   H359      1.0  0.97275  0.07723  0.62054  1.0000
  S   S59       1.0  0.60998  0.14277  0.78762  1.0000
  C   C441      1.0  0.52690  0.20195  0.70308  1.0000
  H   H360      1.0  0.71210  0.10811  0.68059  1.0000
  H   H361      1.0  0.91484  0.54735  0.66812  1.0000
  C   C442      1.0  0.88825  0.55608  0.74654  1.0000
  C   C443      1.0  0.66046  0.13509  0.68661  1.0000
  C   C444      1.0  0.61187  0.10387  0.67214  1.0000
  C   C445      1.0  0.95113  0.41664  0.85508  1.0000
  H   H362      1.0  0.78138  0.48333  0.81505  1.0000
  S   S60       1.0  0.59060  0.28424  0.84418  1.0000
  C   C446      1.0  0.74311  0.40862  0.72402  1.0000
  H   H363      1.0  0.78879  0.18736  0.85623  1.0000
  C   C447      1.0  0.76923  0.43588  0.83406  1.0000
  C   C448      1.0  0.73587  0.47661  0.85964  1.0000
  C   C449      1.0  0.87213  0.48351  0.63601  1.0000
  C   C450      1.0  0.77499  0.26828  0.85714  1.0000
  C   C451      1.0  0.87584  0.55697  0.65570  1.0000
  C   C452      1.0  0.94081  0.47029  0.83043  1.0000
  C   C453      1.0  0.82347  0.22053  0.61773  1.0000
  C   C454      1.0  0.76282  0.18486  0.61328  1.0000
  C   C455      1.0  0.72290  0.41194  0.88390  1.0000
  S   S61       1.0  0.70534  0.14126  0.97314  1.0000
  H   H364      1.0  0.59468  0.15762  0.89169  1.0000
  H   H365      1.0  0.77226  0.32080  0.98946  1.0000
  C   C456      1.0  0.63062  0.11617  0.90204  1.0000
  C   C457      1.0  0.87455  0.49920  0.03585  1.0000
  C   C458      1.0  0.64030  0.14650  0.92848  1.0000
  C   C459      1.0  0.98462  0.37939  0.09145  1.0000
  H   H366      1.0  0.83492  0.44655  0.04291  1.0000
  S   S62       1.0  0.89793  0.07070  0.97271  1.0000
  H   H367      1.0  0.76119  0.18354  0.08324  1.0000
  C   C460      1.0  0.81606  0.33744  0.97350  1.0000
  C   C461      1.0  0.82745  0.30562  0.08580  1.0000
  H   H368      1.0  0.69549  0.43828  0.04745  1.0000
  C   C462      1.0  0.98673  0.46047  0.87360  1.0000
  Fe  Fe32      1.0  0.90944  0.06704  0.01788  1.0000
  H   H369      1.0  0.69776  0.44159  0.90392  1.0000
  H   H370      1.0  0.55864  0.37785  0.94433  1.0000
  H   H371      1.0  0.88544  0.30743  0.00165  1.0000
  H   H372      1.0  0.61260  0.21197  0.93817  1.0000
  C   C463      1.0  0.50755  0.36040  0.94356  1.0000
  C   C464      1.0  0.80881  0.36399  0.94588  1.0000
  H   H373      1.0  0.59754  0.48059  0.86968  1.0000
  H   H374      1.0  0.86942  0.26878  0.07217  1.0000
  H   H375      1.0  0.52548  0.35673  0.89826  1.0000
  C   C465      1.0  0.92102  0.52001  0.05289  1.0000
  H   H376      1.0  0.98504  0.34050  0.96538  1.0000
  C   C466      1.0  0.93620  0.34839  0.95953  1.0000
  S   S63       1.0  0.79905  0.06892  0.03400  1.0000
  C   C467      1.0  0.68790  0.09472  0.94184  1.0000
  C   C468      1.0  0.97586  0.27977  0.10348  1.0000
  H   H377      1.0  0.58526  0.37403  0.04274  1.0000
  C   C469      1.0  0.86527  0.38127  0.92484  1.0000
  P   P16       1.0  0.91331  0.46508  0.08852  1.0000
  H   H378      1.0  0.85820  0.39948  0.90353  1.0000
  C   C470      1.0  0.71018  0.30603  0.10772  1.0000
  H   H379      1.0  0.73577  0.25996  0.90154  1.0000
  C   C471      1.0  0.76595  0.25779  0.09155  1.0000
  C   C472      1.0  0.92964  0.37264  0.93145  1.0000
  H   H380      1.0  0.92669  0.25077  0.11114  1.0000
  C   C473      1.0  0.53663  0.52374  0.04410  1.0000
  H   H381      1.0  0.75918  0.36795  0.94081  1.0000
  C   C474      1.0  0.59111  0.45524  0.04484  1.0000
  C   C475      1.0  0.74350  0.30882  0.88267  1.0000
  S   S64       1.0  0.97548  0.18221  0.03094  1.0000
  C   C476      1.0  0.83444  0.40070  0.09723  1.0000
  C   C477      1.0  0.87972  0.32969  0.98031  1.0000
  C   C478      1.0  0.65331  0.49152  0.04716  1.0000
  C   C479      1.0  0.58007  0.55950  0.87167  1.0000
  H   H382      1.0  0.84104  0.53400  0.99657  1.0000
  H   H383      1.0  0.56195  0.38578  0.10562  1.0000
  H   H384      1.0  0.66241  0.26909  0.11169  1.0000
  C   C480      1.0  0.87779  0.54855  0.00935  1.0000
