data_image0
_chemical_formula_structural       CH2CH2C2HC5H2C2HC3HCSCH4C3HC3SPCH2C3SCH6C2H4CHCHCSCHCHC3H2C2FeS2FeS2FeSFeS3FeS2FeS2FeSFeS3C2HC3HCH3C2HC4H2C6H4C6H4C5HC3HC7PC7H2C4H7C4H2C5HCHCH2CHP2C6HC2H3C2HCHC3H6CH2CH3C4HCH3C5HC3H2C7HC2H4CHC5H4CHPHCHC2H2C2H4C5PCH3CH6C2H4C2HC2HC6H2CHC2HCPHCHCHC2H3CHCHC2H2CH2C3H2PCFeSCFeS2FeSFeS3FeS2FeS2FeSFeS3FeS2FeSCFeSFeS3FeS2FeS2FeSFeS3FeS2FeSFeCHS2FeS2C2H3S3HCHC2H2CH2C2H2C2FeC7H4CHC4HCH2C6H4C6H4C6H4C3HC7H4CHPC8H3SHC3HCH2CPCFeCH3CSCH3CH3CHCPC3H2C6PC16HCH18C9HCH2CH3C3H3CH5C7HC2HC2H2CH2C2H2C2HCH4C5HCPCH2CH3CHCH6CHC2HC2H2CH4CHCSHC5H2CHC6HFeCSHC2HC2H2C3HCHC2H2C3HC2H3C2PCH2C2HCH3CHC3H2CHCHC7H2CHC4H2C2PC5PH4CH5CH5C3FeH3CHC5H3CHCH3C2HCHCHCH2C2HC5H2C2HC5HCH5C2HPCHCH3C2HC2HC2HCSFeS2FeSFeSCSFeS2FeS2FeSFeS3CSHSCFeSFeSCHFeS2FeS2FeSFeS3FeS2FeS2FeSFeS3FeS2FeS2FeSFeS3HC2HC3H2C2HC7H4PC8H5C7HC7H4C6H4C6H4CHCHC3H3C6H4C2H3C3H2C8PC4HC2H2C6HCH8CHC3H3SCH2CHC6H6C6PC18H21CH3C8H4C4HC3H3CH2CH2C4H3CPC3H3C4HCH2CH2C4H3C3HC3H3CHCH5CH3CHC2HC2HC5HPC2PCHC2HCHCHCHCH2C2HCH2CPHC2H2C3HC3H2CHC2H4CHC3H2C3HC3H2CHC2HCH3CHCHCHC2HC2HC2H4CPC2HCHCHCHC2HC4H2CHC2HCHCHCH3C2H4C5H2C3HC4H3CHCH2C2H2CH5CHC3H2C3HCFeS2FeS2FeSFeS3FeS2FeS2FeSFeS5C6H4C2H3C4HC6H4C6H4C2H4CHCHCPHPC3HCHC3H2CHCHCH4C6H2C3H3CHCH5C5HC3HCSCHCH2C2HCHPCH5C4H2CH3CSC3HC3HCFeH2CHC3H3CHC2H2C6PC18H21CHCHCH2CHCH5C2SC2HC3FeHCH2C2HC4HCHC3H2C2H2PC2HCHC2H2CHFeHCHCH2C3H2C2H2C4H4C3H3C5H6C2H2C3H2CH2C2H2C2HC4H2PHC4HC4SH4C3HC2HSH3C2HPH3C4HCHCHC2PC3H2CHC2SC2H4C6HC5H2C2PCHC5H2C3HCHC2HC4HCHCHC2H2C2HCHC7H2CH5CH5CHC2HCHCH3CFeS2FeS2FeSFeS3FeS2FeS2FeSFeS3C6HCH2CHC2HC4HC3HC2HCH2C6H4CHC2HC3H3C3HCH2CHC4H6CH2CH2C3H2C4HCPH2C3H2CHCHC3H3CH3C3HCH5PH2CPCH4C11H4C2H2C2HC4H4CH2CHC2HC8H2CH2C6H2C4H10CHC6H3C6PC7H3CHC7H3CH3C2H2C2HCH5C2HC4HCH2C8HCHC3FeS2FeS2FeSFeS3FeSHFeS2FeSFeS3FeS2FeS2FeSFeS3FeS2FeS2FeHFeS3FeS2CSHC2FeS2FeSHCSHFeSFeS2HCHC2PC3HCHC4HC6H4C6H5C2H3CH2C7H4C6H4C6H4C6H5C3H2C4HCH2C3H2C2HCHCHC2H5PCHC6PC18H8CH2CH9CH2C6PC18H20C2H2C3H4C2HCHC4HC8H3CHC3HC5H3C4H3C2HCH4CH2CHCH3C7HSC2H2CH2C3H3C3H2C2HC2H2C3HFeCHFeH2CHCHPCHC4H5C2PCH2C4H3CHCH2CHC3H6CHCHCH3C2H3CPSH2C3HCHC3HCHC3H2C3HC2H10C3HC2H3C4HC6FeCHCH3C2H2C4HCPCH2CHC2HCHCH3C7HCH2CHC2H3CH3PCH2C2H2C3HCH2C2HC3HCHC3HCH2CSC5H2C2H2CHCHC2HS2CH2CHC2FeS2FeS2FeSFeS3HSFeSHFeSFeSCHFeS2FeS2FeSFeS3CSCSCFeSFeSCHFeS2FeS2FeSFeS3FeS2FeS2FeSFeS3C3H3C3HC6H4C4H2C6H4C6H4C2H3CHC6H2C2HC3HCHC7H4C3HC7H4C6H7C4H5CHC2H2C4H2C9HC2H3CH4CPCH2C7PC9HC8H11CH6CH4CHC5HCHC2HCHC3HPHC2HC2H2C2H3C2HC3HC6H3C3SH3C2HCHCHPCH3C3HC2H2CHCHC2HC2H2C3H2CHSPH2C3H2C2HC2HC2H2CH2C5HC2H2CH3CHPCHCHC5SHCHCHCHCHCH3C2HC3H2C2H3C5PCHC3PHFeCHC4HC2HCH2C4HCHCHC2H2CHC3H2CHCHCH2CH2CHCHC3H2C3H3CHC2H2CPH3CHC2HCH5CHCH3C2H2FeS2FeS2FeSFeS3FeS2FeS2FeSFeS5C6H4C3H2FeCHCHC6H4C6H4CHCH2PCSC3H2CHCH2CHC5HCHC3H2CHC3H3C2HC4HPH2CHC4HCHCHC3HC8HCHC3H4CH2C7PC18H20C3H2PCSHCH10C2HC2HCHC2HCH2C2H2SC8PC18H12CH8CH2CH2C5HC4H2CH3C2HC2HC2HCH2PC3H6CHCFeHCHC2H2C6HCH2CH2C3H5CH2CHCH5C4HC4H4CH2C3HC2H3CPHPCHC3HCH2C9H4C2H3CH2CHCH4CH2C2HCHC
_chemical_formula_sum              "C1920 H1536 S256 P64 Fe128"
_cell_length_a       50.7078
_cell_length_b       50.7868
_cell_length_c       73.7592
_cell_angle_alpha    90.1038
_cell_angle_beta     90.2779
_cell_angle_gamma    87.1297

_space_group_name_H-M_alt    "P 1"
_space_group_IT_number       1

loop_
  _space_group_symop_operation_xyz
  'x, y, z'

loop_
  _atom_site_type_symbol
  _atom_site_label
  _atom_site_symmetry_multiplicity
  _atom_site_fract_x
  _atom_site_fract_y
  _atom_site_fract_z
  _atom_site_occupancy
  C   C1        1.0  0.15784  0.49082  0.02171  1.0000
  H   H1        1.0  0.34539  0.47811  0.22979  1.0000
  H   H2        1.0  0.05124  0.08439  0.01937  1.0000
  C   C2        1.0  0.13632  0.46417  0.07190  1.0000
  H   H3        1.0  0.00977  0.44115  0.06231  1.0000
  H   H4        1.0  0.00773  0.10717  0.02552  1.0000
  C   C3        1.0  0.07240  0.44607  0.05514  1.0000
  C   C4        1.0  0.11365  0.99449  0.00571  1.0000
  H   H5        1.0  0.01757  0.37679  0.05126  1.0000
  C   C5        1.0  0.99919  0.37781  0.05878  1.0000
  C   C6        1.0  0.11181  0.02226  0.00425  1.0000
  C   C7        1.0  0.13441  0.48056  0.01532  1.0000
  C   C8        1.0  0.10942  0.03796  0.01983  1.0000
  C   C9        1.0  0.10785  0.02536  0.03678  1.0000
  H   H6        1.0  0.10603  0.03723  0.04895  1.0000
  H   H7        1.0  0.01301  0.34969  0.07890  1.0000
  C   C10       1.0  0.00031  0.44981  0.07421  1.0000
  C   C11       1.0  0.30087  0.49092  0.27186  1.0000
  H   H8        1.0  0.20767  0.44705  0.05481  1.0000
  C   C12       1.0  0.18386  0.46727  0.07515  1.0000
  C   C13       1.0  0.17271  0.05534  0.00472  1.0000
  C   C14       1.0  0.18787  0.45153  0.05976  1.0000
  H   H9        1.0  0.00550  0.41440  0.09005  1.0000
  C   C15       1.0  0.03318  0.07533  0.01532  1.0000
  S   S1        1.0  0.13683  0.44805  0.00577  1.0000
  C   C16       1.0  0.07940  0.47058  0.06203  1.0000
  H   H10       1.0  0.09256  0.48866  0.01208  1.0000
  H   H11       1.0  0.99691  0.03393  0.04094  1.0000
  H   H12       1.0  0.12436  0.44127  0.04858  1.0000
  H   H13       1.0  0.17247  0.09758  0.00687  1.0000
  C   C17       1.0  0.33312  0.48167  0.24163  1.0000
  C   C18       1.0  0.05511  0.44479  0.04040  1.0000
  C   C19       1.0  0.00870  0.08803  0.01896  1.0000
  H   H14       1.0  0.15556  0.48553  0.09330  1.0000
  C   C20       1.0  0.14059  0.44835  0.05645  1.0000
  C   C21       1.0  0.29071  0.00844  0.32467  1.0000
  C   C22       1.0  0.10931  0.99754  0.03822  1.0000
  S   S2        1.0  0.10939  0.07317  0.01899  1.0000
  P   P1        1.0  0.10330  0.47175  0.08027  1.0000
  C   C23       1.0  0.04413  0.46792  0.03266  1.0000
  H   H15       1.0  0.16926  0.43024  0.03830  1.0000
  H   H16       1.0  0.07639  0.39550  0.13271  1.0000
  C   C24       1.0  0.09493  0.44746  0.09685  1.0000
  C   C25       1.0  0.16626  0.44194  0.05052  1.0000
  C   C26       1.0  0.30488  0.46534  0.26501  1.0000
  S   S3        1.0  0.02153  0.39183  0.01253  1.0000
  C   C27       1.0  0.06174  0.42602  0.11445  1.0000
  H   H17       1.0  0.16739  0.05270  0.01881  1.0000
  H   H18       1.0  0.12328  0.40013  0.12447  1.0000
  H   H19       1.0  0.20062  0.47492  0.08222  1.0000
  H   H20       1.0  0.17626  0.47931  0.02032  1.0000
  H   H21       1.0  0.03128  0.46676  0.02092  1.0000
  H   H22       1.0  0.04130  0.42405  0.11813  1.0000
  C   C28       1.0  0.03015  0.00905  0.04910  1.0000
  C   C29       1.0  0.08151  0.40997  0.12271  1.0000
  H   H23       1.0  0.32407  0.44088  0.24459  1.0000
  H   H24       1.0  0.28192  0.00783  0.31129  1.0000
  H   H25       1.0  0.05291  0.45704  0.09524  1.0000
  H   H26       1.0  0.05077  0.42583  0.03465  1.0000
  C   C30       1.0  0.03452  0.05133  0.00598  1.0000
  H   H27       1.0  0.08106  0.42789  0.06073  1.0000
  C   C31       1.0  0.15822  0.47343  0.08129  1.0000
  H   H28       1.0  0.13528  0.43298  0.10189  1.0000
  C   C32       1.0  0.06839  0.44465  0.10151  1.0000
  S   S4        1.0  0.09769  0.38315  0.01081  1.0000
  C   C33       1.0  0.10794  0.41260  0.11809  1.0000
  H   H29       1.0  0.04425  0.02026  0.04172  1.0000
  C   C34       1.0  0.11467  0.43130  0.10524  1.0000
  H   H30       1.0  0.29526  0.44914  0.27132  1.0000
  C   C35       1.0  0.32107  0.46069  0.24994  1.0000
  C   C36       1.0  0.00328  0.01682  0.04879  1.0000
  C   C37       1.0  0.99655  0.36245  0.07428  1.0000
  H   H31       1.0  0.27633  0.04854  0.32926  1.0000
  H   H32       1.0  0.05376  0.04208  0.00306  1.0000
  C   C38       1.0  0.99786  0.43470  0.08983  1.0000
  C   C39       1.0  0.01129  0.03987  0.00016  1.0000
  Fe  Fe1       1.0  0.41753  0.09363  0.57853  1.0000
  S   S5        1.0  0.41352  0.10267  0.54894  1.0000
  S   S6        1.0  0.45583  0.07833  0.59084  1.0000
  Fe  Fe2       1.0  0.35990  0.10537  0.58554  1.0000
  S   S7        1.0  0.35096  0.11476  0.55618  1.0000
  S   S8        1.0  0.32959  0.11283  0.60755  1.0000
  Fe  Fe3       1.0  0.37750  0.07835  0.54997  1.0000
  S   S9        1.0  0.37079  0.04829  0.52693  1.0000
  Fe  Fe4       1.0  0.38762  0.13807  0.55773  1.0000
  S   S10       1.0  0.39541  0.17976  0.54749  1.0000
  S   S11       1.0  0.38318  0.06758  0.57931  1.0000
  S   S12       1.0  0.39496  0.13033  0.58730  1.0000
  Fe  Fe5       1.0  0.35390  0.33235  0.56027  1.0000
  S   S13       1.0  0.39153  0.33533  0.57547  1.0000
  S   S14       1.0  0.33504  0.29230  0.56145  1.0000
  Fe  Fe6       1.0  0.35510  0.39033  0.54733  1.0000
  S   S15       1.0  0.39371  0.39548  0.56094  1.0000
  S   S16       1.0  0.33657  0.42325  0.52944  1.0000
  Fe  Fe7       1.0  0.40949  0.35482  0.54948  1.0000
  S   S17       1.0  0.47193  0.33776  0.53189  1.0000
  Fe  Fe8       1.0  0.37609  0.37495  0.58437  1.0000
  S   S18       1.0  0.38470  0.39363  0.61139  1.0000
  S   S19       1.0  0.36862  0.35133  0.53503  1.0000
  S   S20       1.0  0.33645  0.37107  0.57135  1.0000
  C   C40       1.0  0.37164  0.37941  0.63092  1.0000
  C   C41       1.0  0.37152  0.39350  0.64729  1.0000
  H   H33       1.0  0.24053  0.46779  0.58930  1.0000
  C   C42       1.0  0.48264  0.39329  0.50477  1.0000
  C   C43       1.0  0.35137  0.34351  0.64626  1.0000
  C   C44       1.0  0.36165  0.35430  0.63043  1.0000
  H   H34       1.0  0.37879  0.41308  0.64761  1.0000
  C   C45       1.0  0.23147  0.43241  0.57461  1.0000
  H   H35       1.0  0.34401  0.32395  0.64588  1.0000
  H   H36       1.0  0.36186  0.34319  0.61790  1.0000
  H   H37       1.0  0.40515  0.02965  0.46673  1.0000
  C   C46       1.0  0.41459  0.01029  0.46891  1.0000
  C   C47       1.0  0.47280  0.25930  0.49538  1.0000
  H   H38       1.0  0.34011  0.43204  0.62368  1.0000
  C   C48       1.0  0.30956  0.31279  0.60822  1.0000
  C   C49       1.0  0.48329  0.23344  0.49394  1.0000
  C   C50       1.0  0.34456  0.45714  0.52862  1.0000
  C   C51       1.0  0.35548  0.47001  0.54346  1.0000
  H   H39       1.0  0.32967  0.46236  0.50137  1.0000
  H   H40       1.0  0.36009  0.45912  0.55575  1.0000
  C   C52       1.0  0.33907  0.10249  0.62953  1.0000
  C   C53       1.0  0.35978  0.08368  0.63206  1.0000
  C   C54       1.0  0.36598  0.07422  0.64956  1.0000
  C   C55       1.0  0.44722  0.15986  0.65068  1.0000
  C   C56       1.0  0.44382  0.46432  0.58130  1.0000
  C   C57       1.0  0.32531  0.11269  0.64464  1.0000
  H   H41       1.0  0.37070  0.07623  0.62045  1.0000
  H   H42       1.0  0.29369  0.42325  0.63081  1.0000
  H   H43       1.0  0.38217  0.00719  0.55438  1.0000
  H   H44       1.0  0.30933  0.12738  0.64276  1.0000
  C   C58       1.0  0.37851  0.21074  0.55231  1.0000
  C   C59       1.0  0.39168  0.23419  0.54960  1.0000
  C   C60       1.0  0.37880  0.25915  0.55259  1.0000
  C   C61       1.0  0.35244  0.26111  0.55821  1.0000
  C   C62       1.0  0.33929  0.23768  0.56097  1.0000
  C   C63       1.0  0.35219  0.21269  0.55801  1.0000
  H   H45       1.0  0.41194  0.23303  0.54500  1.0000
  H   H46       1.0  0.38904  0.27691  0.55019  1.0000
  H   H47       1.0  0.31888  0.23881  0.56522  1.0000
  H   H48       1.0  0.34155  0.19495  0.55978  1.0000
  C   C64       1.0  0.37433  0.01294  0.52602  1.0000
  C   C65       1.0  0.31462  0.43384  0.58093  1.0000
  C   C66       1.0  0.32861  0.00654  0.57070  1.0000
  C   C67       1.0  0.48180  0.22875  0.52677  1.0000
  C   C68       1.0  0.33410  0.00974  0.62849  1.0000
  H   H49       1.0  0.26065  0.42102  0.60624  1.0000
  C   C69       1.0  0.47394  0.12834  0.59220  1.0000
  C   C70       1.0  0.48036  0.10135  0.59039  1.0000
  C   C71       1.0  0.36121  0.38272  0.66313  1.0000
  H   H50       1.0  0.45355  0.13529  0.59359  1.0000
  C   C72       1.0  0.48630  0.17490  0.54115  1.0000
  C   C73       1.0  0.42155  0.32998  0.52908  1.0000
  C   C74       1.0  0.43035  0.31973  0.54748  1.0000
  C   C75       1.0  0.44258  0.33829  0.56098  1.0000
  C   C76       1.0  0.44590  0.36683  0.55603  1.0000
  C   C77       1.0  0.43738  0.37731  0.53745  1.0000
  C   C78       1.0  0.42497  0.35870  0.52411  1.0000
  P   P2        1.0  0.44590  0.41049  0.53064  1.0000
  C   C79       1.0  0.42415  0.42548  0.51362  1.0000
  C   C80       1.0  0.44546  0.43200  0.55030  1.0000
  C   C81       1.0  0.42516  0.45160  0.55248  1.0000
  C   C82       1.0  0.42435  0.46762  0.56792  1.0000
  C   C83       1.0  0.26884  0.45043  0.54881  1.0000
  C   C84       1.0  0.45175  0.37928  0.62696  1.0000
  C   C85       1.0  0.43423  0.23185  0.59484  1.0000
  H   H51       1.0  0.39109  0.40099  0.51834  1.0000
  H   H52       1.0  0.25783  0.25786  0.63528  1.0000
  C   C86       1.0  0.43245  0.44735  0.50387  1.0000
  C   C87       1.0  0.28225  0.47351  0.55222  1.0000
  C   C88       1.0  0.32382  0.04471  0.59036  1.0000
  C   C89       1.0  0.38299  0.42798  0.49660  1.0000
  H   H53       1.0  0.37929  0.14859  0.62778  1.0000
  H   H54       1.0  0.41346  0.31667  0.51927  1.0000
  H   H55       1.0  0.42855  0.29920  0.55089  1.0000
  H   H56       1.0  0.44865  0.33122  0.57426  1.0000
  H   H57       1.0  0.45526  0.37912  0.56572  1.0000
  H   H58       1.0  0.42013  0.36513  0.51049  1.0000
  H   H59       1.0  0.40965  0.45435  0.54243  1.0000
  C   C90       1.0  0.35075  0.35780  0.66256  1.0000
  C   C91       1.0  0.31201  0.04848  0.55858  1.0000
  C   C92       1.0  0.43599  0.00725  0.48090  1.0000
  C   C93       1.0  0.30906  0.02248  0.63060  1.0000
  H   H60       1.0  0.45142  0.45542  0.50666  1.0000
  H   H61       1.0  0.19478  0.47706  0.59975  1.0000
  C   C94       1.0  0.39824  0.15182  0.63413  1.0000
  C   C95       1.0  0.48570  0.38521  0.60463  1.0000
  C   C96       1.0  0.32553  0.43160  0.61290  1.0000
  C   C97       1.0  0.46427  0.44510  0.57919  1.0000
  C   C98       1.0  0.34173  0.01412  0.66088  1.0000
  H   H62       1.0  0.21527  0.39965  0.56015  1.0000
  C   C99       1.0  0.43383  0.00855  0.59615  1.0000
  H   H63       1.0  0.46107  0.03951  0.56462  1.0000
  C   C100      1.0  0.32387  0.22438  0.62500  1.0000
  H   H64       1.0  0.42236  0.47666  0.48353  1.0000
  H   H65       1.0  0.47888  0.33913  0.46017  1.0000
  C   C101      1.0  0.46675  0.26991  0.51241  1.0000
  H   H66       1.0  0.36757  0.01144  0.49716  1.0000
  P   P3        1.0  0.34528  0.99858  0.60643  1.0000
  P   P4        1.0  0.46005  0.37818  0.66413  1.0000
  C   C102      1.0  0.34756  0.22645  0.61543  1.0000
  C   C103      1.0  0.35553  0.20716  0.60277  1.0000
  C   C104      1.0  0.34028  0.18537  0.59989  1.0000
  C   C105      1.0  0.31684  0.18305  0.60946  1.0000
  C   C106      1.0  0.30859  0.20244  0.62196  1.0000
  C   C107      1.0  0.27383  0.48821  0.52143  1.0000
  H   H67       1.0  0.42304  0.03412  0.54414  1.0000
  C   C108      1.0  0.47025  0.38191  0.64096  1.0000
  C   C109      1.0  0.37163  0.99990  0.50925  1.0000
  H   H68       1.0  0.47936  0.44259  0.58957  1.0000
  H   H69       1.0  0.28700  0.40164  0.53315  1.0000
  H   H70       1.0  0.30555  0.06047  0.54709  1.0000
  C   C110      1.0  0.28138  0.38636  0.54231  1.0000
  C   C111      1.0  0.44238  0.30158  0.65447  1.0000
  H   H71       1.0  0.15932  0.44771  0.59063  1.0000
  C   C112      1.0  0.45003  0.20010  0.57238  1.0000
  H   H72       1.0  0.28205  0.04261  0.64907  1.0000
  C   C113      1.0  0.28813  0.42954  0.58483  1.0000
  C   C114      1.0  0.41610  0.45942  0.49068  1.0000
  C   C115      1.0  0.26979  0.39262  0.55912  1.0000
  H   H73       1.0  0.29081  0.47724  0.56537  1.0000
  H   H74       1.0  0.35979  0.24303  0.61771  1.0000
  H   H75       1.0  0.37336  0.20916  0.59499  1.0000
  H   H76       1.0  0.34649  0.17027  0.59017  1.0000
  H   H77       1.0  0.30514  0.16602  0.60726  1.0000
  H   H78       1.0  0.29050  0.19991  0.62931  1.0000
  C   C116      1.0  0.29435  0.30059  0.64346  1.0000
  H   H79       1.0  0.25585  0.37649  0.58428  1.0000
  H   H80       1.0  0.40655  0.46151  0.65417  1.0000
  C   C117      1.0  0.44492  0.00882  0.52542  1.0000
  H   H81       1.0  0.46784  0.37997  0.50040  1.0000
  H   H82       1.0  0.29599  0.05108  0.36005  1.0000
  H   H83       1.0  0.32105  0.43564  0.56703  1.0000
  C   C118      1.0  0.37978  0.99756  0.54144  1.0000
  C   C119      1.0  0.29935  0.42663  0.61688  1.0000
  C   C120      1.0  0.18530  0.42171  0.57496  1.0000
  C   C121      1.0  0.41334  0.44672  0.66391  1.0000
  H   H84       1.0  0.32418  0.27281  0.60614  1.0000
  C   C122      1.0  0.30092  0.03186  0.64762  1.0000
  H   H85       1.0  0.48835  0.12934  0.63182  1.0000
  H   H86       1.0  0.40843  0.48250  0.56951  1.0000
  H   H87       1.0  0.48123  0.41436  0.56222  1.0000
  C   C123      1.0  0.31471  0.28732  0.61501  1.0000
  C   C124      1.0  0.45214  0.24976  0.58856  1.0000
  C   C125      1.0  0.48779  0.21823  0.50954  1.0000
  C   C126      1.0  0.33077  0.01781  0.58802  1.0000
  C   C127      1.0  0.44197  0.02430  0.54105  1.0000
  H   H88       1.0  0.48786  0.22510  0.48073  1.0000
  C   C128      1.0  0.31411  0.05985  0.57574  1.0000
  C   C129      1.0  0.26408  0.37211  0.57103  1.0000
  C   C130      1.0  0.42977  0.42529  0.65833  1.0000
  H   H89       1.0  0.16974  0.40914  0.57075  1.0000
  H   H90       1.0  0.35452  0.20803  0.65376  1.0000
  C   C131      1.0  0.26964  0.34580  0.56611  1.0000
  C   C132      1.0  0.28107  0.33977  0.54931  1.0000
  C   C133      1.0  0.28691  0.36004  0.53742  1.0000
  C   C134      1.0  0.33206  0.10386  0.66222  1.0000
  C   C135      1.0  0.39144  0.44960  0.48693  1.0000
  C   C136      1.0  0.39893  0.41642  0.51024  1.0000
  C   C137      1.0  0.47117  0.25477  0.52804  1.0000
  H   H91       1.0  0.36347  0.42092  0.49414  1.0000
  C   C138      1.0  0.46774  0.21811  0.56569  1.0000
  C   C139      1.0  0.26024  0.24556  0.64722  1.0000
  H   H92       1.0  0.45860  0.28995  0.51356  1.0000
  H   H93       1.0  0.44820  0.18138  0.52803  1.0000
  H   H94       1.0  0.43109  0.03867  0.61670  1.0000
  H   H95       1.0  0.44469  0.37967  0.59822  1.0000
  C   C140      1.0  0.46516  0.42907  0.56374  1.0000
  H   H96       1.0  0.46620  0.26363  0.54094  1.0000
  C   C141      1.0  0.35001  0.00485  0.64387  1.0000
  C   C142      1.0  0.31292  0.01132  0.35937  1.0000
  C   C143      1.0  0.28748  0.03165  0.33484  1.0000
  C   C144      1.0  0.41272  0.13069  0.64204  1.0000
  C   C145      1.0  0.39416  0.01995  0.61317  1.0000
  H   H97       1.0  0.26572  0.33003  0.57544  1.0000
  H   H98       1.0  0.28601  0.31940  0.54569  1.0000
  H   H99       1.0  0.29644  0.35539  0.52461  1.0000
  H   H100      1.0  0.44315  0.02446  0.48767  1.0000
  C   C146      1.0  0.28068  0.42549  0.60291  1.0000
  H   H101      1.0  0.28008  0.34119  0.64520  1.0000
  P   P5        1.0  0.31461  0.24846  0.64221  1.0000
  H   H102      1.0  0.45086  0.28498  0.64690  1.0000
  C   C147      1.0  0.43342  0.20694  0.58687  1.0000
  H   H103      1.0  0.43555  0.42416  0.64426  1.0000
  C   C148      1.0  0.31734  0.02788  0.66272  1.0000
  C   C149      1.0  0.45518  0.32533  0.65508  1.0000
  H   H104      1.0  0.38161  0.05918  0.65142  1.0000
  H   H105      1.0  0.30903  0.08066  0.57763  1.0000
  C   C150      1.0  0.43260  0.18105  0.64266  1.0000
  C   C151      1.0  0.46372  0.16701  0.53194  1.0000
  H   H106      1.0  0.47412  0.32753  0.49263  1.0000
  H   H107      1.0  0.38421  0.03237  0.62312  1.0000
  H   H108      1.0  0.32150  0.01241  0.37282  1.0000
  H   H109      1.0  0.41965  0.19285  0.59161  1.0000
  C   C152      1.0  0.30761  0.28110  0.63286  1.0000
  C   C153      1.0  0.17941  0.44348  0.58612  1.0000
  C   C154      1.0  0.41826  0.29946  0.66325  1.0000
  C   C155      1.0  0.47799  0.40965  0.51990  1.0000
  C   C156      1.0  0.46341  0.02729  0.55267  1.0000
  P   P6        1.0  0.47784  0.16520  0.66246  1.0000
  C   C157      1.0  0.28557  0.23837  0.65391  1.0000
  H   H110      1.0  0.29592  0.02555  0.61911  1.0000
  H   H111      1.0  0.44276  0.13443  0.52148  1.0000
  H   H112      1.0  0.42090  0.23728  0.60581  1.0000
  C   C158      1.0  0.44403  0.34715  0.66461  1.0000
  H   H113      1.0  0.43138  0.37571  0.63009  1.0000
  H   H114      1.0  0.32667  0.05432  0.60329  1.0000
  H   H115      1.0  0.21832  0.24235  0.65068  1.0000
  H   H116      1.0  0.43984  0.20071  0.64287  1.0000
  H   H117      1.0  0.47355  0.32685  0.64782  1.0000
  H   H118      1.0  0.39691  0.19333  0.62834  1.0000
  C   C159      1.0  0.40820  0.17699  0.63443  1.0000
  C   C160      1.0  0.23781  0.23666  0.65583  1.0000
  H   H119      1.0  0.46924  0.27109  0.48331  1.0000
  H   H120      1.0  0.44869  0.18069  0.56647  1.0000
  H   H121      1.0  0.31558  0.31755  0.59458  1.0000
  H   H122      1.0  0.31848  0.01327  0.54261  1.0000
  C   C161      1.0  0.42078  0.02355  0.60956  1.0000
  C   C162      1.0  0.35210  0.08422  0.66468  1.0000
  H   H123      1.0  0.48915  0.16714  0.59433  1.0000
  C   C163      1.0  0.45935  0.38129  0.60886  1.0000
  C   C164      1.0  0.48743  0.47020  0.65321  1.0000
  H   H124      1.0  0.45280  0.26906  0.59476  1.0000
  C   C165      1.0  0.35717  0.22566  0.66171  1.0000
  C   C166      1.0  0.46962  0.99680  0.52108  1.0000
  C   C167      1.0  0.19939  0.45998  0.59129  1.0000
  C   C168      1.0  0.29855  0.03309  0.35218  1.0000
  C   C169      1.0  0.29705  0.33219  0.61905  1.0000
  C   C170      1.0  0.25690  0.44710  0.53180  1.0000
  H   H125      1.0  0.47480  0.45807  0.66111  1.0000
  H   H126      1.0  0.37853  0.45921  0.47694  1.0000
  C   C171      1.0  0.25966  0.46578  0.51810  1.0000
  H   H127      1.0  0.40502  0.11119  0.64179  1.0000
  C   C172      1.0  0.28926  0.32603  0.63662  1.0000
  C   C173      1.0  0.21120  0.41629  0.56908  1.0000
  H   H128      1.0  0.35369  0.43809  0.59182  1.0000
  C   C174      1.0  0.43701  0.13466  0.65039  1.0000
  P   P7        1.0  0.26472  0.42644  0.56654  1.0000
  H   H129      1.0  0.40803  0.28126  0.66255  1.0000
  C   C175      1.0  0.33849  0.47190  0.51285  1.0000
  H   H130      1.0  0.44300  0.47663  0.59332  1.0000
  C   C176      1.0  0.33317  0.43514  0.59493  1.0000
  H   H131      1.0  0.24567  0.42995  0.52906  1.0000
  C   C177      1.0  0.34118  0.24872  0.65871  1.0000
  C   C178      1.0  0.31922  0.02183  0.55607  1.0000
  H   H132      1.0  0.29384  0.35208  0.61392  1.0000
  H   H133      1.0  0.28844  0.29635  0.65720  1.0000
  H   H134      1.0  0.25102  0.46280  0.50485  1.0000
  C   C179      1.0  0.22530  0.45461  0.58543  1.0000
  H   H135      1.0  0.45426  0.01193  0.59310  1.0000
  C   C180      1.0  0.48753  0.21881  0.66059  1.0000
  H   H136      1.0  0.48311  0.25675  0.56971  1.0000
  C   C181      1.0  0.38040  0.00117  0.60347  1.0000
  C   C182      1.0  0.46052  0.14035  0.52828  1.0000
  H   H137      1.0  0.42788  0.00633  0.51687  1.0000
  H   H138      1.0  0.44765  0.11808  0.65674  1.0000
  C   C183      1.0  0.49279  0.19367  0.65302  1.0000
  H   H139      1.0  0.49183  0.38630  0.59062  1.0000
  H   H140      1.0  0.36903  0.99434  0.64270  1.0000
  C   C184      1.0  0.46904  0.24283  0.57418  1.0000
  C   C185      1.0  0.47964  0.12134  0.53400  1.0000
  C   C186      1.0  0.48774  0.01441  0.54891  1.0000
  H   H141      1.0  0.47674  0.10061  0.53165  1.0000
  H   H142      1.0  0.48914  0.31387  0.56632  1.0000
  P   P8        1.0  0.48927  0.20923  0.54685  1.0000
  C   C187      1.0  0.49079  0.99899  0.53327  1.0000
  Fe  Fe9       1.0  0.34893  0.35576  0.70995  1.0000
  S   S21       1.0  0.35172  0.39449  0.72469  1.0000
  C   C188      1.0  0.99865  0.40016  0.97932  1.0000
  Fe  Fe10      1.0  0.36685  0.32413  0.74269  1.0000
  S   S22       1.0  0.37107  0.35978  0.76018  1.0000
  S   S23       1.0  0.37888  0.28321  0.75212  1.0000
  Fe  Fe11      1.0  0.33192  0.37419  0.74800  1.0000
  S   S24       1.0  0.29978  0.39115  0.76724  1.0000
  Fe  Fe12      1.0  0.39061  0.37681  0.73580  1.0000
  S   S25       1.0  0.42796  0.40048  0.73791  1.0000
  S   S26       1.0  0.32664  0.33704  0.73242  1.0000
  S   S27       1.0  0.38882  0.34002  0.71922  1.0000
  Fe  Fe13      1.0  0.14442  0.37186  0.79438  1.0000
  S   S28       1.0  0.14715  0.34040  0.81576  1.0000
  S   S29       1.0  0.17583  0.37133  0.77194  1.0000
  Fe  Fe14      1.0  0.08772  0.38999  0.80675  1.0000
  S   S30       1.0  0.08778  0.36014  0.82896  1.0000
  S   S31       1.0  0.04934  0.41502  0.80379  1.0000
  Fe  Fe15      1.0  0.12917  0.37121  0.83457  1.0000
  S   S32       1.0  0.14647  0.37457  0.86293  1.0000
  Fe  Fe16      1.0  0.10528  0.33254  0.80824  1.0000
  S   S33       1.0  0.08456  0.29480  0.80447  1.0000
  S   S34       1.0  0.12857  0.40360  0.81364  1.0000
  S   S35       1.0  0.10326  0.36164  0.78558  1.0000
  Fe  Fe17      1.0  0.33990  0.15522  0.71886  1.0000
  S   S36       1.0  0.34975  0.14963  0.74817  1.0000
  S   S37       1.0  0.32424  0.19415  0.70825  1.0000
  Fe  Fe18      1.0  0.35340  0.09904  0.70978  1.0000
  S   S38       1.0  0.36376  0.08851  0.73880  1.0000
  C   C189      1.0  0.21107  0.35319  0.83269  1.0000
  Fe  Fe19      1.0  0.32669  0.11319  0.74603  1.0000
  S   S39       1.0  0.29856  0.10755  0.76995  1.0000
  Fe  Fe20      1.0  0.38578  0.12607  0.73845  1.0000
  S   S40       1.0  0.42416  0.13453  0.75351  1.0000
  S   S41       1.0  0.31494  0.12022  0.71699  1.0000
  S   S42       1.0  0.37741  0.13496  0.70914  1.0000
  Fe  Fe21      1.0  0.13318  0.16094  0.82844  1.0000
  S   S43       1.0  0.12096  0.15758  0.79947  1.0000
  S   S44       1.0  0.14712  0.19824  0.84023  1.0000
  Fe  Fe22      1.0  0.12214  0.10508  0.83683  1.0000
  S   S45       1.0  0.10916  0.09643  0.80815  1.0000
  S   S46       1.0  0.11746  0.07928  0.86132  1.0000
  Fe  Fe23      1.0  0.14498  0.11905  0.80005  1.0000
  S   S47       1.0  0.17203  0.11078  0.77553  1.0000
  Fe  Fe24      1.0  0.08644  0.13573  0.80991  1.0000
  S   S48       1.0  0.04453  0.15067  0.80190  1.0000
  S   S49       1.0  0.15933  0.12417  0.82870  1.0000
  S   S50       1.0  0.09743  0.14259  0.83890  1.0000
  Fe  Fe25      1.0  0.12933  0.12052  0.95846  1.0000
  S   S51       1.0  0.13256  0.13541  0.98726  1.0000
  S   S52       1.0  0.16060  0.11900  0.93682  1.0000
  Fe  Fe26      1.0  0.07182  0.11136  0.96170  1.0000
  S   S53       1.0  0.03649  0.09818  0.94649  1.0000
  Fe  Fe27      1.0  0.09440  0.15877  0.98110  1.0000
  C   C190      1.0  0.07025  0.42577  0.84850  1.0000
  H   H143      1.0  0.00757  0.10278  0.90269  1.0000
  S   S54       1.0  0.09324  0.14577  0.95204  1.0000
  S   S55       1.0  0.10770  0.08457  0.96572  1.0000
  Fe  Fe28      1.0  0.08418  0.39535  0.95953  1.0000
  S   S56       1.0  0.12499  0.38826  0.97113  1.0000
  S   S57       1.0  0.07124  0.40079  0.93017  1.0000
  C   C191      1.0  0.24055  0.22012  0.67093  1.0000
  C   C192      1.0  0.35669  0.06839  0.78496  1.0000
  H   H144      1.0  0.18869  0.06582  0.95396  1.0000
  H   H145      1.0  0.26306  0.36557  0.74255  1.0000
  H   H146      1.0  0.01717  0.01614  0.93755  1.0000
  S   S58       1.0  0.12791  0.31471  0.99061  1.0000
  S   S59       1.0  0.07167  0.42561  0.98066  1.0000
  S   S60       1.0  0.06731  0.36141  0.97437  1.0000
  H   H147      1.0  0.16882  0.24740  0.78748  1.0000
  C   C193      1.0  0.22829  0.23554  0.72820  1.0000
  H   H148      1.0  0.01729  0.40754  0.97514  1.0000
  C   C194      1.0  0.24938  0.24376  0.71766  1.0000
  C   C195      1.0  0.19902  0.26756  0.71264  1.0000
  H   H149      1.0  0.38685  0.20622  0.67867  1.0000
  H   H150      1.0  0.36081  0.39390  0.67564  1.0000
  C   C196      1.0  0.41627  0.04974  0.70652  1.0000
  H   H151      1.0  0.07360  0.29856  0.98459  1.0000
  H   H152      1.0  0.47205  0.23666  0.73347  1.0000
  C   C197      1.0  0.09236  0.23263  0.98580  1.0000
  C   C198      1.0  0.36249  0.26927  0.68432  1.0000
  H   H153      1.0  0.25495  0.19555  0.86513  1.0000
  H   H154      1.0  0.26805  0.19946  0.68897  1.0000
  C   C199      1.0  0.00944  0.11002  0.95917  1.0000
  C   C200      1.0  0.20586  0.25810  0.91248  1.0000
  Fe  Fe29      1.0  0.05905  0.39090  0.99654  1.0000
  C   C201      1.0  0.21868  0.34760  0.85054  1.0000
  C   C202      1.0  0.12827  0.09377  0.88162  1.0000
  C   C203      1.0  0.11231  0.09343  0.89707  1.0000
  C   C204      1.0  0.12176  0.10224  0.91386  1.0000
  C   C205      1.0  0.14751  0.11076  0.91542  1.0000
  C   C206      1.0  0.16322  0.11182  0.89986  1.0000
  C   C207      1.0  0.15353  0.10359  0.88296  1.0000
  H   H155      1.0  0.09276  0.08591  0.89612  1.0000
  H   H156      1.0  0.10941  0.10146  0.92572  1.0000
  H   H157      1.0  0.18307  0.11854  0.90093  1.0000
  H   H158      1.0  0.16602  0.10375  0.87112  1.0000
  C   C208      1.0  0.01387  0.13520  0.80314  1.0000
  H   H159      1.0  0.39129  0.24480  0.69885  1.0000
  C   C209      1.0  0.48492  0.18591  0.71596  1.0000
  C   C210      1.0  0.01235  0.10834  0.80692  1.0000
  C   C211      1.0  0.18193  0.19361  0.88024  1.0000
  C   C212      1.0  0.45927  0.12995  0.75375  1.0000
  H   H160      1.0  0.13941  0.26750  0.91980  1.0000
  C   C213      1.0  0.18129  0.08428  0.97967  1.0000
  H   H161      1.0  0.46021  0.13763  0.78242  1.0000
  H   H162      1.0  0.46545  0.12152  0.72536  1.0000
  C   C214      1.0  0.26329  0.11010  0.77099  1.0000
  C   C215      1.0  0.25100  0.11209  0.78807  1.0000
  C   C216      1.0  0.22320  0.11285  0.78970  1.0000
  C   C217      1.0  0.20723  0.11112  0.77425  1.0000
  C   C218      1.0  0.21951  0.10949  0.75716  1.0000
  C   C219      1.0  0.24730  0.10930  0.75549  1.0000
  H   H163      1.0  0.26309  0.11271  0.80017  1.0000
  H   H164      1.0  0.21416  0.11411  0.80295  1.0000
  H   H165      1.0  0.20742  0.10812  0.74511  1.0000
  H   H166      1.0  0.25633  0.10778  0.74225  1.0000
  C   C220      1.0  0.09270  0.39341  0.91180  1.0000
  C   C221      1.0  0.08178  0.38927  0.89457  1.0000
  C   C222      1.0  0.09806  0.38325  0.87960  1.0000
  C   C223      1.0  0.12550  0.38227  0.88154  1.0000
  C   C224      1.0  0.13651  0.38691  0.89871  1.0000
  C   C225      1.0  0.12017  0.39212  0.91385  1.0000
  H   H167      1.0  0.06063  0.39057  0.89276  1.0000
  H   H168      1.0  0.08937  0.37957  0.86653  1.0000
  H   H169      1.0  0.15774  0.38622  0.90036  1.0000
  H   H170      1.0  0.12883  0.39550  0.92703  1.0000
  C   C226      1.0  0.10204  0.26764  0.81390  1.0000
  C   C227      1.0  0.09003  0.24355  0.81558  1.0000
  C   C228      1.0  0.10388  0.22194  0.82356  1.0000
  C   C229      1.0  0.12949  0.22474  0.83019  1.0000
  C   C230      1.0  0.14145  0.24873  0.82839  1.0000
  C   C231      1.0  0.12786  0.27002  0.82003  1.0000
  H   H171      1.0  0.07012  0.24156  0.81065  1.0000
  H   H172      1.0  0.09466  0.20327  0.82472  1.0000
  H   H173      1.0  0.16114  0.25097  0.83355  1.0000
  H   H174      1.0  0.13734  0.28832  0.81854  1.0000
  C   C232      1.0  0.01901  0.39903  0.80391  1.0000
  C   C233      1.0  0.01844  0.37162  0.80243  1.0000
  C   C234      1.0  0.43814  0.40566  0.67081  1.0000
  H   H175      1.0  0.03678  0.35981  0.80168  1.0000
  C   C235      1.0  0.06968  0.03089  0.95108  1.0000
  C   C236      1.0  0.36385  0.25869  0.73959  1.0000
  C   C237      1.0  0.34189  0.26483  0.72856  1.0000
  C   C238      1.0  0.32981  0.24500  0.71883  1.0000
  C   C239      1.0  0.33988  0.21896  0.71996  1.0000
  C   C240      1.0  0.36232  0.21287  0.73055  1.0000
  C   C241      1.0  0.37407  0.23265  0.74056  1.0000
  H   H176      1.0  0.33397  0.28475  0.72759  1.0000
  H   H177      1.0  0.31281  0.24988  0.71036  1.0000
  H   H178      1.0  0.37078  0.19297  0.73096  1.0000
  H   H179      1.0  0.39116  0.22778  0.74897  1.0000
  C   C242      1.0  0.46330  0.39960  0.73835  1.0000
  H   H180      1.0  0.15108  0.26183  0.99132  1.0000
  P   P9        1.0  0.01202  0.24930  0.77575  1.0000
  C   C243      1.0  0.18203  0.03685  0.97489  1.0000
  C   C244      1.0  0.00567  0.33019  0.74711  1.0000
  C   C245      1.0  0.26571  0.38387  0.76875  1.0000
  C   C246      1.0  0.25133  0.39162  0.78435  1.0000
  C   C247      1.0  0.22407  0.38737  0.78581  1.0000
  C   C248      1.0  0.21063  0.37562  0.77154  1.0000
  C   C249      1.0  0.22505  0.36776  0.75599  1.0000
  C   C250      1.0  0.25243  0.37148  0.75469  1.0000
  H   H181      1.0  0.26131  0.40131  0.79530  1.0000
  H   H182      1.0  0.21332  0.39388  0.79776  1.0000
  H   H183      1.0  0.21488  0.35904  0.74474  1.0000
  S   S61       1.0  0.07765  0.20138  0.98504  1.0000
  H   H184      1.0  0.38811  0.31964  0.67921  1.0000
  C   C251      1.0  0.09213  0.23735  0.76876  1.0000
  C   C252      1.0  0.06678  0.24932  0.77022  1.0000
  C   C253      1.0  0.04470  0.23396  0.77241  1.0000
  H   H185      1.0  0.41284  0.05223  0.69209  1.0000
  C   C254      1.0  0.30439  0.22997  0.76400  1.0000
  H   H186      1.0  0.30731  0.21494  0.67407  1.0000
  H   H187      1.0  0.08231  0.46734  0.88332  1.0000
  C   C255      1.0  0.13008  0.26026  0.98925  1.0000
  P   P10       1.0  0.18733  0.00888  0.95991  1.0000
  C   C256      1.0  0.37557  0.22448  0.67590  1.0000
  Fe  Fe30      1.0  0.11118  0.41646  0.99354  1.0000
  C   C257      1.0  0.28809  0.22147  0.66891  1.0000
  H   H188      1.0  0.01044  0.21402  0.74416  1.0000
  H   H189      1.0  0.19954  0.37123  0.82963  1.0000
  H   H190      1.0  0.99706  0.13671  0.92545  1.0000
  C   C258      1.0  0.17589  0.03348  0.99327  1.0000
  S   S62       1.0  0.07018  0.12525  0.99053  1.0000
  C   C259      1.0  0.00619  0.23383  0.82980  1.0000
  H   H191      1.0  0.18191  0.16343  0.78998  1.0000
  H   H192      1.0  0.10905  0.24945  0.76766  1.0000
  H   H193      1.0  0.06484  0.27056  0.77008  1.0000
  C   C260      1.0  0.41971  0.34485  0.67329  1.0000
  H   H194      1.0  0.07667  0.17321  0.77230  1.0000
  H   H195      1.0  0.22324  0.21314  0.67762  1.0000
  H   H196      1.0  0.06368  0.05859  0.85485  1.0000
  C   C261      1.0  0.22229  0.00138  0.95715  1.0000
  H   H197      1.0  0.20567  0.00250  0.92196  1.0000
  C   C262      1.0  0.20127  0.28477  0.91713  1.0000
  P   P11       1.0  0.18201  0.24133  0.89905  1.0000
  C   C263      1.0  0.99481  0.28427  0.74833  1.0000
  C   C264      1.0  0.12547  0.23871  0.93820  1.0000
  C   C265      1.0  0.12780  0.21255  0.94405  1.0000
  H   H198      1.0  0.11162  0.25249  0.94484  1.0000
  H   H199      1.0  0.11547  0.20593  0.95491  1.0000
  C   C266      1.0  0.05327  0.22780  0.93917  1.0000
  C   C267      1.0  0.06598  0.20896  0.92802  1.0000
  C   C268      1.0  0.07719  0.21659  0.91172  1.0000
  C   C269      1.0  0.07501  0.24300  0.90631  1.0000
  C   C270      1.0  0.06061  0.26177  0.91679  1.0000
  C   C271      1.0  0.05078  0.25414  0.93368  1.0000
  P   P12       1.0  0.05862  0.29607  0.91014  1.0000
  C   C272      1.0  0.08988  0.30885  0.91655  1.0000
  C   C273      1.0  0.05220  0.30224  0.88632  1.0000
  C   C274      1.0  0.05165  0.32829  0.88001  1.0000
  C   C275      1.0  0.04834  0.33374  0.86157  1.0000
  C   C276      1.0  0.04581  0.31317  0.84918  1.0000
  C   C277      1.0  0.04567  0.28722  0.85537  1.0000
  C   C278      1.0  0.04816  0.28184  0.87393  1.0000
  C   C279      1.0  0.09655  0.31117  0.93495  1.0000
  C   C280      1.0  0.12076  0.32106  0.93997  1.0000
  C   C281      1.0  0.13866  0.32817  0.92676  1.0000
  C   C282      1.0  0.13242  0.32529  0.90844  1.0000
  C   C283      1.0  0.10804  0.31594  0.90333  1.0000
  C   C284      1.0  0.03202  0.31384  0.92176  1.0000
  C   C285      1.0  0.03518  0.33962  0.92797  1.0000
  C   C286      1.0  0.01426  0.35375  0.93635  1.0000
  C   C287      1.0  0.47986  0.37680  0.73566  1.0000
  H   H200      1.0  0.26192  0.24540  0.93740  1.0000
  C   C288      1.0  0.41069  0.02505  0.73421  1.0000
  H   H201      1.0  0.03327  0.30059  0.78435  1.0000
  H   H202      1.0  0.06812  0.18864  0.93239  1.0000
  H   H203      1.0  0.08838  0.20215  0.90364  1.0000
  H   H204      1.0  0.08501  0.24881  0.89416  1.0000
  H   H205      1.0  0.04192  0.26855  0.94295  1.0000
  H   H206      1.0  0.05414  0.34438  0.88938  1.0000
  H   H207      1.0  0.04796  0.35397  0.85688  1.0000
  H   H208      1.0  0.04408  0.31734  0.83477  1.0000
  H   H209      1.0  0.04410  0.27134  0.84564  1.0000
  H   H210      1.0  0.04723  0.26186  0.87848  1.0000
  H   H211      1.0  0.08295  0.30580  0.94545  1.0000
  H   H212      1.0  0.12556  0.32358  0.95413  1.0000
  H   H213      1.0  0.15712  0.33638  0.93077  1.0000
  H   H214      1.0  0.14610  0.33118  0.89813  1.0000
  H   H215      1.0  0.10345  0.31471  0.88907  1.0000
  H   H216      1.0  0.05378  0.34891  0.92635  1.0000
  H   H217      1.0  0.01710  0.37354  0.94131  1.0000
  H   H218      1.0  0.37356  0.03239  0.77377  1.0000
  C   C289      1.0  0.08653  0.28101  0.98542  1.0000
  C   C290      1.0  0.07393  0.19449  0.77149  1.0000
  C   C291      1.0  0.45096  0.30292  0.71038  1.0000
  C   C292      1.0  0.43255  0.28377  0.71324  1.0000
  C   C293      1.0  0.44040  0.25988  0.72144  1.0000
  C   C294      1.0  0.46661  0.25517  0.72697  1.0000
  C   C295      1.0  0.12433  0.27489  0.86632  1.0000
  C   C296      1.0  0.47719  0.29827  0.71587  1.0000
  C   C297      1.0  0.23467  0.19488  0.86958  1.0000
  H   H219      1.0  0.21451  0.16496  0.76543  1.0000
  C   C298      1.0  0.17632  0.28484  0.87585  1.0000
  H   H220      1.0  0.20184  0.24942  0.76294  1.0000
  H   H221      1.0  0.18533  0.01605  0.89279  1.0000
  C   C299      1.0  0.18622  0.01223  0.92194  1.0000
  H   H222      1.0  0.40803  0.01621  0.80055  1.0000
  H   H223      1.0  0.31145  0.03588  0.67581  1.0000
  H   H224      1.0  0.29161  0.25703  0.81088  1.0000
  C   C300      1.0  0.24062  0.02090  0.95973  1.0000
  C   C301      1.0  0.17301  0.20532  0.79001  1.0000
  C   C302      1.0  0.42849  0.00692  0.77543  1.0000
  H   H225      1.0  0.41203  0.28766  0.70953  1.0000
  H   H226      1.0  0.42595  0.24533  0.72404  1.0000
  H   H227      1.0  0.12960  0.24000  0.88264  1.0000
  C   C303      1.0  0.26762  0.01487  0.95746  1.0000
  H   H228      1.0  0.21750  0.29278  0.69349  1.0000
  H   H229      1.0  0.36364  0.28580  0.69358  1.0000
  H   H230      1.0  0.12482  0.31083  0.85080  1.0000
  H   H231      1.0  0.23066  0.22292  0.91766  1.0000
  H   H232      1.0  0.45056  0.05855  0.80278  1.0000
  C   C304      1.0  0.16433  0.26300  0.88330  1.0000
  C   C305      1.0  0.04852  0.20675  0.86916  1.0000
  C   C306      1.0  0.06063  0.18161  0.87098  1.0000
  C   C307      1.0  0.04637  0.16097  0.87771  1.0000
  C   C308      1.0  0.01995  0.16553  0.88269  1.0000
  C   C309      1.0  0.00773  0.19089  0.88122  1.0000
  C   C310      1.0  0.02228  0.21156  0.87461  1.0000
  H   H233      1.0  0.11695  0.04822  0.92063  1.0000
  C   C311      1.0  0.20419  0.14656  0.71488  1.0000
  C   C312      1.0  0.17474  0.01980  0.90534  1.0000
  H   H234      1.0  0.44473  0.32172  0.70446  1.0000
  C   C313      1.0  0.00745  0.30258  0.92373  1.0000
  C   C314      1.0  0.11956  0.23506  0.98808  1.0000
  H   H235      1.0  0.00421  0.34925  0.74050  1.0000
  H   H236      1.0  0.15879  0.20450  0.80086  1.0000
  C   C315      1.0  0.40701  0.32106  0.67265  1.0000
  H   H237      1.0  0.42061  0.17037  0.71702  1.0000
  H   H238      1.0  0.33460  0.20570  0.77735  1.0000
  C   C316      1.0  0.04526  0.06998  0.85692  1.0000
  C   C317      1.0  0.26536  0.20767  0.75432  1.0000
  H   H239      1.0  0.03625  0.45884  0.89010  1.0000
  H   H240      1.0  0.01540  0.12906  0.84546  1.0000
  C   C318      1.0  0.02035  0.32698  0.76308  1.0000
  C   C319      1.0  0.23082  0.17929  0.72922  1.0000
  H   H241      1.0  0.01460  0.18757  0.91729  1.0000
  C   C320      1.0  0.22761  0.24388  0.92013  1.0000
  H   H242      1.0  0.05967  0.22234  0.86341  1.0000
  H   H243      1.0  0.08113  0.17815  0.86714  1.0000
  H   H244      1.0  0.05582  0.14138  0.87895  1.0000
  H   H245      1.0  0.00912  0.14930  0.88778  1.0000
  C   C321      1.0  0.48272  0.05098  0.76248  1.0000
  C   C322      1.0  0.24556  0.26459  0.70542  1.0000
  C   C323      1.0  0.14764  0.03066  0.93763  1.0000
  C   C324      1.0  0.37811  0.24622  0.68727  1.0000
  C   C325      1.0  0.48508  0.27455  0.72453  1.0000
  H   H246      1.0  0.01332  0.23120  0.87335  1.0000
  C   C326      1.0  0.04437  0.41972  0.85269  1.0000
  P   P13       1.0  0.23335  0.20794  0.74346  1.0000
  C   C327      1.0  0.23067  0.29664  0.76784  1.0000
  H   H247      1.0  0.30882  0.16533  0.77629  1.0000
  H   H248      1.0  0.48007  0.04459  0.74862  1.0000
  C   C328      1.0  0.99835  0.09999  0.86256  1.0000
  H   H249      1.0  0.47441  0.22147  0.67207  1.0000
  H   H250      1.0  0.41011  0.36135  0.68033  1.0000
  H   H251      1.0  0.33673  0.06164  0.78505  1.0000
  C   C329      1.0  0.47508  0.42355  0.74147  1.0000
  H   H252      1.0  0.04619  0.22210  0.95239  1.0000
  C   C330      1.0  0.42464  0.04370  0.74393  1.0000
  H   H253      1.0  0.43665  0.39346  0.69890  1.0000
  H   H254      1.0  0.20790  0.26621  0.83293  1.0000
  H   H255      1.0  0.47113  0.35815  0.73312  1.0000
  H   H256      1.0  0.11540  0.20066  0.76851  1.0000
  H   H257      1.0  0.23471  0.23247  0.88290  1.0000
  H   H258      1.0  0.27190  0.17791  0.72115  1.0000
  C   C331      1.0  0.00165  0.07490  0.87043  1.0000
  H   H259      1.0  0.40707  0.43093  0.70840  1.0000
  C   C332      1.0  0.25049  0.14826  0.70749  1.0000
  C   C333      1.0  0.20445  0.18312  0.76988  1.0000
  H   H260      1.0  0.38984  0.12393  0.79267  1.0000
  C   C334      1.0  0.02537  0.05998  0.86760  1.0000
  C   C335      1.0  0.01160  0.13221  0.97017  1.0000
  H   H261      1.0  0.26552  0.16617  0.76114  1.0000
  H   H262      1.0  0.03036  0.34350  0.76876  1.0000
  C   C336      1.0  0.17273  0.01769  0.93823  1.0000
  H   H263      1.0  0.22866  0.15727  0.85693  1.0000
  H   H264      1.0  0.39198  0.46500  0.68623  1.0000
  H   H265      1.0  0.03424  0.40658  0.84380  1.0000
  H   H266      1.0  0.02899  0.14355  0.96955  1.0000
  C   C337      1.0  0.41697  0.00082  0.79208  1.0000
  H   H267      1.0  0.43562  0.08630  0.70941  1.0000
  C   C338      1.0  0.40505  0.44866  0.68191  1.0000
  S   S63       1.0  0.35916  0.07079  0.68632  1.0000
  H   H268      1.0  0.03223  0.19396  0.77557  1.0000
  C   C339      1.0  0.32175  0.27849  0.79822  1.0000
  C   C340      1.0  0.24521  0.25649  0.93149  1.0000
  C   C341      1.0  0.41348  0.42939  0.69441  1.0000
  C   C342      1.0  0.43011  0.40808  0.68895  1.0000
  C   C343      1.0  0.42922  0.06889  0.71624  1.0000
  H   H269      1.0  0.32122  0.11166  0.67379  1.0000
  H   H270      1.0  0.22463  0.12000  0.69627  1.0000
  C   C344      1.0  0.40326  0.06107  0.77786  1.0000
  H   H271      1.0  0.14847  0.17481  0.94096  1.0000
  C   C345      1.0  0.07160  0.45427  0.87466  1.0000
  C   C346      1.0  0.08401  0.44265  0.85961  1.0000
  C   C347      1.0  0.44540  0.16775  0.69326  1.0000
  C   C348      1.0  0.16250  0.20336  0.92220  1.0000
  C   C349      1.0  0.18442  0.06250  0.96815  1.0000
  C   C350      1.0  0.14631  0.19493  0.93609  1.0000
  H   H272      1.0  0.18382  0.29576  0.91231  1.0000
  Fe  Fe31      1.0  0.10721  0.35573  0.98734  1.0000
  C   C351      1.0  0.27605  0.18419  0.76196  1.0000
  S   S64       1.0  0.33586  0.34431  0.68171  1.0000
  H   H273      1.0  0.26882  0.23397  0.71881  1.0000
  C   C352      1.0  0.23545  0.25525  0.81145  1.0000
  C   C353      1.0  0.21247  0.22429  0.83001  1.0000
  H   H274      1.0  0.42675  0.09514  0.78174  1.0000
  C   C354      1.0  0.43320  0.06596  0.73489  1.0000
  C   C355      1.0  0.48910  0.37763  0.67841  1.0000
  H   H275      1.0  0.18304  0.10398  0.97431  1.0000
  H   H276      1.0  0.21514  0.31789  0.93209  1.0000
  C   C356      1.0  0.40751  0.08709  0.78311  1.0000
  C   C357      1.0  0.14118  0.24707  0.92399  1.0000
  C   C358      1.0  0.09572  0.20994  0.76935  1.0000
  H   H277      1.0  0.28166  0.03002  0.95951  1.0000
  C   C359      1.0  0.38655  0.10357  0.78931  1.0000
  H   H278      1.0  0.44266  0.08119  0.74235  1.0000
  C   C360      1.0  0.46176  0.05125  0.77487  1.0000
  C   C361      1.0  0.13590  0.29736  0.85974  1.0000
  H   H279      1.0  0.22220  0.30498  0.73976  1.0000
  H   H280      1.0  0.21284  0.36128  0.86128  1.0000
  C   C362      1.0  0.00940  0.28094  0.76448  1.0000
  C   C363      1.0  0.47486  0.12383  0.73841  1.0000
  C   C364      1.0  0.36117  0.09420  0.79030  1.0000
  H   H281      1.0  0.34476  0.10720  0.79461  1.0000
  C   C365      1.0  0.21887  0.29733  0.92850  1.0000
  C   C366      1.0  0.31505  0.20641  0.77132  1.0000
  H   H282      1.0  0.27135  0.24941  0.75070  1.0000
  H   H283      1.0  0.13706  0.03536  0.95004  1.0000
  H   H284      1.0  0.02884  0.04080  0.87373  1.0000
  C   C367      1.0  0.49105  0.06709  0.79823  1.0000
  C   C368      1.0  0.27942  0.23076  0.75582  1.0000
  P   P14       1.0  0.42969  0.04067  0.76809  1.0000
  C   C369      1.0  0.20634  0.16802  0.72660  1.0000
  H   H285      1.0  0.26747  0.14089  0.69983  1.0000
  H   H286      1.0  0.31566  0.24757  0.76442  1.0000
  C   C370      1.0  0.17871  0.22951  0.78239  1.0000
  C   C371      1.0  0.15955  0.22933  0.91568  1.0000
  H   H287      1.0  0.18432  0.29541  0.80114  1.0000
  C   C372      1.0  0.24092  0.28324  0.93561  1.0000
  H   H288      1.0  0.10457  0.27059  0.86198  1.0000
  H   H289      1.0  0.17748  0.18956  0.91687  1.0000
  H   H290      1.0  0.25436  0.29293  0.94461  1.0000
  C   C373      1.0  0.04155  0.00876  0.97215  1.0000
  H   H291      1.0  0.00529  0.46595  0.84622  1.0000
  C   C374      1.0  0.22626  0.13667  0.70533  1.0000
  C   C375      1.0  0.19688  0.21485  0.88558  1.0000
  C   C376      1.0  0.21817  0.33556  0.81876  1.0000
  H   H292      1.0  0.21230  0.34058  0.80500  1.0000
  H   H293      1.0  0.15501  0.30606  0.77510  1.0000
  C   C377      1.0  0.29573  0.27470  0.80350  1.0000
  H   H294      1.0  0.25168  0.29426  0.76545  1.0000
  C   C378      1.0  0.23383  0.32452  0.85445  1.0000
  H   H295      1.0  0.24015  0.32049  0.86826  1.0000
  C   C379      1.0  0.19278  0.29719  0.78777  1.0000
  C   C380      1.0  0.45973  0.18240  0.72283  1.0000
  C   C381      1.0  0.00935  0.01424  0.92401  1.0000
  C   C382      1.0  0.17609  0.30285  0.77300  1.0000
  C   C383      1.0  0.23248  0.31183  0.82266  1.0000
  C   C384      1.0  0.24092  0.30680  0.84054  1.0000
  C   C385      1.0  0.18668  0.30574  0.75571  1.0000
  H   H296      1.0  0.17381  0.31132  0.74445  1.0000
  H   H297      1.0  0.48527  0.30926  0.75258  1.0000
  C   C386      1.0  0.04164  0.09484  0.84897  1.0000
  H   H298      1.0  0.05699  0.10236  0.84054  1.0000
  C   C387      1.0  0.18604  0.18217  0.78386  1.0000
  C   C388      1.0  0.21989  0.17334  0.86491  1.0000
  C   C389      1.0  0.01819  0.10986  0.85179  1.0000
  C   C390      1.0  0.22024  0.29469  0.78537  1.0000
  H   H299      1.0  0.26211  0.27113  0.69764  1.0000
  H   H300      1.0  0.25287  0.28911  0.84370  1.0000
  C   C391      1.0  0.00607  0.25312  0.79972  1.0000
  C   C392      1.0  0.14975  0.03267  0.90486  1.0000
  P   P15       1.0  0.24144  0.28867  0.80482  1.0000
  C   C393      1.0  0.28202  0.31710  0.79064  1.0000
  C   C394      1.0  0.30803  0.32078  0.78538  1.0000
  C   C395      1.0  0.32784  0.30138  0.78898  1.0000
  C   C396      1.0  0.11366  0.28342  0.98812  1.0000
  C   C397      1.0  0.21392  0.30234  0.75310  1.0000
  P   P16       1.0  0.01322  0.00989  0.98688  1.0000
  H   H301      1.0  0.26693  0.33242  0.78772  1.0000
  H   H302      1.0  0.31286  0.33871  0.77847  1.0000
  H   H303      1.0  0.34794  0.30422  0.78468  1.0000
  H   H304      1.0  0.18889  0.17565  0.73364  1.0000
  C   C398      1.0  0.27550  0.29366  0.79923  1.0000
  H   H305      1.0  0.42976  0.16044  0.68491  1.0000
  H   H306      1.0  0.14106  0.03894  0.89199  1.0000
  H   H307      1.0  0.19661  0.28872  0.87905  1.0000
  H   H308      1.0  0.13247  0.21752  0.98926  1.0000
  H   H309      1.0  0.19870  0.22047  0.84078  1.0000
  C   C399      1.0  0.43998  0.17346  0.71148  1.0000
  H   H310      1.0  0.17942  0.27657  0.71052  1.0000
  H   H311      1.0  0.01797  0.43154  0.93839  1.0000
  H   H312      1.0  0.00455  0.28289  0.91878  1.0000
  H   H313      1.0  0.45561  0.18586  0.73708  1.0000
  H   H314      1.0  0.16122  0.19311  0.88370  1.0000
  C   C400      1.0  0.21793  0.25022  0.82558  1.0000
  C   C401      1.0  0.07599  0.25580  0.98436  1.0000
  C   C402      1.0  0.02202  0.30257  0.77184  1.0000
  Fe  Fe32      1.0  0.10777  0.10046  0.99409  1.0000
  H   H315      1.0  0.03028  0.09629  0.80908  1.0000
  H   H316      1.0  0.07980  0.41725  0.83665  1.0000
  H   H317      1.0  0.23424  0.04080  0.96350  1.0000
  C   C403      1.0  0.30065  0.18366  0.77060  1.0000
  H   H318      1.0  0.01146  0.18490  0.95047  1.0000
  C   C404      1.0  0.16200  0.30211  0.86428  1.0000
  C   C405      1.0  0.47069  0.17138  0.68619  1.0000
  C   C406      1.0  0.47188  0.13298  0.77049  1.0000
  C   C407      1.0  0.03181  0.43099  0.86796  1.0000
  C   C408      1.0  0.24658  0.23396  0.80145  1.0000
  H   H319      1.0  0.33727  0.26366  0.80117  1.0000
  H   H320      1.0  0.25917  0.23742  0.79003  1.0000
  H   H321      1.0  0.18542  0.13748  0.71332  1.0000
  C   C409      1.0  0.37760  0.05192  0.77861  1.0000
  H   H322      1.0  0.02547  0.41449  0.90761  1.0000
  C   C410      1.0  0.05003  0.03202  0.96433  1.0000
  H   H323      1.0  0.07545  0.04894  0.94471  1.0000
  H   H324      1.0  0.17098  0.31934  0.85885  1.0000
  H   H325      1.0  0.18170  0.15655  0.86604  1.0000
  C   C411      1.0  0.19723  0.23053  0.76842  1.0000
  C   C412      1.0  0.04861  0.20640  0.77324  1.0000
  H   H326      1.0  0.11301  0.03153  0.99110  1.0000
  C   C413      1.0  0.99927  0.03667  0.91491  1.0000
  H   H327      1.0  0.02387  0.21470  0.80666  1.0000
  C   C414      1.0  0.20971  0.20724  0.76171  1.0000
  H   H328      1.0  0.04082  0.05101  0.96794  1.0000
  C   C415      1.0  0.46628  0.05877  0.79291  1.0000
  H   H329      1.0  0.18594  0.23969  0.73204  1.0000
  H   H330      1.0  0.21917  0.18321  0.82338  1.0000
  C   C416      1.0  0.01329  0.23237  0.81155  1.0000
  C   C417      1.0  0.22407  0.20322  0.82023  1.0000
  H   H331      1.0  0.09623  0.00576  0.93531  1.0000
  C   C418      1.0  0.24118  0.20805  0.80597  1.0000
  C   C419      1.0  0.13617  0.03795  0.92100  1.0000
  C   C420      1.0  0.04548  0.44891  0.87864  1.0000
  C   C421      1.0  0.00806  0.42710  0.91021  1.0000
  C   C422      1.0  0.22314  0.21571  0.87972  1.0000
  H   H332      1.0  0.48654  0.41973  0.68374  1.0000
  H   H333      1.0  0.24971  0.19171  0.79812  1.0000
  C   C423      1.0  0.25289  0.16931  0.71954  1.0000
  C   C424      1.0  0.19350  0.17281  0.87015  1.0000
  H   H334      1.0  0.10433  0.44659  0.85654  1.0000
  C   C425      1.0  0.22042  0.27663  0.70300  1.0000
  C   C426      1.0  0.13854  0.25766  0.87797  1.0000
  C   C427      1.0  0.20286  0.24687  0.72504  1.0000
  C   C428      1.0  0.26570  0.21246  0.67739  1.0000
  C   C429      1.0  0.40669  0.02802  0.71552  1.0000
  H   H335      1.0  0.46272  0.44129  0.74353  1.0000
  C   C430      1.0  0.00388  0.43686  0.92771  1.0000
  H   H336      1.0  0.99991  0.05561  0.92163  1.0000
  H   H337      1.0  0.01146  0.21734  0.83856  1.0000
  H   H338      1.0  0.05493  0.25426  0.98269  1.0000
  H   H339      1.0  0.99398  0.33841  0.79926  1.0000
  H   H340      1.0  0.49110  0.31355  0.71396  1.0000
  C   C431      1.0  0.49031  0.18084  0.69768  1.0000
  C   C432      1.0  0.34420  0.27060  0.67008  1.0000
  H   H341      1.0  0.35453  0.01145  0.67262  1.0000
  P   P17       1.0  0.99801  0.42382  0.87312  1.0000
  C   C433      1.0  0.99542  0.19057  0.92350  1.0000
  H   H342      1.0  0.99553  0.37911  0.89890  1.0000
  C   C434      1.0  0.08123  0.00660  0.94571  1.0000
  H   H343      1.0  0.33190  0.28843  0.66855  1.0000
  H   H344      1.0  0.40246  0.00853  0.74103  1.0000
  H   H345      1.0  0.39556  0.01391  0.70803  1.0000
  C   C435      1.0  0.17544  0.08070  0.99796  1.0000
  C   C436      1.0  0.99414  0.35951  0.80109  1.0000
  H   H346      1.0  0.99526  0.43524  0.80620  1.0000
  C   C437      1.0  0.99497  0.41404  0.80501  1.0000
  C   C438      1.0  0.99537  0.39131  0.99707  1.0000
  H   H347      1.0  0.17304  0.01424  0.99890  1.0000
  C   C439      1.0  0.99379  0.18918  0.94242  1.0000
  C   C440      1.0  0.99348  0.38892  0.87026  1.0000
  H   H348      1.0  0.99328  0.15662  0.99091  1.0000
  C   C441      1.0  0.03292  0.67941  0.29824  1.0000
  S   S65       1.0  0.38531  0.88289  0.31998  1.0000
  Fe  Fe33      1.0  0.40078  0.81279  0.30194  1.0000
  S   S66       1.0  0.40962  0.84840  0.28566  1.0000
  S   S67       1.0  0.41206  0.77119  0.29445  1.0000
  Fe  Fe34      1.0  0.42526  0.86398  0.31204  1.0000
  S   S68       1.0  0.46491  0.88220  0.31837  1.0000
  Fe  Fe35      1.0  0.36890  0.86375  0.29474  1.0000
  S   S69       1.0  0.33941  0.88018  0.27328  1.0000
  C   C442      1.0  0.01957  0.91540  0.11877  1.0000
  S   S70       1.0  0.35954  0.82659  0.30897  1.0000
  Fe  Fe36      1.0  0.16266  0.88447  0.20353  1.0000
  S   S71       1.0  0.14920  0.90038  0.23091  1.0000
  S   S72       1.0  0.16354  0.90634  0.17660  1.0000
  Fe  Fe37      1.0  0.17474  0.82997  0.21839  1.0000
  S   S73       1.0  0.16198  0.84110  0.24638  1.0000
  S   S74       1.0  0.18776  0.78829  0.21191  1.0000
  Fe  Fe38      1.0  0.12717  0.86276  0.23298  1.0000
  S   S75       1.0  0.08581  0.85003  0.24071  1.0000
  Fe  Fe39      1.0  0.18537  0.87710  0.24212  1.0000
  S   S76       1.0  0.21285  0.88644  0.26608  1.0000
  S   S77       1.0  0.13900  0.84878  0.20517  1.0000
  S   S78       1.0  0.20006  0.86433  0.21466  1.0000
  C   C443      1.0  0.27574  0.55586  0.26285  1.0000
  S   S79       1.0  0.35623  0.59246  0.30993  1.0000
  H   H349      1.0  0.05842  0.54685  0.08042  1.0000
  S   S80       1.0  0.35648  0.65535  0.30504  1.0000
  C   C444      1.0  0.04345  0.59185  0.15291  1.0000
  Fe  Fe40      1.0  0.32492  0.62610  0.30821  1.0000
  S   S81       1.0  0.29082  0.63494  0.28775  1.0000
  Fe  Fe41      1.0  0.38742  0.62275  0.30918  1.0000
  S   S82       1.0  0.42422  0.62494  0.29143  1.0000
  C   C445      1.0  0.00421  0.91369  0.14993  1.0000
  H   H350      1.0  0.23165  0.95150  0.26290  1.0000
  Fe  Fe42      1.0  0.10754  0.67241  0.23436  1.0000
  S   S83       1.0  0.09956  0.64609  0.25794  1.0000
  S   S84       1.0  0.09672  0.71587  0.23532  1.0000
  Fe  Fe43      1.0  0.12496  0.62751  0.20992  1.0000
  S   S85       1.0  0.11865  0.59731  0.23162  1.0000
  S   S86       1.0  0.14209  0.61785  0.18220  1.0000
  Fe  Fe44      1.0  0.08028  0.62084  0.23709  1.0000
  S   S87       1.0  0.04103  0.60043  0.23909  1.0000
  Fe  Fe45      1.0  0.13865  0.62521  0.25071  1.0000
  S   S88       1.0  0.16845  0.61343  0.27347  1.0000
  S   S89       1.0  0.08572  0.64883  0.21412  1.0000
  S   S90       1.0  0.14757  0.65337  0.22852  1.0000
  Fe  Fe46      1.0  0.06663  0.87291  0.04517  1.0000
  S   S91       1.0  0.10165  0.87637  0.02745  1.0000
  S   S92       1.0  0.02806  0.86462  0.03211  1.0000
  Fe  Fe47      1.0  0.09712  0.88451  0.07949  1.0000
  S   S93       1.0  0.13491  0.88938  0.06393  1.0000
  S   S94       1.0  0.08828  0.88203  0.10969  1.0000
  Fe  Fe48      1.0  0.10930  0.91300  0.04364  1.0000
  S   S95       1.0  0.11706  0.94669  0.02364  1.0000
  Fe  Fe49      1.0  0.12329  0.85276  0.04896  1.0000
  S   S96       1.0  0.15200  0.81884  0.04134  1.0000
  S   S97       1.0  0.07240  0.91043  0.06035  1.0000
  S   S98       1.0  0.08743  0.84671  0.06549  1.0000
  Fe  Fe50      1.0  0.08920  0.63247  0.08298  1.0000
  S   S99       1.0  0.13101  0.62729  0.07328  1.0000
  S   S100      1.0  0.07259  0.63601  0.11138  1.0000
  Fe  Fe51      1.0  0.06807  0.63886  0.04495  1.0000
  S   S101      1.0  0.10791  0.63471  0.03200  1.0000
  S   S102      1.0  0.03050  0.64532  0.02919  1.0000
  Fe  Fe52      1.0  0.11491  0.60088  0.05140  1.0000
  S   S103      1.0  0.13729  0.56222  0.04354  1.0000
  Fe  Fe53      1.0  0.12036  0.66148  0.05463  1.0000
  S   S104      1.0  0.14949  0.69389  0.05102  1.0000
  S   S105      1.0  0.07401  0.60343  0.06286  1.0000
  S   S106      1.0  0.07971  0.66817  0.06581  1.0000
  H   H351      1.0  0.46800  0.70960  0.27016  1.0000
  C   C446      1.0  0.00882  0.63511  0.06208  1.0000
  C   C447      1.0  0.28761  0.96878  0.28474  1.0000
  H   H352      1.0  0.02798  0.63849  0.06783  1.0000
  C   C448      1.0  0.29550  0.73014  0.22897  1.0000
  C   C449      1.0  0.13463  0.53133  0.03206  1.0000
  C   C450      1.0  0.11090  0.52158  0.02539  1.0000
  H   H353      1.0  0.09275  0.53351  0.02666  1.0000
  H   H354      1.0  0.28232  0.58083  0.29866  1.0000
  C   C451      1.0  0.00866  0.87459  0.06605  1.0000
  C   C452      1.0  0.01749  0.60072  0.15675  1.0000
  H   H355      1.0  0.02746  0.86662  0.07112  1.0000
  C   C453      1.0  0.00968  0.66996  0.13883  1.0000
  C   C454      1.0  0.14902  0.78440  0.04464  1.0000
  C   C455      1.0  0.12514  0.77271  0.04862  1.0000
  C   C456      1.0  0.12441  0.74486  0.05027  1.0000
  C   C457      1.0  0.14768  0.72880  0.04837  1.0000
  C   C458      1.0  0.17126  0.74076  0.04451  1.0000
  C   C459      1.0  0.17188  0.76815  0.04254  1.0000
  H   H356      1.0  0.10738  0.78510  0.05032  1.0000
  H   H357      1.0  0.10608  0.73584  0.05330  1.0000
  H   H358      1.0  0.18933  0.72870  0.04301  1.0000
  H   H359      1.0  0.19039  0.77682  0.03943  1.0000
  P   P18       1.0  0.30736  0.54498  0.27236  1.0000
  C   C460      1.0  0.24223  0.94086  0.29029  1.0000
  C   C461      1.0  0.99846  0.68731  0.20356  1.0000
  C   C462      1.0  0.12375  0.62568  0.16235  1.0000
  C   C463      1.0  0.13410  0.61812  0.14538  1.0000
  C   C464      1.0  0.11915  0.62243  0.12945  1.0000
  C   C465      1.0  0.09359  0.63395  0.13047  1.0000
  C   C466      1.0  0.08374  0.64263  0.14729  1.0000
  C   C467      1.0  0.09886  0.63876  0.16315  1.0000
  H   H360      1.0  0.15354  0.60836  0.14462  1.0000
  H   H361      1.0  0.12709  0.61601  0.11650  1.0000
  H   H362      1.0  0.06404  0.65161  0.14818  1.0000
  H   H363      1.0  0.09080  0.64500  0.17604  1.0000
  H   H364      1.0  0.01973  0.65447  0.24631  1.0000
  C   C468      1.0  0.32353  0.52793  0.32569  1.0000
  C   C469      1.0  0.16346  0.82626  0.32165  1.0000
  C   C470      1.0  0.26867  0.96736  0.27096  1.0000
  C   C471      1.0  0.00836  0.61490  0.24144  1.0000
  C   C472      1.0  0.45709  0.61834  0.29941  1.0000
  C   C473      1.0  0.47872  0.62505  0.28873  1.0000
  C   C474      1.0  0.30811  0.72545  0.32311  1.0000
  H   H365      1.0  0.47517  0.63491  0.27590  1.0000
  C   C475      1.0  0.31711  0.75147  0.29659  1.0000
  C   C476      1.0  0.25642  0.62973  0.28453  1.0000
  C   C477      1.0  0.24077  0.61877  0.29786  1.0000
  C   C478      1.0  0.21390  0.61436  0.29431  1.0000
  C   C479      1.0  0.20203  0.62128  0.27754  1.0000
  C   C480      1.0  0.21746  0.63306  0.26443  1.0000
  C   C481      1.0  0.24447  0.63698  0.26786  1.0000
  H   H366      1.0  0.24937  0.61340  0.31086  1.0000
  H   H367      1.0  0.20225  0.60526  0.30459  1.0000
  H   H368      1.0  0.20882  0.63828  0.25140  1.0000
  H   H369      1.0  0.25639  0.64512  0.25735  1.0000
  C   C482      1.0  0.14383  0.89754  0.15773  1.0000
  C   C483      1.0  0.12180  0.88230  0.15978  1.0000
  C   C484      1.0  0.10500  0.87799  0.14495  1.0000
  C   C485      1.0  0.11072  0.88756  0.12765  1.0000
  C   C486      1.0  0.13339  0.90177  0.12532  1.0000
  C   C487      1.0  0.14960  0.90710  0.14037  1.0000
  H   H370      1.0  0.11711  0.87456  0.17291  1.0000
  H   H371      1.0  0.08737  0.86733  0.14694  1.0000
  H   H372      1.0  0.13799  0.90938  0.11208  1.0000
  H   H373      1.0  0.16660  0.91887  0.13859  1.0000
  C   C488      1.0  0.16300  0.76818  0.21916  1.0000
  C   C489      1.0  0.16647  0.74089  0.21741  1.0000
  C   C490      1.0  0.14584  0.72479  0.22182  1.0000
  C   C491      1.0  0.12210  0.73583  0.22862  1.0000
  C   C492      1.0  0.11870  0.76318  0.23040  1.0000
  C   C493      1.0  0.13920  0.77932  0.22583  1.0000
  H   H374      1.0  0.18489  0.73226  0.21229  1.0000
  H   H375      1.0  0.14834  0.70395  0.21984  1.0000
  H   H376      1.0  0.10017  0.77199  0.23514  1.0000
  H   H377      1.0  0.13617  0.80041  0.22700  1.0000
  C   C494      1.0  0.39934  0.75082  0.31098  1.0000
  H   H378      1.0  0.03008  0.79120  0.00599  1.0000
  C   C495      1.0  0.02920  0.60506  0.18845  1.0000
  H   H379      1.0  0.31620  0.76652  0.32384  1.0000
  C   C496      1.0  0.39149  0.70702  0.32191  1.0000
  C   C497      1.0  0.40359  0.72353  0.30965  1.0000
  C   C498      1.0  0.32263  0.52655  0.30674  1.0000
  H   H380      1.0  0.33459  0.51140  0.29988  1.0000
  H   H381      1.0  0.39496  0.68593  0.32087  1.0000
  H   H382      1.0  0.41553  0.71515  0.29879  1.0000
  C   C499      1.0  0.30422  0.87973  0.27144  1.0000
  C   C500      1.0  0.28802  0.87568  0.28639  1.0000
  C   C501      1.0  0.26022  0.87734  0.28446  1.0000
  C   C502      1.0  0.24812  0.88261  0.26752  1.0000
  C   C503      1.0  0.26435  0.88604  0.25248  1.0000
  C   C504      1.0  0.29213  0.88486  0.25449  1.0000
  H   H383      1.0  0.29685  0.87210  0.29953  1.0000
  H   H384      1.0  0.24798  0.87487  0.29625  1.0000
  H   H385      1.0  0.25549  0.89042  0.23939  1.0000
  H   H386      1.0  0.30435  0.88825  0.24282  1.0000
  C   C505      1.0  0.99387  0.97941  0.06760  1.0000
  C   C506      1.0  0.01802  0.70256  0.10914  1.0000
  H   H387      1.0  0.23699  0.84005  0.24513  1.0000
  H   H388      1.0  0.02911  0.69841  0.15477  1.0000
  H   H389      1.0  0.01830  0.92396  0.24403  1.0000
  C   C507      1.0  0.04815  0.89226  0.24142  1.0000
  C   C508      1.0  0.05318  0.86495  0.24029  1.0000
  C   C509      1.0  0.03157  0.84856  0.23991  1.0000
  H   H390      1.0  0.06447  0.90517  0.24186  1.0000
  H   H391      1.0  0.03507  0.82744  0.23901  1.0000
  C   C510      1.0  0.32822  0.59229  0.26142  1.0000
  C   C511      1.0  0.23106  0.78816  0.27387  1.0000
  C   C512      1.0  0.10700  0.70266  0.10301  1.0000
  C   C513      1.0  0.11829  0.72304  0.09363  1.0000
  C   C514      1.0  0.10706  0.74867  0.09475  1.0000
  C   C515      1.0  0.08472  0.75404  0.10541  1.0000
  C   C516      1.0  0.07333  0.73369  0.11509  1.0000
  C   C517      1.0  0.08479  0.70795  0.11379  1.0000
  P   P19       1.0  0.04430  0.73973  0.12905  1.0000
  C   C518      1.0  0.05370  0.74344  0.15257  1.0000
  C   C519      1.0  0.02512  0.76893  0.12157  1.0000
  C   C520      1.0  0.03569  0.79381  0.12347  1.0000
  C   C521      1.0  0.36010  0.55676  0.26876  1.0000
  H   H392      1.0  0.05855  0.69744  0.01517  1.0000
  C   C522      1.0  0.05522  0.89204  0.19370  1.0000
  C   C523      1.0  0.29319  0.56554  0.30612  1.0000
  H   H393      1.0  0.01988  0.92452  0.03671  1.0000
  H   H394      1.0  0.36137  0.97222  0.33183  1.0000
  C   C524      1.0  0.06651  0.74664  0.18961  1.0000
  C   C525      1.0  0.08191  0.73037  0.17813  1.0000
  C   C526      1.0  0.07539  0.72856  0.15973  1.0000
  C   C527      1.0  0.43545  0.76146  0.24952  1.0000
  C   C528      1.0  0.02603  0.71033  0.12651  1.0000
  C   C529      1.0  0.32915  0.50727  0.24845  1.0000
  H   H395      1.0  0.23741  0.75794  0.23273  1.0000
  C   C530      1.0  0.27546  0.70717  0.25371  1.0000
  H   H396      1.0  0.18087  0.93610  0.00379  1.0000
  H   H397      1.0  0.11548  0.68266  0.10192  1.0000
  H   H398      1.0  0.13573  0.71891  0.08547  1.0000
  H   H399      1.0  0.11568  0.76443  0.08727  1.0000
  H   H400      1.0  0.07662  0.77403  0.10576  1.0000
  H   H401      1.0  0.07661  0.69176  0.12105  1.0000
  H   H402      1.0  0.05489  0.79555  0.12954  1.0000
  H   H403      1.0  0.17392  0.70258  0.31162  1.0000
  C   C531      1.0  0.00123  0.86943  0.17576  1.0000
  H   H404      1.0  0.41340  0.94253  0.29019  1.0000
  C   C532      1.0  0.08055  0.89704  0.19996  1.0000
  C   C533      1.0  0.02073  0.97165  0.06787  1.0000
  C   C534      1.0  0.11489  0.52468  0.08210  1.0000
  H   H405      1.0  0.07162  0.74793  0.20388  1.0000
  H   H406      1.0  0.09879  0.71894  0.18360  1.0000
  H   H407      1.0  0.08693  0.71506  0.15126  1.0000
  S   S107      1.0  0.41855  0.82706  0.32749  1.0000
  C   C535      1.0  0.06462  0.76122  0.02860  1.0000
  H   H408      1.0  0.00737  0.65688  0.15020  1.0000
  H   H409      1.0  0.29343  0.77887  0.25131  1.0000
  C   C536      1.0  0.24172  0.72916  0.29886  1.0000
  H   H410      1.0  0.12511  0.56528  0.08340  1.0000
  C   C537      1.0  0.35092  0.70706  0.25737  1.0000
  C   C538      1.0  0.36950  0.70125  0.27114  1.0000
  C   C539      1.0  0.39070  0.68313  0.26814  1.0000
  C   C540      1.0  0.39373  0.67081  0.25131  1.0000
  C   C541      1.0  0.37548  0.67657  0.23744  1.0000
  C   C542      1.0  0.35415  0.69462  0.24043  1.0000
  H   H411      1.0  0.31104  0.74174  0.22363  1.0000
  H   H412      1.0  0.36749  0.71059  0.28429  1.0000
  H   H413      1.0  0.40464  0.67834  0.27898  1.0000
  H   H414      1.0  0.41015  0.65666  0.24915  1.0000
  H   H415      1.0  0.37780  0.66693  0.22439  1.0000
  H   H416      1.0  0.34029  0.69866  0.22950  1.0000
  C   C543      1.0  0.14022  0.70324  0.14612  1.0000
  C   C544      1.0  0.15193  0.69346  0.16207  1.0000
  C   C545      1.0  0.16234  0.71081  0.17458  1.0000
  C   C546      1.0  0.16131  0.73791  0.17109  1.0000
  C   C547      1.0  0.15011  0.74790  0.15492  1.0000
  C   C548      1.0  0.13886  0.73042  0.14271  1.0000
  P   P20       1.0  0.14792  0.78311  0.15096  1.0000
  C   C549      1.0  0.17636  0.79831  0.16031  1.0000
  C   C550      1.0  0.14985  0.79243  0.12739  1.0000
  C   C551      1.0  0.14295  0.81854  0.12228  1.0000
  C   C552      1.0  0.14647  0.82685  0.10447  1.0000
  C   C553      1.0  0.15777  0.80944  0.09172  1.0000
  C   C554      1.0  0.16552  0.78368  0.09673  1.0000
  C   C555      1.0  0.16184  0.77525  0.11456  1.0000
  C   C556      1.0  0.17446  0.82496  0.16539  1.0000
  C   C557      1.0  0.19693  0.83764  0.17098  1.0000
  C   C558      1.0  0.22137  0.82377  0.17183  1.0000
  C   C559      1.0  0.22352  0.79730  0.16659  1.0000
  C   C560      1.0  0.20117  0.78470  0.16056  1.0000
  C   C561      1.0  0.11851  0.79625  0.16228  1.0000
  C   C562      1.0  0.11732  0.79533  0.18124  1.0000
  C   C563      1.0  0.09530  0.80627  0.19044  1.0000
  C   C564      1.0  0.07431  0.81832  0.18076  1.0000
  C   C565      1.0  0.07501  0.81878  0.16185  1.0000
  C   C566      1.0  0.09691  0.80758  0.15259  1.0000
  H   H417      1.0  0.13192  0.68962  0.13660  1.0000
  H   H418      1.0  0.15278  0.67246  0.16482  1.0000
  H   H419      1.0  0.17109  0.70314  0.18703  1.0000
  H   H420      1.0  0.16931  0.75114  0.18099  1.0000
  H   H421      1.0  0.12899  0.73782  0.13063  1.0000
  H   H422      1.0  0.13554  0.83282  0.13216  1.0000
  H   H423      1.0  0.14099  0.84703  0.10067  1.0000
  H   H424      1.0  0.16116  0.81618  0.07808  1.0000
  H   H425      1.0  0.17472  0.77042  0.08681  1.0000
  H   H426      1.0  0.16913  0.75563  0.11832  1.0000
  H   H427      1.0  0.15576  0.83616  0.16473  1.0000
  H   H428      1.0  0.19536  0.85834  0.17457  1.0000
  H   H429      1.0  0.23863  0.83367  0.17641  1.0000
  H   H430      1.0  0.24252  0.78663  0.16705  1.0000
  H   H431      1.0  0.20336  0.76447  0.15597  1.0000
  H   H432      1.0  0.13378  0.78675  0.18892  1.0000
  H   H433      1.0  0.09484  0.80604  0.20515  1.0000
  H   H434      1.0  0.05761  0.82737  0.18798  1.0000
  H   H435      1.0  0.05881  0.82839  0.15440  1.0000
  H   H436      1.0  0.09711  0.80827  0.13797  1.0000
  H   H437      1.0  0.27508  0.72886  0.20329  1.0000
  C   C567      1.0  0.44184  0.73547  0.25474  1.0000
  H   H438      1.0  0.14772  0.66959  0.01537  1.0000
  H   H439      1.0  0.37516  0.92675  0.27288  1.0000
  H   H440      1.0  0.05308  0.58693  0.09934  1.0000
  C   C568      1.0  0.09043  0.50879  0.10763  1.0000
  C   C569      1.0  0.01846  0.94076  0.02722  1.0000
  C   C570      1.0  0.28699  0.81784  0.31924  1.0000
  C   C571      1.0  0.06818  0.80947  0.30020  1.0000
  C   C572      1.0  0.27524  0.72275  0.21736  1.0000
  C   C573      1.0  0.38065  0.57369  0.26599  1.0000
  C   C574      1.0  0.04830  0.68236  0.28279  1.0000
  C   C575      1.0  0.34645  0.94120  0.29237  1.0000
  H   H441      1.0  0.33594  0.51392  0.33336  1.0000
  H   H442      1.0  0.29180  0.56717  0.23701  1.0000
  H   H443      1.0  0.35304  0.83582  0.25115  1.0000
  H   H444      1.0  0.37456  0.75526  0.26362  1.0000
  C   C576      1.0  0.34878  0.60923  0.25880  1.0000
  C   C577      1.0  0.48817  0.59897  0.32142  1.0000
  C   C578      1.0  0.26807  0.80937  0.30697  1.0000
  C   C579      1.0  0.03890  0.98663  0.05879  1.0000
  H   H445      1.0  0.38683  0.80108  0.25980  1.0000
  C   C580      1.0  0.00096  0.66281  0.12159  1.0000
  C   C581      1.0  0.36663  0.79597  0.25727  1.0000
  C   C582      1.0  0.35957  0.76989  0.25933  1.0000
  H   H446      1.0  0.08935  0.88539  0.21087  1.0000
  H   H447      1.0  0.18824  0.70168  0.25375  1.0000
  H   H448      1.0  0.16298  0.66852  0.26982  1.0000
  C   C583      1.0  0.02373  0.90791  0.13683  1.0000
  H   H449      1.0  0.10374  0.57343  0.11325  1.0000
  H   H450      1.0  0.24854  0.58189  0.22398  1.0000
  C   C584      1.0  0.34753  0.81560  0.25262  1.0000
  H   H451      1.0  0.33820  0.52336  0.24162  1.0000
  H   H452      1.0  0.06189  0.82412  0.31018  1.0000
  C   C585      1.0  0.33329  0.76323  0.25661  1.0000
  C   C586      1.0  0.48838  0.78380  0.31155  1.0000
  C   C587      1.0  0.29597  0.72219  0.24723  1.0000
  C   C588      1.0  0.45035  0.78192  0.25605  1.0000
  H   H453      1.0  0.02403  0.61018  0.20230  1.0000
  H   H454      1.0  0.17553  0.74927  0.25694  1.0000
  H   H455      1.0  0.03008  0.73613  0.06347  1.0000
  C   C589      1.0  0.17291  0.80201  0.28812  1.0000
  P   P21       1.0  0.32346  0.73037  0.26165  1.0000
  C   C590      1.0  0.23905  0.70202  0.30097  1.0000
  C   C591      1.0  0.17188  0.70798  0.26236  1.0000
  C   C592      1.0  0.24968  0.57381  0.23756  1.0000
  H   H456      1.0  0.30163  0.83115  0.31479  1.0000
  H   H457      1.0  0.48286  0.79252  0.27281  1.0000
  H   H458      1.0  0.08233  0.58259  0.16392  1.0000
  C   C593      1.0  0.03962  0.55172  0.08679  1.0000
  C   C594      1.0  0.14308  0.74278  0.27488  1.0000
  C   C595      1.0  0.16474  0.73476  0.26421  1.0000
  C   C596      1.0  0.32121  0.80929  0.25036  1.0000
  H   H459      1.0  0.02226  0.71435  0.09738  1.0000
  C   C597      1.0  0.05632  0.71531  0.02322  1.0000
  H   H460      1.0  0.17635  0.52269  0.03514  1.0000
  H   H461      1.0  0.41885  0.76579  0.24054  1.0000
  C   C598      1.0  0.15750  0.68926  0.27133  1.0000
  H   H462      1.0  0.22481  0.92966  0.29225  1.0000
  H   H463      1.0  0.04224  0.89761  0.14050  1.0000
  C   C599      1.0  0.09451  0.91720  0.19229  1.0000
  C   C600      1.0  0.34205  0.95422  0.30897  1.0000
  C   C601      1.0  0.31404  0.78323  0.25248  1.0000
  C   C602      1.0  0.46450  0.53475  0.33097  1.0000
  H   H464      1.0  0.45695  0.67860  0.32269  1.0000
  H   H465      1.0  0.23925  0.68863  0.24724  1.0000
  H   H466      1.0  0.01604  0.69858  0.20435  1.0000
  C   C603      1.0  0.47621  0.68442  0.31835  1.0000
  C   C604      1.0  0.24607  0.95325  0.27370  1.0000
  C   C605      1.0  0.25504  0.70768  0.22392  1.0000
  H   H467      1.0  0.25279  0.54472  0.28613  1.0000
  C   C606      1.0  0.21978  0.74688  0.30089  1.0000
  C   C607      1.0  0.14895  0.81608  0.29126  1.0000
  C   C608      1.0  0.09094  0.53373  0.11573  1.0000
  H   H468      1.0  0.30631  0.82477  0.24735  1.0000
  H   H469      1.0  0.05787  0.98246  0.00549  1.0000
  H   H470      1.0  0.16646  0.78680  0.00289  1.0000
  C   C609      1.0  0.46305  0.72990  0.26655  1.0000
  H   H471      1.0  0.30808  0.60017  0.26022  1.0000
  C   C610      1.0  0.30687  0.54502  0.29684  1.0000
  H   H472      1.0  0.02749  0.95385  0.07494  1.0000
  H   H473      1.0  0.20763  0.57846  0.24199  1.0000
  H   H474      1.0  0.33026  0.93321  0.28488  1.0000
  H   H475      1.0  0.09449  0.94746  0.17197  1.0000
  H   H476      1.0  0.02140  0.94534  0.19967  1.0000
  C   C611      1.0  0.47147  0.77644  0.26794  1.0000
  H   H477      1.0  0.32185  0.77037  0.29108  1.0000
  H   H478      1.0  0.13419  0.81800  0.28055  1.0000
  H   H479      1.0  0.03427  0.69646  0.04402  1.0000
  C   C612      1.0  0.22792  0.56117  0.26508  1.0000
  H   H480      1.0  0.04277  0.51039  0.03326  1.0000
  C   C613      1.0  0.31582  0.72896  0.28554  1.0000
  C   C614      1.0  0.04143  0.95208  0.02134  1.0000
  H   H481      1.0  0.08180  0.53731  0.12881  1.0000
  C   C615      1.0  0.00342  0.64168  0.24525  1.0000
  C   C616      1.0  0.29393  0.56677  0.32504  1.0000
  H   H482      1.0  0.46850  0.78020  0.30702  1.0000
  C   C617      1.0  0.13652  0.67800  0.00403  1.0000
  C   C618      1.0  0.33371  0.56593  0.26640  1.0000
  C   C619      1.0  0.00059  0.85246  0.16070  1.0000
  C   C620      1.0  0.05790  0.92748  0.17193  1.0000
  C   C621      1.0  0.11077  0.49615  0.01712  1.0000
  H   H483      1.0  0.12450  0.52144  0.06913  1.0000
  P   P22       1.0  0.00960  0.90346  0.17320  1.0000
  C   C622      1.0  0.15791  0.51560  0.03013  1.0000
  C   C623      1.0  0.37497  0.59992  0.26107  1.0000
  P   P23       1.0  0.22332  0.78176  0.29730  1.0000
  C   C624      1.0  0.08332  0.93222  0.17814  1.0000
  H   H484      1.0  0.24188  0.80383  0.22290  1.0000
  C   C625      1.0  0.01011  0.60729  0.17460  1.0000
  C   C626      1.0  0.06722  0.73876  0.01743  1.0000
  H   H485      1.0  0.08074  0.70145  0.27092  1.0000
  C   C627      1.0  0.21461  0.69248  0.30554  1.0000
  H   H486      1.0  0.07324  0.77947  0.02488  1.0000
  C   C628      1.0  0.13180  0.75764  0.32653  1.0000
  H   H487      1.0  0.01672  0.65760  0.18661  1.0000
  C   C629      1.0  0.00053  0.94200  0.20006  1.0000
  H   H488      1.0  0.99733  0.56889  0.19808  1.0000
  C   C630      1.0  0.43784  0.54093  0.32736  1.0000
  H   H489      1.0  0.43025  0.71965  0.24972  1.0000
  H   H490      1.0  0.46076  0.71898  0.30439  1.0000
  C   C631      1.0  0.99885  0.66369  0.19374  1.0000
  C   C632      1.0  0.06839  0.49377  0.05413  1.0000
  H   H491      1.0  0.03478  0.91091  0.10877  1.0000
  C   C633      1.0  0.05057  0.49241  0.03963  1.0000
  H   H492      1.0  0.04455  0.87685  0.20028  1.0000
  H   H493      1.0  0.39089  0.61318  0.25957  1.0000
  C   C634      1.0  0.11869  0.69951  0.00682  1.0000
  P   P24       1.0  0.30933  0.95628  0.31879  1.0000
  H   H494      1.0  0.02126  0.51823  0.07586  1.0000
  C   C635      1.0  0.02214  0.69363  0.14133  1.0000
  C   C636      1.0  0.36385  0.96290  0.31875  1.0000
  H   H495      1.0  0.04384  0.67178  0.27049  1.0000
  H   H496      1.0  0.40098  0.56685  0.26830  1.0000
  C   C637      1.0  0.01837  0.53561  0.08419  1.0000
  C   C638      1.0  0.12850  0.72407  0.28391  1.0000
  C   C639      1.0  0.11534  0.54956  0.09020  1.0000
  H   H497      1.0  0.12588  0.83967  0.31020  1.0000
  C   C640      1.0  0.28428  0.95564  0.30127  1.0000
  C   C641      1.0  0.23950  0.79941  0.23716  1.0000
  C   C642      1.0  0.30683  0.70301  0.31227  1.0000
  H   H498      1.0  0.36478  0.53681  0.27331  1.0000
  H   H499      1.0  0.03080  0.83551  0.11798  1.0000
  C   C643      1.0  0.24899  0.79199  0.31257  1.0000
  H   H500      1.0  0.05970  0.98048  0.05887  1.0000
  C   C644      1.0  0.00536  0.85918  0.24103  1.0000
  C   C645      1.0  0.23669  0.81985  0.24970  1.0000
  H   H501      1.0  0.34431  0.62981  0.25564  1.0000
  H   H502      1.0  0.31143  0.68682  0.28553  1.0000
  H   H503      1.0  0.30355  0.68410  0.31842  1.0000
  H   H504      1.0  0.23923  0.70210  0.21496  1.0000
  C   C646      1.0  0.06211  0.58914  0.16689  1.0000
  H   H505      1.0  0.08797  0.75655  0.26416  1.0000
  C   C647      1.0  0.19287  0.71006  0.30811  1.0000
  C   C648      1.0  0.37202  0.93735  0.28553  1.0000
  C   C649      1.0  0.03660  0.57443  0.09739  1.0000
  H   H506      1.0  0.25810  0.93157  0.31655  1.0000
  H   H507      1.0  0.27508  0.70057  0.26758  1.0000
  C   C650      1.0  0.03858  0.69329  0.31406  1.0000
  C   C651      1.0  0.04367  0.90721  0.17959  1.0000
  C   C652      1.0  0.23728  0.77340  0.24278  1.0000
  H   H508      1.0  0.04934  0.58754  0.13907  1.0000
  C   C653      1.0  0.05979  0.70991  0.31447  1.0000
  C   C654      1.0  0.26127  0.94190  0.30400  1.0000
  C   C655      1.0  0.25503  0.70014  0.24212  1.0000
  H   H509      1.0  0.26869  0.81654  0.29322  1.0000
  H   H510      1.0  0.22868  0.83059  0.27730  1.0000
  C   C656      1.0  0.23209  0.81433  0.26792  1.0000
  H   H511      1.0  0.13769  0.76356  0.27594  1.0000
  C   C657      1.0  0.31109  0.70466  0.29361  1.0000
  C   C658      1.0  0.31353  0.74955  0.31529  1.0000
  H   H512      1.0  0.44564  0.60034  0.32421  1.0000
  C   C659      1.0  0.11875  0.73522  0.32103  1.0000
  H   H513      1.0  0.03263  0.77368  0.19169  1.0000
  H   H514      1.0  0.11622  0.70746  0.02035  1.0000
  H   H515      1.0  0.11427  0.92084  0.19704  1.0000
  C   C660      1.0  0.46204  0.60567  0.31594  1.0000
  H   H516      1.0  0.40621  0.96531  0.31962  1.0000
  C   C661      1.0  0.23326  0.76767  0.26105  1.0000
  H   H517      1.0  0.26072  0.73637  0.29527  1.0000
  C   C662      1.0  0.27414  0.56567  0.24506  1.0000
  H   H518      1.0  0.07411  0.51292  0.05866  1.0000
  C   C663      1.0  0.13599  0.69721  0.28216  1.0000
  C   C664      1.0  0.06943  0.69900  0.28315  1.0000
  H   H519      1.0  0.00982  0.59958  0.11271  1.0000
  C   C665      1.0  0.14426  0.82830  0.30798  1.0000
  C   C666      1.0  0.00368  0.87554  0.04738  1.0000
  H   H520      1.0  0.44528  0.80210  0.25214  1.0000
  C   C667      1.0  0.02195  0.81650  0.11706  1.0000
  C   C668      1.0  0.99407  0.86000  0.19284  1.0000
  H   H521      1.0  0.12533  0.68236  0.28916  1.0000
  H   H522      1.0  0.23086  0.74741  0.26485  1.0000
  H   H523      1.0  0.21248  0.67143  0.30696  1.0000
  H   H524      1.0  0.17812  0.75024  0.30721  1.0000
  C   C669      1.0  0.03811  0.75953  0.16426  1.0000
  P   P25       1.0  0.10241  0.73453  0.29928  1.0000
  C   C670      1.0  0.05126  0.76029  0.04512  1.0000
  C   C671      1.0  0.08305  0.77142  0.27431  1.0000
  H   H525      1.0  0.06878  0.79989  0.25457  1.0000
  C   C672      1.0  0.07186  0.79581  0.26885  1.0000
  H   H526      1.0  0.32877  0.90145  0.31511  1.0000
  C   C673      1.0  0.06468  0.81497  0.28176  1.0000
  H   H527      1.0  0.04983  0.77761  0.05374  1.0000
  C   C674      1.0  0.04454  0.76112  0.18270  1.0000
  H   H528      1.0  0.20211  0.81113  0.32925  1.0000
  C   C675      1.0  0.03984  0.97349  0.00947  1.0000
  C   C676      1.0  0.19536  0.73713  0.30566  1.0000
  H   H529      1.0  0.17638  0.79323  0.27489  1.0000
  C   C677      1.0  0.08793  0.76624  0.29270  1.0000
  C   C678      1.0  0.04021  0.73699  0.05061  1.0000
  C   C679      1.0  0.31334  0.51198  0.26381  1.0000
  C   C680      1.0  0.07945  0.78503  0.30571  1.0000
  H   H530      1.0  0.04929  0.93999  0.16138  1.0000
  H   H531      1.0  0.02637  0.69128  0.32595  1.0000
  C   C681      1.0  0.22660  0.57171  0.24761  1.0000
  H   H532      1.0  0.05612  0.83395  0.27738  1.0000
  C   C682      1.0  0.04263  0.71459  0.03963  1.0000
  C   C683      1.0  0.07569  0.71243  0.29909  1.0000
  H   H533      1.0  0.08091  0.49334  0.11475  1.0000
  C   C684      1.0  0.19235  0.79984  0.30176  1.0000
  H   H534      1.0  0.06052  0.94453  0.02624  1.0000
  C   C685      1.0  0.11269  0.98186  0.02270  1.0000
  H   H535      1.0  0.20994  0.55978  0.27287  1.0000
  C   C686      1.0  0.02191  0.90287  0.24271  1.0000
  H   H536      1.0  0.08138  0.78083  0.32004  1.0000
  H   H537      1.0  0.02083  0.77063  0.15925  1.0000
  H   H538      1.0  0.06956  0.59417  0.19546  1.0000
  C   C687      1.0  0.10339  0.55410  0.10701  1.0000
  C   C688      1.0  0.05500  0.59587  0.18463  1.0000
  H   H539      1.0  0.42901  0.53465  0.31477  1.0000
  H   H540      1.0  0.99928  0.69155  0.01239  1.0000
  H   H541      1.0  0.47641  0.52371  0.32113  1.0000
  H   H542      1.0  0.13155  0.77498  0.31802  1.0000
  C   C689      1.0  0.25234  0.55305  0.27264  1.0000
  C   C690      1.0  0.18742  0.81206  0.31859  1.0000
  C   C691      1.0  0.47831  0.70688  0.30761  1.0000
  C   C692      1.0  0.47765  0.75044  0.27355  1.0000
  C   C693      1.0  0.00449  0.63763  0.04343  1.0000
  H   H543      1.0  0.00346  0.60262  0.14573  1.0000
  H   H544      1.0  0.01649  0.66652  0.29784  1.0000
  C   C694      1.0  0.38944  0.95897  0.31189  1.0000
  C   C695      1.0  0.38429  0.76164  0.32527  1.0000
  C   C696      1.0  0.39353  0.94616  0.29529  1.0000
  H   H545      1.0  0.25581  0.68823  0.29896  1.0000
  C   C697      1.0  0.01216  0.58149  0.10502  1.0000
  C   C698      1.0  0.49225  0.80405  0.32401  1.0000
  C   C699      1.0  0.12087  0.71240  0.33176  1.0000
  C   C700      1.0  0.00519  0.67911  0.10676  1.0000
  H   H546      1.0  0.48541  0.84657  0.28953  1.0000
  H   H547      1.0  0.00571  0.85922  0.14734  1.0000
  H   H548      1.0  0.38171  0.78267  0.32687  1.0000
  C   C701      1.0  0.01521  0.98309  0.00286  1.0000
  H   H549      1.0  0.99491  0.84096  0.00234  1.0000
  C   C702      1.0  0.24976  0.78269  0.33053  1.0000
  H   H550      1.0  0.06361  0.72092  0.32670  1.0000
  H   H551      1.0  0.14041  0.74742  0.00198  1.0000
  C   C703      1.0  0.00035  0.88642  0.24268  1.0000
  C   C704      1.0  0.99379  0.95077  0.02119  1.0000
  H   H552      1.0  0.10879  0.98829  0.05140  1.0000
  H   H553      1.0  0.28334  0.58272  0.33210  1.0000
  C   C705      1.0  0.31837  0.90347  0.32787  1.0000
  H   H554      1.0  0.11197  0.69447  0.32738  1.0000
  H   H555      1.0  0.99408  0.87279  0.20462  1.0000
  H   H556      1.0  0.30505  0.97973  0.28238  1.0000
  H   H557      1.0  0.99931  0.67317  0.09330  1.0000
  H   H558      1.0  0.27165  0.97685  0.25804  1.0000
  C   C706      1.0  0.99968  0.76736  0.11411  1.0000
  H   H559      1.0  0.00441  0.75706  0.02025  1.0000
  C   C707      1.0  0.30507  0.98642  0.33180  1.0000
  C   C708      1.0  0.99697  0.81467  0.10926  1.0000
  C   C709      1.0  0.10246  0.50407  0.09071  1.0000
  H   H560      1.0  0.47565  0.81653  0.32854  1.0000
  H   H561      1.0  0.99383  0.96985  0.22183  1.0000
  C   C710      1.0  0.99784  0.76530  0.00740  1.0000
  C   C711      1.0  0.30647  0.92778  0.33313  1.0000
  C   C712      1.0  0.99574  0.92829  0.11358  1.0000
  H   H562      1.0  0.28793  0.49431  0.28338  1.0000
  C   C713      1.0  0.99372  0.54240  0.09199  1.0000
  Fe  Fe54      1.0  0.42729  0.84981  0.48710  1.0000
  S   S108      1.0  0.39780  0.84763  0.50945  1.0000
  S   S109      1.0  0.46886  0.83293  0.49033  1.0000
  Fe  Fe55      1.0  0.38776  0.87459  0.46062  1.0000
  S   S110      1.0  0.35451  0.87388  0.48084  1.0000
  S   S111      1.0  0.38995  0.89387  0.43296  1.0000
  Fe  Fe56      1.0  0.38401  0.88911  0.50105  1.0000
  S   S112      1.0  0.38000  0.92125  0.52326  1.0000
  Fe  Fe57      1.0  0.37134  0.83252  0.48760  1.0000
  S   S113      1.0  0.34795  0.79502  0.48962  1.0000
  S   S114      1.0  0.41593  0.89184  0.48046  1.0000
  S   S115      1.0  0.40183  0.83272  0.46576  1.0000
  Fe  Fe58      1.0  0.37833  0.63161  0.49155  1.0000
  S   S116      1.0  0.38766  0.61841  0.46304  1.0000
  S   S117      1.0  0.38938  0.67390  0.49939  1.0000
  Fe  Fe59      1.0  0.36388  0.57394  0.50261  1.0000
  S   S118      1.0  0.37092  0.55826  0.47448  1.0000
  S   S119      1.0  0.35737  0.54688  0.52703  1.0000
  Fe  Fe60      1.0  0.40700  0.58192  0.47527  1.0000
  S   S120      1.0  0.44582  0.56137  0.46798  1.0000
  Fe  Fe61      1.0  0.35071  0.59618  0.46496  1.0000
  S   S121      1.0  0.32212  0.60146  0.44153  1.0000
  S   S122      1.0  0.40114  0.59637  0.50367  1.0000
  S   S123      1.0  0.34013  0.61057  0.49318  1.0000
  S   S124      1.0  0.35977  0.83435  0.36056  1.0000
  S   S125      1.0  0.36012  0.56973  0.36218  1.0000
  C   C714      1.0  0.33378  0.59314  0.41966  1.0000
  C   C715      1.0  0.35349  0.57323  0.41702  1.0000
  C   C716      1.0  0.36158  0.56627  0.39934  1.0000
  C   C717      1.0  0.35052  0.57963  0.38425  1.0000
  C   C718      1.0  0.33133  0.60000  0.38695  1.0000
  C   C719      1.0  0.32271  0.60645  0.40457  1.0000
  H   H563      1.0  0.36198  0.56276  0.42858  1.0000
  H   H564      1.0  0.37638  0.55046  0.39735  1.0000
  H   H565      1.0  0.32253  0.61028  0.37546  1.0000
  H   H566      1.0  0.30748  0.62186  0.40655  1.0000
  C   C720      1.0  0.46906  0.58335  0.46082  1.0000
  C   C721      1.0  0.46116  0.60611  0.45120  1.0000
  H   H567      1.0  0.46456  0.51643  0.38959  1.0000
  H   H568      1.0  0.44065  0.60990  0.44764  1.0000
  H   H569      1.0  0.31005  0.54917  0.34951  1.0000
  C   C722      1.0  0.35377  0.51202  0.52681  1.0000
  C   C723      1.0  0.47661  0.67616  0.47794  1.0000
  C   C724      1.0  0.29091  0.90733  0.36061  1.0000
  C   C725      1.0  0.47844  0.76828  0.53834  1.0000
  H   H570      1.0  0.32740  0.97141  0.35504  1.0000
  C   C726      1.0  0.38208  0.87662  0.41302  1.0000
  C   C727      1.0  0.36638  0.85479  0.41352  1.0000
  C   C728      1.0  0.35958  0.84211  0.39731  1.0000
  C   C729      1.0  0.36892  0.85077  0.38056  1.0000
  C   C730      1.0  0.38505  0.87229  0.38008  1.0000
  C   C731      1.0  0.39142  0.88531  0.39626  1.0000
  H   H571      1.0  0.35893  0.84812  0.42636  1.0000
  H   H572      1.0  0.34685  0.82566  0.39775  1.0000
  H   H573      1.0  0.39224  0.87916  0.36723  1.0000
  H   H574      1.0  0.40354  0.90222  0.39579  1.0000
  C   C732      1.0  0.35990  0.76153  0.49257  1.0000
  C   C733      1.0  0.38616  0.75465  0.49719  1.0000
  C   C734      1.0  0.39444  0.72789  0.49982  1.0000
  C   C735      1.0  0.37699  0.70746  0.49711  1.0000
  C   C736      1.0  0.35067  0.71444  0.49273  1.0000
  C   C737      1.0  0.34224  0.74120  0.49050  1.0000
  H   H575      1.0  0.40003  0.76997  0.49885  1.0000
  H   H576      1.0  0.41468  0.72294  0.50354  1.0000
  H   H577      1.0  0.33649  0.69942  0.49161  1.0000
  H   H578      1.0  0.32177  0.74620  0.48723  1.0000
  C   C738      1.0  0.38172  0.96971  0.54018  1.0000
  C   C739      1.0  0.37866  0.95664  0.52350  1.0000
  H   H579      1.0  0.38557  0.95804  0.55220  1.0000
  H   H580      1.0  0.37166  0.96244  0.49496  1.0000
  H   H581      1.0  0.23551  0.76901  0.33511  1.0000
  H   H582      1.0  0.44270  0.59433  0.40981  1.0000
  C   C740      1.0  0.47743  0.66443  0.50983  1.0000
  H   H583      1.0  0.46157  0.87418  0.46366  1.0000
  C   C741      1.0  0.42900  0.73217  0.44301  1.0000
  H   H584      1.0  0.42823  0.75276  0.44680  1.0000
  C   C742      1.0  0.47995  0.62386  0.44603  1.0000
  P   P26       1.0  0.48185  0.64064  0.52791  1.0000
  H   H585      1.0  0.45946  0.88569  0.40879  1.0000
  P   P27       1.0  0.46305  0.74451  0.41474  1.0000
  C   C743      1.0  0.45465  0.90617  0.51946  1.0000
  C   C744      1.0  0.42889  0.67869  0.43397  1.0000
  C   C745      1.0  0.41563  0.68802  0.44939  1.0000
  H   H586      1.0  0.48284  0.79197  0.37728  1.0000
  C   C746      1.0  0.46535  0.62150  0.36675  1.0000
  H   H587      1.0  0.27645  0.50247  0.51075  1.0000
  C   C747      1.0  0.44743  0.98206  0.48454  1.0000
  C   C748      1.0  0.43764  0.79320  0.40604  1.0000
  C   C749      1.0  0.45792  0.85260  0.36496  1.0000
  H   H588      1.0  0.42179  0.57532  0.36564  1.0000
  H   H589      1.0  0.45935  0.96160  0.43423  1.0000
  C   C750      1.0  0.42028  0.98983  0.58637  1.0000
  H   H590      1.0  0.42857  0.65798  0.43043  1.0000
  C   C751      1.0  0.47778  0.66090  0.38251  1.0000
  H   H591      1.0  0.43545  0.92300  0.42361  1.0000
  C   C752      1.0  0.46050  0.82514  0.36618  1.0000
  H   H592      1.0  0.29710  0.97426  0.59434  1.0000
  H   H593      1.0  0.38811  0.99060  0.45104  1.0000
  H   H594      1.0  0.46833  0.71720  0.47187  1.0000
  H   H595      1.0  0.32665  0.86288  0.33505  1.0000
  C   C753      1.0  0.45055  0.63414  0.53829  1.0000
  C   C754      1.0  0.44812  0.61107  0.54853  1.0000
  C   C755      1.0  0.42353  0.60464  0.55531  1.0000
  C   C756      1.0  0.40125  0.62130  0.55208  1.0000
  C   C757      1.0  0.40361  0.64455  0.54228  1.0000
  C   C758      1.0  0.42813  0.65098  0.53542  1.0000
  H   H596      1.0  0.15838  0.73489  0.36635  1.0000
  H   H597      1.0  0.29607  0.50951  0.54103  1.0000
  C   C759      1.0  0.45215  0.81703  0.43852  1.0000
  C   C760      1.0  0.30365  0.88343  0.35555  1.0000
  C   C761      1.0  0.46859  0.71000  0.50059  1.0000
  H   H598      1.0  0.43674  0.89734  0.52389  1.0000
  H   H599      1.0  0.45712  0.61264  0.35482  1.0000
  H   H600      1.0  0.40393  0.72221  0.46508  1.0000
  C   C762      1.0  0.46952  0.74547  0.54658  1.0000
  H   H601      1.0  0.47294  0.88942  0.37344  1.0000
  C   C763      1.0  0.46100  0.55867  0.35952  1.0000
  H   H602      1.0  0.46506  0.59763  0.55084  1.0000
  H   H603      1.0  0.42155  0.58636  0.56261  1.0000
  H   H604      1.0  0.38204  0.61590  0.55681  1.0000
  H   H605      1.0  0.38624  0.65719  0.53935  1.0000
  H   H606      1.0  0.42909  0.66863  0.52735  1.0000
  C   C764      1.0  0.30455  0.93242  0.59673  1.0000
  C   C765      1.0  0.32263  0.91205  0.60182  1.0000
  C   C766      1.0  0.34744  0.91795  0.60861  1.0000
  C   C767      1.0  0.35433  0.94420  0.61009  1.0000
  C   C768      1.0  0.42435  0.53489  0.42458  1.0000
  H   H607      1.0  0.47043  0.77956  0.44572  1.0000
  C   C769      1.0  0.45236  0.77844  0.41902  1.0000
  C   C770      1.0  0.45428  0.52936  0.39921  1.0000
  C   C771      1.0  0.47028  0.90256  0.41291  1.0000
  H   H608      1.0  0.46646  0.80365  0.52346  1.0000
  C   C772      1.0  0.26872  0.79128  0.34276  1.0000
  S   S126      1.0  0.38880  0.62816  0.33929  1.0000
  C   C773      1.0  0.47084  0.70253  0.48244  1.0000
  H   H609      1.0  0.43165  0.78450  0.39338  1.0000
  C   C774      1.0  0.31698  0.88144  0.33905  1.0000
  H   H610      1.0  0.41108  0.72232  0.36093  1.0000
  H   H611      1.0  0.41214  0.52659  0.43493  1.0000
  C   C775      1.0  0.37400  0.97202  0.50794  1.0000
  C   C776      1.0  0.47659  0.73354  0.36038  1.0000
  H   H612      1.0  0.38324  0.97207  0.58208  1.0000
  C   C777      1.0  0.47468  0.60592  0.38136  1.0000
  H   H613      1.0  0.47863  0.67062  0.46387  1.0000
  P   P28       1.0  0.47452  0.97793  0.50047  1.0000
  C   C778      1.0  0.41512  0.71483  0.45359  1.0000
  H   H614      1.0  0.41749  0.73054  0.39343  1.0000
  H   H615      1.0  0.28526  0.92786  0.59158  1.0000
  H   H616      1.0  0.31738  0.89171  0.60053  1.0000
  H   H617      1.0  0.36136  0.90216  0.61267  1.0000
  H   H618      1.0  0.37354  0.94846  0.61553  1.0000
  C   C779      1.0  0.43422  0.73110  0.38438  1.0000
  C   C780      1.0  0.29202  0.92940  0.34934  1.0000
  C   C781      1.0  0.45147  0.72819  0.35387  1.0000
  C   C782      1.0  0.31621  0.98810  0.34923  1.0000
  H   H619      1.0  0.35952  0.75361  0.34805  1.0000
  H   H620      1.0  0.44705  0.81300  0.35891  1.0000
  C   C783      1.0  0.43840  0.51847  0.41242  1.0000
  H   H621      1.0  0.44770  0.94077  0.47680  1.0000
  H   H622      1.0  0.48345  0.73066  0.55205  1.0000
  H   H623      1.0  0.43203  0.85218  0.42807  1.0000
  C   C784      1.0  0.44340  0.72279  0.42792  1.0000
  S   S127      1.0  0.35738  0.69733  0.34934  1.0000
  C   C785      1.0  0.43057  0.81976  0.40925  1.0000
  C   C786      1.0  0.42258  0.55539  0.33996  1.0000
  C   C787      1.0  0.45920  0.73694  0.39102  1.0000
  H   H624      1.0  0.47938  0.68205  0.38278  1.0000
  C   C788      1.0  0.46687  0.64890  0.36737  1.0000
  C   C789      1.0  0.43302  0.78209  0.53119  1.0000
  C   C790      1.0  0.42424  0.75946  0.53950  1.0000
  H   H625      1.0  0.43562  0.72341  0.55337  1.0000
  C   C791      1.0  0.47000  0.94544  0.42741  1.0000
  Fe  Fe62      1.0  0.37821  0.84422  0.33360  1.0000
  H   H626      1.0  0.40560  0.67457  0.45810  1.0000
  H   H627      1.0  0.43019  0.97866  0.57563  1.0000
  C   C792      1.0  0.45654  0.92369  0.42142  1.0000
  H   H628      1.0  0.43523  0.94414  0.51517  1.0000
  C   C793      1.0  0.39367  0.98614  0.59004  1.0000
  C   C794      1.0  0.28722  0.80902  0.33716  1.0000
  C   C795      1.0  0.45943  0.79057  0.43535  1.0000
  H   H629      1.0  0.26918  0.78418  0.35660  1.0000
  H   H630      1.0  0.41889  0.79608  0.52498  1.0000
  H   H631      1.0  0.40331  0.75596  0.53967  1.0000
  C   C796      1.0  0.47977  0.59108  0.51201  1.0000
  H   H632      1.0  0.48409  0.63666  0.48777  1.0000
  C   C797      1.0  0.14591  0.75758  0.34288  1.0000
  C   C798      1.0  0.41712  0.96336  0.46293  1.0000
  H   H633      1.0  0.33850  0.51001  0.49963  1.0000
  H   H634      1.0  0.15585  0.77499  0.34707  1.0000
  C   C799      1.0  0.40114  0.66348  0.38440  1.0000
  C   C800      1.0  0.40397  0.63834  0.39199  1.0000
  C   C801      1.0  0.38869  0.63196  0.40687  1.0000
  C   C802      1.0  0.37009  0.65044  0.41390  1.0000
  C   C803      1.0  0.36713  0.67588  0.40640  1.0000
  C   C804      1.0  0.38293  0.68216  0.39162  1.0000
  P   P29       1.0  0.34103  0.69908  0.41383  1.0000
  C   C805      1.0  0.31698  0.70293  0.39578  1.0000
  C   C806      1.0  0.32496  0.68602  0.43349  1.0000
  C   C807      1.0  0.29796  0.68089  0.43307  1.0000
  C   C808      1.0  0.28633  0.66874  0.44782  1.0000
  C   C809      1.0  0.30154  0.66148  0.46301  1.0000
  C   C810      1.0  0.32832  0.66656  0.46349  1.0000
  C   C811      1.0  0.33992  0.67896  0.44892  1.0000
  C   C812      1.0  0.30097  0.72622  0.39445  1.0000
  C   C813      1.0  0.28129  0.72872  0.38111  1.0000
  C   C814      1.0  0.27732  0.70790  0.36915  1.0000
  C   C815      1.0  0.29301  0.68457  0.37053  1.0000
  C   C816      1.0  0.31276  0.68202  0.38381  1.0000
  C   C817      1.0  0.35452  0.73085  0.41847  1.0000
  C   C818      1.0  0.36196  0.74682  0.40398  1.0000
  C   C819      1.0  0.37210  0.77150  0.40726  1.0000
  C   C820      1.0  0.37455  0.78069  0.42503  1.0000
  C   C821      1.0  0.36665  0.76530  0.43950  1.0000
  C   C822      1.0  0.35663  0.74054  0.43628  1.0000
  H   H635      1.0  0.41212  0.66819  0.37238  1.0000
  H   H636      1.0  0.41724  0.62348  0.38599  1.0000
  H   H637      1.0  0.39037  0.61230  0.41252  1.0000
  H   H638      1.0  0.35749  0.64419  0.42468  1.0000
  H   H639      1.0  0.38024  0.70098  0.38497  1.0000
  H   H640      1.0  0.28587  0.68557  0.42130  1.0000
  H   H641      1.0  0.26570  0.66421  0.44729  1.0000
  H   H642      1.0  0.29277  0.65134  0.47421  1.0000
  H   H643      1.0  0.34029  0.66059  0.47508  1.0000
  H   H644      1.0  0.36076  0.68227  0.44947  1.0000
  H   H645      1.0  0.30347  0.74233  0.40385  1.0000
  H   H646      1.0  0.26901  0.74671  0.38020  1.0000
  H   H647      1.0  0.26212  0.70977  0.35880  1.0000
  H   H648      1.0  0.28995  0.66841  0.36130  1.0000
  H   H649      1.0  0.32465  0.66373  0.38470  1.0000
  H   H650      1.0  0.35930  0.74058  0.39007  1.0000
  H   H651      1.0  0.37748  0.78380  0.39599  1.0000
  H   H652      1.0  0.38201  0.80000  0.42761  1.0000
  H   H653      1.0  0.36789  0.77277  0.45326  1.0000
  H   H654      1.0  0.35023  0.72948  0.44781  1.0000
  H   H655      1.0  0.45281  0.68841  0.41137  1.0000
  C   C823      1.0  0.43848  0.96027  0.47493  1.0000
  H   H656      1.0  0.41932  0.83112  0.39917  1.0000
  C   C824      1.0  0.43046  0.72662  0.36591  1.0000
  H   H657      1.0  0.47392  0.64128  0.43841  1.0000
  C   C825      1.0  0.43782  0.83168  0.42547  1.0000
  H   H658      1.0  0.30339  0.86643  0.36442  1.0000
  H   H659      1.0  0.45924  0.59639  0.50909  1.0000
  C   C826      1.0  0.14741  0.73498  0.35370  1.0000
  H   H660      1.0  0.13647  0.69470  0.35635  1.0000
  C   C827      1.0  0.44261  0.69601  0.42322  1.0000
  H   H661      1.0  0.45746  0.82622  0.45121  1.0000
  H   H662      1.0  0.47862  0.87011  0.52146  1.0000
  H   H663      1.0  0.44278  0.86193  0.35634  1.0000
  H   H664      1.0  0.47013  0.69703  0.52822  1.0000
  H   H665      1.0  0.44809  0.72553  0.33947  1.0000
  C   C828      1.0  0.48963  0.56557  0.50795  1.0000
  C   C829      1.0  0.47600  0.54328  0.34707  1.0000
  S   S128      1.0  0.32265  0.63175  0.33848  1.0000
  C   C830      1.0  0.44203  0.57315  0.41038  1.0000
  C   C831      1.0  0.47665  0.94411  0.50797  1.0000
  H   H666      1.0  0.30213  0.81551  0.34656  1.0000
  C   C832      1.0  0.44248  0.74117  0.54722  1.0000
  C   C833      1.0  0.45656  0.55677  0.39827  1.0000
  C   C834      1.0  0.48205  0.87267  0.46764  1.0000
  Fe  Fe63      1.0  0.35566  0.60054  0.34015  1.0000
  H   H667      1.0  0.40972  0.94628  0.45604  1.0000
  C   C835      1.0  0.13499  0.71237  0.34810  1.0000
  H   H668      1.0  0.48111  0.64487  0.56797  1.0000
  H   H669      1.0  0.46124  0.50480  0.65513  1.0000
  C   C836      1.0  0.48556  0.61817  0.39655  1.0000
  C   C837      1.0  0.46001  0.78641  0.53048  1.0000
  H   H670      1.0  0.41490  0.57476  0.43286  1.0000
  C   C838      1.0  0.47201  0.69106  0.51421  1.0000
  C   C839      1.0  0.47502  0.86816  0.37471  1.0000
  C   C840      1.0  0.48053  0.73781  0.37895  1.0000
  C   C841      1.0  0.31139  0.95868  0.59820  1.0000
  H   H671      1.0  0.36728  0.50720  0.55440  1.0000
  C   C842      1.0  0.45385  0.93271  0.51443  1.0000
  H   H672      1.0  0.49002  0.53262  0.63691  1.0000
  C   C843      1.0  0.34349  0.49899  0.51182  1.0000
  C   C844      1.0  0.33660  0.96470  0.60442  1.0000
  C   C845      1.0  0.47826  0.89093  0.51824  1.0000
  H   H673      1.0  0.43678  0.49732  0.41317  1.0000
  H   H674      1.0  0.46424  0.73050  0.50409  1.0000
  C   C846      1.0  0.42599  0.56218  0.42343  1.0000
  C   C847      1.0  0.43402  0.56415  0.35603  1.0000
  H   H675      1.0  0.45967  0.66079  0.35602  1.0000
  H   H676      1.0  0.47670  0.55160  0.50187  1.0000
  P   P30       1.0  0.47559  0.57038  0.38022  1.0000
  C   C848      1.0  0.48062  0.81320  0.37671  1.0000
  C   C849      1.0  0.48688  0.64557  0.39719  1.0000
  H   H677      1.0  0.33498  0.98617  0.56827  1.0000
  C   C850      1.0  0.37188  0.74516  0.33739  1.0000
  H   H678      1.0  0.28037  0.90878  0.37334  1.0000
  C   C851      1.0  0.35965  0.49731  0.54264  1.0000
  C   C852      1.0  0.47979  0.65703  0.49155  1.0000
  H   H679      1.0  0.28172  0.94763  0.35337  1.0000
  H   H680      1.0  0.30625  0.72390  0.33769  1.0000
  C   C853      1.0  0.40500  0.98833  0.46006  1.0000
  H   H681      1.0  0.15994  0.83612  0.33451  1.0000
  Fe  Fe64      1.0  0.35603  0.65851  0.33522  1.0000
  H   H682      1.0  0.40188  0.56006  0.33717  1.0000
  C   C854      1.0  0.37475  0.71785  0.33529  1.0000
  H   H683      1.0  0.49004  0.81928  0.55376  1.0000
  C   C855      1.0  0.49108  0.85341  0.48000  1.0000
  H   H684      1.0  0.49290  0.73462  0.35097  1.0000
  H   H685      1.0  0.49240  0.90522  0.45105  1.0000
  C   C856      1.0  0.28491  0.49217  0.53852  1.0000
  C   C857      1.0  0.47979  0.49655  0.64984  1.0000
  C   C858      1.0  0.30901  0.54789  0.33484  1.0000
  H   H686      1.0  0.49172  0.58879  0.33403  1.0000
  H   H687      1.0  0.08189  0.96454  0.94926  1.0000
  C   C859      1.0  0.44140  0.96058  0.77125  1.0000
  C   C860      1.0  0.12580  0.67838  0.97207  1.0000
  H   H688      1.0  0.15350  0.65036  0.98471  1.0000
  H   H689      1.0  0.99987  0.96819  0.89141  1.0000
  C   C861      1.0  0.05945  0.74190  0.97742  1.0000
  C   C862      1.0  0.05311  0.98438  0.96656  1.0000
  C   C863      1.0  0.13950  0.94702  0.96790  1.0000
  C   C864      1.0  0.17278  0.97985  0.96887  1.0000
  H   H690      1.0  0.09813  0.70886  0.96313  1.0000
  H   H691      1.0  0.42922  0.93428  0.79217  1.0000
  H   H692      1.0  0.01749  0.80864  0.97565  1.0000
  H   H693      1.0  0.45131  0.99119  0.75279  1.0000
  C   C865      1.0  0.17279  0.94511  0.99152  1.0000
  C   C866      1.0  0.07306  0.98336  0.95352  1.0000
  C   C867      1.0  0.44132  0.98672  0.76529  1.0000
  H   H694      1.0  0.40788  0.97003  0.81077  1.0000
  H   H695      1.0  0.01306  0.65326  0.99344  1.0000
  H   H696      1.0  0.12854  0.67006  0.95863  1.0000
  C   C868      1.0  0.13990  0.66727  0.98672  1.0000
  C   C869      1.0  0.15052  0.93501  0.98339  1.0000
  C   C870      1.0  0.10469  0.71100  0.99219  1.0000
  C   C871      1.0  0.41706  0.97466  0.79801  1.0000
  C   C872      1.0  0.04654  0.75607  0.94700  1.0000
  H   H697      1.0  0.20134  0.97484  0.99069  1.0000
  H   H698      1.0  0.03293  0.71539  0.99004  1.0000
  H   H699      1.0  0.07056  0.79650  0.98968  1.0000
  H   H700      1.0  0.21760  0.96052  0.94986  1.0000
  H   H701      1.0  0.01031  0.74123  0.93671  1.0000
  H   H702      1.0  0.08232  0.76658  0.96014  1.0000
  C   C873      1.0  0.00562  0.79419  0.98208  1.0000
  C   C874      1.0  0.03681  0.72716  0.97827  1.0000
  H   H703      1.0  0.05059  0.76690  0.93476  1.0000
  H   H704      1.0  0.12214  0.93918  0.96176  1.0000
  C   C875      1.0  0.15044  0.96948  0.96070  1.0000
  C   C876      1.0  0.02391  0.74155  0.94807  1.0000
  C   C877      1.0  0.06438  0.75607  0.96153  1.0000
  H   H705      1.0  0.45110  0.94503  0.76327  1.0000
  H   H706      1.0  0.29746  0.98474  0.95082  1.0000
  C   C878      1.0  0.42914  0.95453  0.78755  1.0000
  H   H707      1.0  0.04649  0.96611  0.97205  1.0000
  H   H708      1.0  0.01756  0.97231  0.92274  1.0000
  C   C879      1.0  0.10842  0.70031  0.97473  1.0000
  C   C880      1.0  0.01911  0.72703  0.96367  1.0000
  H   H709      1.0  0.26530  0.95011  0.94603  1.0000
  H   H710      1.0  0.09716  0.83583  0.99126  1.0000
  C   C881      1.0  0.18409  0.96723  0.98418  1.0000
  C   C882      1.0  0.25840  0.96987  0.94986  1.0000
  H   H711      1.0  0.14136  0.97865  0.94887  1.0000
  C   C883      1.0  0.23138  0.97583  0.95211  1.0000
  C   C884      1.0  0.10345  0.76879  0.99524  1.0000
  C   C885      1.0  0.09154  0.79400  0.99218  1.0000
  C   C886      1.0  0.10655  0.81634  0.99294  1.0000
  H   H712      1.0  0.11605  0.98272  0.99359  1.0000
  H   H713      1.0  0.14144  0.91826  0.98944  1.0000
  P   P31       1.0  0.08349  0.74022  0.99563  1.0000
  H   H714      1.0  0.00182  0.71542  0.96442  1.0000
  C   C887      1.0  0.99552  0.66524  0.98984  1.0000
  C   C888      1.0  0.99948  0.98725  0.89805  1.0000
  C   C889      1.0  0.14566  0.78869  0.99939  1.0000
  C   C890      1.0  0.13067  0.76634  0.99892  1.0000
  H   H715      1.0  0.14512  0.83100  0.99789  1.0000
  C   C891      1.0  0.13360  0.81367  0.99657  1.0000
  C   C892      1.0  0.00948  0.98955  0.91564  1.0000
  C   C893      1.0  0.01286  0.78421  0.99913  1.0000
  C   C894      1.0  0.27652  0.98937  0.95255  1.0000
  S   S129      1.0  0.85083  0.05980  0.02062  1.0000
  H   H716      1.0  0.86644  0.24771  0.04753  1.0000
  H   H717      1.0  0.79515  0.22539  0.07316  1.0000
  H   H718      1.0  0.90397  0.04276  0.04390  1.0000
  H   H719      1.0  0.88428  0.45470  0.04793  1.0000
  C   C895      1.0  0.82289  0.12231  0.03949  1.0000
  C   C896      1.0  0.81602  0.24082  0.03079  1.0000
  C   C897      1.0  0.95103  0.37877  0.07707  1.0000
  H   H720      1.0  0.92360  0.17415  0.02285  1.0000
  C   C898      1.0  0.85314  0.01214  0.03887  1.0000
  C   C899      1.0  0.98562  0.44580  0.10516  1.0000
  H   H721      1.0  0.85597  0.02404  0.05083  1.0000
  S   S130      1.0  0.83948  0.43377  0.01762  1.0000
  H   H722      1.0  0.91024  0.25640  0.03520  1.0000
  H   H723      1.0  0.93144  0.35864  0.03846  1.0000
  H   H724      1.0  0.96901  0.37373  0.01581  1.0000
  C   C900      1.0  0.91059  0.36275  0.04093  1.0000
  C   C901      1.0  0.91682  0.42724  0.01628  1.0000
  H   H725      1.0  0.84818  0.18063  0.12739  1.0000
  P   P32       1.0  0.92470  0.41244  0.05245  1.0000
  H   H726      1.0  0.85207  0.33367  0.03532  1.0000
  H   H727      1.0  0.84421  0.14256  0.05990  1.0000
  H   H728      1.0  0.86605  0.41153  0.05417  1.0000
  C   C902      1.0  0.95363  0.39470  0.06168  1.0000
  C   C903      1.0  0.91110  0.19013  0.02833  1.0000
  C   C904      1.0  0.87405  0.39252  0.04972  1.0000
  C   C905      1.0  0.90857  0.45765  0.09779  1.0000
  H   H729      1.0  0.87856  0.21211  0.07827  1.0000
  C   C906      1.0  0.91086  0.43691  0.06804  1.0000
  H   H730      1.0  0.90002  0.32447  0.03135  1.0000
  C   C907      1.0  0.90136  0.38744  0.04766  1.0000
  H   H731      1.0  0.93551  0.42545  0.09110  1.0000
  C   C908      1.0  0.96155  0.06613  0.05998  1.0000
  C   C909      1.0  0.95221  0.44803  0.03204  1.0000
  P   P33       1.0  0.83783  0.19909  0.05141  1.0000
  C   C910      1.0  0.94052  0.00053  0.11315  1.0000
  C   C911      1.0  0.93618  0.00536  0.08047  1.0000
  C   C912      1.0  0.84621  0.18423  0.11295  1.0000
  H   H732      1.0  0.93216  0.37808  0.08385  1.0000
  H   H733      1.0  0.89564  0.08966  0.03678  1.0000
  C   C913      1.0  0.91408  0.08315  0.04327  1.0000
  H   H734      1.0  0.82809  0.10291  0.04496  1.0000
  C   C914      1.0  0.93290  0.10137  0.04757  1.0000
  C   C915      1.0  0.98503  0.00254  0.05853  1.0000
  S   S131      1.0  0.87014  0.12916  0.00523  1.0000
  C   C916      1.0  0.85056  0.02456  0.02182  1.0000
  C   C917      1.0  0.97248  0.36296  0.08345  1.0000
  H   H735      1.0  0.82700  0.47373  0.04435  1.0000
  H   H736      1.0  0.86457  0.48810  0.06882  1.0000
  H   H737      1.0  0.93543  0.02248  0.02051  1.0000
  H   H738      1.0  0.92922  0.12200  0.04417  1.0000
  C   C918      1.0  0.91985  0.43861  0.08603  1.0000
  C   C919      1.0  0.82570  0.17000  0.04061  1.0000
  C   C920      1.0  0.86579  0.34845  0.03915  1.0000
  C   C921      1.0  0.91974  0.21581  0.02829  1.0000
  C   C922      1.0  0.89116  0.45523  0.06186  1.0000
  C   C923      1.0  0.91442  0.99299  0.11415  1.0000
  H   H739      1.0  0.76546  0.26429  0.06739  1.0000
  C   C924      1.0  0.95132  0.00693  0.09639  1.0000
  C   C925      1.0  0.94334  0.04752  0.05482  1.0000
  C   C926      1.0  0.93190  0.43025  0.03206  1.0000
  C   C927      1.0  0.97785  0.39378  0.05246  1.0000
  C   C928      1.0  0.95871  0.46097  0.01608  1.0000
  H   H740      1.0  0.97023  0.35053  0.09521  1.0000
  H   H741      1.0  0.83532  0.37755  0.04647  1.0000
  C   C929      1.0  0.88626  0.18504  0.03528  1.0000
  C   C930      1.0  0.83194  0.14487  0.04791  1.0000
  P   P34       1.0  0.95031  0.01267  0.05872  1.0000
  C   C931      1.0  0.86963  0.20573  0.04194  1.0000
  H   H742      1.0  0.91529  0.45871  0.11172  1.0000
  C   C932      1.0  0.90362  0.23644  0.03534  1.0000
  C   C933      1.0  0.84644  0.46798  0.01862  1.0000
  C   C934      1.0  0.83773  0.48308  0.03370  1.0000
  C   C935      1.0  0.82168  0.18032  0.08489  1.0000
  C   C936      1.0  0.91906  0.05642  0.04716  1.0000
  H   H743      1.0  0.96341  0.45134  0.04424  1.0000
  H   H744      1.0  0.88275  0.20390  0.11105  1.0000
  C   C937      1.0  0.84122  0.19339  0.07552  1.0000
  C   C938      1.0  0.89289  0.34325  0.03693  1.0000
  C   C939      1.0  0.82421  0.17574  0.10352  1.0000
  H   H745      1.0  0.80162  0.10695  0.01680  1.0000
  C   C940      1.0  0.93546  0.99273  0.04157  1.0000
  H   H746      1.0  0.80910  0.16556  0.11066  1.0000
  C   C941      1.0  0.85639  0.37311  0.04543  1.0000
  C   C942      1.0  0.79928  0.26308  0.02770  1.0000
  H   H747      1.0  0.90014  0.41486  0.01621  1.0000
  C   C943      1.0  0.81501  0.22700  0.04722  1.0000
  C   C944      1.0  0.92326  0.44023  0.00034  1.0000
  C   C945      1.0  0.86323  0.20195  0.08510  1.0000
  C   C946      1.0  0.97802  0.48739  0.08917  1.0000
  H   H748      1.0  0.88010  0.16498  0.03531  1.0000
  C   C947      1.0  0.87994  0.47421  0.07365  1.0000
  H   H749      1.0  0.95244  0.00127  0.12536  1.0000
  C   C948      1.0  0.92993  0.00291  0.02419  1.0000
  H   H750      1.0  0.80448  0.17366  0.07777  1.0000
  C   C949      1.0  0.81086  0.17205  0.02451  1.0000
  C   C950      1.0  0.87868  0.23145  0.04219  1.0000
  H   H751      1.0  0.93891  0.21968  0.02272  1.0000
  H   H752      1.0  0.96630  0.47999  0.11689  1.0000
  C   C951      1.0  0.79654  0.23557  0.06039  1.0000
  C   C952      1.0  0.86568  0.19733  0.10374  1.0000
  H   H753      1.0  0.98029  0.40446  0.03998  1.0000
  C   C953      1.0  0.88846  0.47526  0.09164  1.0000
  H   H754      1.0  0.89720  0.99858  0.06970  1.0000
  C   C954      1.0  0.78107  0.27153  0.04088  1.0000
  C   C955      1.0  0.90961  0.99896  0.08170  1.0000
  C   C956      1.0  0.95644  0.09292  0.05618  1.0000
  C   C957      1.0  0.84668  0.00879  0.00653  1.0000
  C   C958      1.0  0.80791  0.12456  0.02359  1.0000
  C   C959      1.0  0.99047  0.47602  0.07385  1.0000
  C   C960      1.0  0.77963  0.25772  0.05718  1.0000
  H   H755      1.0  0.98368  0.43404  0.11728  1.0000
  H   H756      1.0  0.97155  0.01280  0.09587  1.0000
  C   C961      1.0  0.80200  0.14941  0.01607  1.0000
  H   H757      1.0  0.96650  0.08621  0.01654  1.0000
  H   H758      1.0  0.97088  0.10712  0.05972  1.0000
  H   H759      1.0  0.79119  0.15113  0.00336  1.0000
  H   H760      1.0  0.97499  0.47398  0.01598  1.0000
  H   H761      1.0  0.80039  0.99667  0.15661  1.0000
  C   C962      1.0  0.89892  0.99240  0.09844  1.0000
  H   H762      1.0  0.80658  0.19093  0.01810  1.0000
  H   H763      1.0  0.87942  0.48974  0.10080  1.0000
  H   H764      1.0  0.93335  0.49041  0.06505  1.0000
  H   H765      1.0  0.99257  0.48739  0.06156  1.0000
  H   H766      1.0  0.82990  0.23450  0.02039  1.0000
  C   C963      1.0  0.86017  0.48050  0.00494  1.0000
  H   H767      1.0  0.76813  0.28881  0.03842  1.0000
  C   C964      1.0  0.97578  0.47203  0.10487  1.0000
  C   C965      1.0  0.98674  0.05191  0.00494  1.0000
  H   H768      1.0  0.80059  0.27386  0.01509  1.0000
  C   C966      1.0  0.97136  0.38135  0.00228  1.0000
  H   H769      1.0  0.88562  0.25123  0.00065  1.0000
  C   C967      1.0  0.98549  0.07620  0.01390  1.0000
  H   H770      1.0  0.97978  0.06004  0.06681  1.0000
  H   H771      1.0  0.79594  0.48352  0.00077  1.0000
  H   H772      1.0  0.96850  0.04302  0.00136  1.0000
  C   C968      1.0  0.94450  0.45674  0.00016  1.0000
  Fe  Fe65      1.0  0.61354  0.11136  0.54958  1.0000
  S   S132      1.0  0.60281  0.10572  0.57895  1.0000
  S   S133      1.0  0.60872  0.08212  0.52598  1.0000
  Fe  Fe66      1.0  0.62749  0.16992  0.55582  1.0000
  S   S134      1.0  0.61805  0.16809  0.58524  1.0000
  S   S135      1.0  0.64410  0.20574  0.54182  1.0000
  Fe  Fe67      1.0  0.63876  0.12825  0.58516  1.0000
  S   S136      1.0  0.66566  0.12123  0.60927  1.0000
  Fe  Fe68      1.0  0.58278  0.14609  0.57699  1.0000
  S   S137      1.0  0.54532  0.16005  0.59115  1.0000
  S   S138      1.0  0.65141  0.13119  0.55602  1.0000
  S   S139      1.0  0.59040  0.15056  0.54718  1.0000
  Fe  Fe69      1.0  0.64123  0.36586  0.55483  1.0000
  S   S140      1.0  0.62942  0.36514  0.58392  1.0000
  S   S141      1.0  0.65956  0.33015  0.53994  1.0000
  Fe  Fe70      1.0  0.61895  0.42363  0.54880  1.0000
  S   S142      1.0  0.60534  0.42666  0.57777  1.0000
  S   S143      1.0  0.60650  0.45228  0.52550  1.0000
  Fe  Fe71      1.0  0.64385  0.40599  0.58567  1.0000
  S   S144      1.0  0.66052  0.42007  0.61244  1.0000
  Fe  Fe72      1.0  0.59215  0.38571  0.57441  1.0000
  S   S145      1.0  0.55664  0.37084  0.58788  1.0000
  S   S146      1.0  0.65925  0.40580  0.55679  1.0000
  S   S147      1.0  0.60239  0.38344  0.54503  1.0000
  C   C969      1.0  0.65456  0.40055  0.63180  1.0000
  C   C970      1.0  0.65164  0.41236  0.64899  1.0000
  C   C971      1.0  0.67729  0.23341  0.65747  1.0000
  C   C972      1.0  0.67893  0.03500  0.51142  1.0000
  C   C973      1.0  0.64934  0.35779  0.64579  1.0000
  C   C974      1.0  0.65353  0.37315  0.63035  1.0000
  H   H773      1.0  0.51159  0.38756  0.64705  1.0000
  C   C975      1.0  0.65296  0.24687  0.65380  1.0000
  H   H774      1.0  0.64881  0.33662  0.64451  1.0000
  H   H775      1.0  0.65681  0.36368  0.61740  1.0000
  C   C976      1.0  0.52119  0.33218  0.46025  1.0000
  H   H776      1.0  0.65318  0.48038  0.62748  1.0000
  C   C977      1.0  0.58535  0.26155  0.62227  1.0000
  C   C978      1.0  0.72578  0.10447  0.66124  1.0000
  H   H777      1.0  0.65699  0.47160  0.49351  1.0000
  C   C979      1.0  0.62388  0.10010  0.66167  1.0000
  C   C980      1.0  0.53551  0.35907  0.57159  1.0000
  C   C981      1.0  0.53510  0.36970  0.55418  1.0000
  C   C982      1.0  0.52813  0.47532  0.63656  1.0000
  H   H778      1.0  0.54778  0.38537  0.55076  1.0000
  C   C983      1.0  0.64800  0.11484  0.62915  1.0000
  C   C984      1.0  0.65540  0.12603  0.64568  1.0000
  C   C985      1.0  0.52588  0.41080  0.50085  1.0000
  H   H779      1.0  0.62263  0.22155  0.50730  1.0000
  C   C986      1.0  0.61617  0.08936  0.64507  1.0000
  C   C987      1.0  0.62773  0.09717  0.62882  1.0000
  H   H780      1.0  0.67083  0.13996  0.64600  1.0000
  C   C988      1.0  0.73806  0.14998  0.66052  1.0000
  H   H781      1.0  0.60147  0.07465  0.64479  1.0000
  H   H782      1.0  0.62190  0.08845  0.61613  1.0000
  C   C989      1.0  0.64728  0.24062  0.54295  1.0000
  C   C990      1.0  0.66082  0.25208  0.52872  1.0000
  C   C991      1.0  0.66401  0.27932  0.52816  1.0000
  C   C992      1.0  0.65383  0.29596  0.54184  1.0000
  C   C993      1.0  0.64052  0.28475  0.55639  1.0000
  C   C994      1.0  0.63719  0.25714  0.55693  1.0000
  H   H783      1.0  0.66897  0.23975  0.51793  1.0000
  H   H784      1.0  0.67462  0.28758  0.51700  1.0000
  H   H785      1.0  0.63330  0.29724  0.56735  1.0000
  H   H786      1.0  0.62755  0.24882  0.56841  1.0000
  C   C995      1.0  0.52049  0.13735  0.59080  1.0000
  H   H787      1.0  0.62579  0.43900  0.48294  1.0000
  C   C996      1.0  0.52682  0.11044  0.58866  1.0000
  C   C997      1.0  0.62265  0.28926  0.62526  1.0000
  H   H788      1.0  0.54715  0.10343  0.58728  1.0000
  C   C998      1.0  0.61359  0.04710  0.52429  1.0000
  C   C999      1.0  0.60780  0.03458  0.50776  1.0000
  C   C1000     1.0  0.62401  0.03166  0.53855  1.0000
  H   H789      1.0  0.59964  0.04628  0.49665  1.0000
  H   H790      1.0  0.62844  0.04094  0.55133  1.0000
  H   H791      1.0  0.60106  0.20031  0.61461  1.0000
  C   C1001     1.0  0.69047  0.05145  0.60223  1.0000
  C   C1002     1.0  0.76414  0.10557  0.57072  1.0000
  C   C1003     1.0  0.70113  0.04048  0.54610  1.0000
  H   H792      1.0  0.63291  0.03192  0.62014  1.0000
  C   C1004     1.0  0.57554  0.40869  0.62482  1.0000
  H   H793      1.0  0.52124  0.09284  0.62688  1.0000
  H   H794      1.0  0.61407  0.45792  0.61710  1.0000
  C   C1005     1.0  0.68754  0.20662  0.58886  1.0000
  H   H795      1.0  0.68348  0.24608  0.57832  1.0000
  C   C1006     1.0  0.68897  0.03978  0.58499  1.0000
  C   C1007     1.0  0.52090  0.21314  0.63060  1.0000
  C   C1008     1.0  0.57646  0.21905  0.56199  1.0000
  C   C1009     1.0  0.51600  0.01075  0.49330  1.0000
  H   H796      1.0  0.71582  0.08769  0.63539  1.0000
  H   H797      1.0  0.49537  0.26007  0.65946  1.0000
  H   H798      1.0  0.52721  0.43083  0.56802  1.0000
  H   H799      1.0  0.51669  0.36945  0.52805  1.0000
  H   H800      1.0  0.56342  0.21950  0.58964  1.0000
  H   H801      1.0  0.52294  0.16114  0.55412  1.0000
  C   C1010     1.0  0.70381  0.99988  0.39711  1.0000
  H   H802      1.0  0.70416  0.01927  0.40313  1.0000
  H   H803      1.0  0.60153  0.44608  0.45383  1.0000
  C   C1011     1.0  0.50428  0.38737  0.61854  1.0000
  H   H804      1.0  0.58792  0.48658  0.49648  1.0000
  H   H805      1.0  0.51352  0.17212  0.63144  1.0000
  C   C1012     1.0  0.72261  0.10486  0.64239  1.0000
  C   C1013     1.0  0.55053  0.00069  0.47143  1.0000
  C   C1014     1.0  0.64647  0.47478  0.48079  1.0000
  H   H806      1.0  0.76859  0.06394  0.56623  1.0000
  H   H807      1.0  0.53370  0.27410  0.52221  1.0000
  C   C1015     1.0  0.58743  0.17207  0.63353  1.0000
  C   C1016     1.0  0.56905  0.21710  0.54382  1.0000
  C   C1017     1.0  0.72768  0.07623  0.57121  1.0000
  C   C1018     1.0  0.56448  0.48398  0.57415  1.0000
  H   H808      1.0  0.65870  0.18497  0.62712  1.0000
  C   C1019     1.0  0.67043  0.04838  0.61489  1.0000
  P   P35       1.0  0.71486  0.04384  0.56862  1.0000
  H   H809      1.0  0.64680  0.38283  0.49677  1.0000
  H   H810      1.0  0.57643  0.24279  0.62359  1.0000
  C   C1020     1.0  0.53088  0.21646  0.57102  1.0000
  C   C1021     1.0  0.62885  0.45634  0.47480  1.0000
  C   C1022     1.0  0.49917  0.24083  0.65335  1.0000
  H   H811      1.0  0.68941  0.09533  0.57662  1.0000
  H   H812      1.0  0.62758  0.30172  0.49517  1.0000
  C   C1023     1.0  0.55741  0.21911  0.57556  1.0000
  H   H813      1.0  0.66972  0.07680  0.51284  1.0000
  C   C1024     1.0  0.62949  0.00432  0.53605  1.0000
  H   H814      1.0  0.56276  0.32376  0.46429  1.0000
  C   C1025     1.0  0.72714  0.12770  0.63261  1.0000
  C   C1026     1.0  0.58683  0.16416  0.65162  1.0000
  C   C1027     1.0  0.50647  0.39391  0.49529  1.0000
  H   H815      1.0  0.70603  0.13981  0.57904  1.0000
  H   H816      1.0  0.75387  0.14677  0.57531  1.0000
  H   H817      1.0  0.60751  0.48646  0.43591  1.0000
  C   C1028     1.0  0.69015  0.06259  0.53684  1.0000
  H   H818      1.0  0.56403  0.44176  0.66442  1.0000
  H   H819      1.0  0.55291  0.07930  0.65133  1.0000
  H   H820      1.0  0.52487  0.25506  0.63285  1.0000
  C   C1029     1.0  0.50164  0.12348  0.64281  1.0000
  C   C1030     1.0  0.60048  0.19463  0.62871  1.0000
  C   C1031     1.0  0.59897  0.17902  0.66493  1.0000
  H   H821      1.0  0.51001  0.38117  0.48372  1.0000
  C   C1032     1.0  0.73498  0.15023  0.64166  1.0000
  H   H822      1.0  0.51298  0.31372  0.51076  1.0000
  H   H823      1.0  0.53629  0.44083  0.51980  1.0000
  H   H824      1.0  0.53078  0.42995  0.60138  1.0000
  H   H825      1.0  0.64591  0.00736  0.45601  1.0000
  H   H826      1.0  0.73014  0.01006  0.59987  1.0000
  P   P36       1.0  0.63254  0.23670  0.63509  1.0000
  H   H827      1.0  0.60763  0.26641  0.51683  1.0000
  H   H828      1.0  0.70692  0.06322  0.60583  1.0000
  C   C1033     1.0  0.56742  0.42946  0.63634  1.0000
  P   P37       1.0  0.55896  0.46191  0.62749  1.0000
  C   C1034     1.0  0.61201  0.20167  0.66016  1.0000
  H   H829      1.0  0.51674  0.21467  0.58182  1.0000
  H   H830      1.0  0.52339  0.33768  0.44616  1.0000
  H   H831      1.0  0.58939  0.36820  0.62287  1.0000
  H   H832      1.0  0.54443  0.41111  0.49364  1.0000
  C   C1035     1.0  0.51888  0.33903  0.57606  1.0000
  C   C1036     1.0  0.50219  0.12905  0.54315  1.0000
  C   C1037     1.0  0.75472  0.08022  0.56914  1.0000
  C   C1038     1.0  0.58331  0.37996  0.65066  1.0000
  C   C1039     1.0  0.74361  0.00554  0.58884  1.0000
  C   C1040     1.0  0.54254  0.21459  0.53919  1.0000
  C   C1041     1.0  0.60740  0.31058  0.61828  1.0000
  C   C1042     1.0  0.58113  0.30749  0.61335  1.0000
  C   C1043     1.0  0.57009  0.28302  0.61537  1.0000
  C   C1044     1.0  0.65422  0.22511  0.61699  1.0000
  C   C1045     1.0  0.71035  0.09793  0.57496  1.0000
  H   H833      1.0  0.65260  0.43350  0.65030  1.0000
  H   H834      1.0  0.68943  0.08194  0.54297  1.0000
  H   H835      1.0  0.59709  0.21937  0.56556  1.0000
  H   H836      1.0  0.67139  0.05792  0.62802  1.0000
  C   C1046     1.0  0.61297  0.00717  0.50534  1.0000
  C   C1047     1.0  0.49666  0.38594  0.63663  1.0000
  H   H837      1.0  0.49388  0.44149  0.53571  1.0000
  H   H838      1.0  0.52752  0.26803  0.55500  1.0000
  C   C1048     1.0  0.61186  0.26447  0.62718  1.0000
  C   C1049     1.0  0.54344  0.32434  0.47056  1.0000
  H   H839      1.0  0.51684  0.11431  0.54785  1.0000
  C   C1050     1.0  0.53822  0.09517  0.65362  1.0000
  C   C1051     1.0  0.67912  0.05982  0.51958  1.0000
  C   C1052     1.0  0.64605  0.36955  0.66291  1.0000
  C   C1053     1.0  0.64719  0.02183  0.59340  1.0000
  H   H840      1.0  0.68797  0.16929  0.60256  1.0000
  H   H841      1.0  0.61613  0.32945  0.61651  1.0000
  H   H842      1.0  0.56942  0.32405  0.60783  1.0000
  H   H843      1.0  0.68828  0.99342  0.51460  1.0000
  C   C1054     1.0  0.66735  0.02465  0.58077  1.0000
  H   H844      1.0  0.66053  0.33551  0.49399  1.0000
  H   H845      1.0  0.54904  0.03495  0.48873  1.0000
  C   C1055     1.0  0.71976  0.12324  0.57640  1.0000
  H   H846      1.0  0.50759  0.02412  0.50339  1.0000
  C   C1056     1.0  0.49614  0.33295  0.46810  1.0000
  C   C1057     1.0  0.51720  0.36098  0.54137  1.0000
  H   H847      1.0  0.51975  0.33037  0.58945  1.0000
  C   C1058     1.0  0.64723  0.39695  0.66450  1.0000
  C   C1059     1.0  0.67139  0.06781  0.43300  1.0000
  C   C1060     1.0  0.65126  0.08187  0.42361  1.0000
  C   C1061     1.0  0.63378  0.06848  0.41265  1.0000
  C   C1062     1.0  0.63627  0.04100  0.41115  1.0000
  C   C1063     1.0  0.65619  0.02669  0.42076  1.0000
  C   C1064     1.0  0.67397  0.04035  0.43150  1.0000
  C   C1065     1.0  0.49407  0.14631  0.59271  1.0000
  H   H848      1.0  0.73814  0.16802  0.63405  1.0000
  H   H849      1.0  0.60491  0.20199  0.47935  1.0000
  C   C1066     1.0  0.51564  0.31834  0.49665  1.0000
  H   H850      1.0  0.53740  0.21225  0.52507  1.0000
  H   H851      1.0  0.64309  0.29205  0.62883  1.0000
  C   C1067     1.0  0.52321  0.21426  0.55278  1.0000
  C   C1068     1.0  0.58300  0.38396  0.63194  1.0000
  C   C1069     1.0  0.60664  0.48738  0.52279  1.0000
  C   C1070     1.0  0.52129  0.42751  0.51566  1.0000
  C   C1071     1.0  0.61325  0.20938  0.64193  1.0000
  C   C1072     1.0  0.67821  0.23292  0.58915  1.0000
  H   H852      1.0  0.66585  0.01517  0.56772  1.0000
  H   H853      1.0  0.72396  0.12804  0.61806  1.0000
  C   C1073     1.0  0.75885  0.01236  0.55818  1.0000
  C   C1074     1.0  0.64870  0.03375  0.61044  1.0000
  C   C1075     1.0  0.61504  0.46050  0.45853  1.0000
  C   C1076     1.0  0.74079  0.01860  0.57211  1.0000
  H   H854      1.0  0.69974  0.19937  0.57772  1.0000
  H   H855      1.0  0.68500  0.07821  0.44145  1.0000
  H   H856      1.0  0.64924  0.10316  0.42480  1.0000
  H   H857      1.0  0.61825  0.07941  0.40530  1.0000
  H   H858      1.0  0.62256  0.03107  0.40254  1.0000
  H   H859      1.0  0.68981  0.02975  0.43876  1.0000
  H   H860      1.0  0.65452  0.26256  0.60272  1.0000
  H   H861      1.0  0.68399  0.21665  0.64936  1.0000
  H   H862      1.0  0.57197  0.22759  0.46058  1.0000
  H   H863      1.0  0.54980  0.28071  0.61132  1.0000
  C   C1077     1.0  0.53941  0.01722  0.48480  1.0000
  H   H864      1.0  0.57678  0.41158  0.61037  1.0000
  C   C1078     1.0  0.66407  0.19873  0.61671  1.0000
  C   C1079     1.0  0.68075  0.18966  0.60276  1.0000
  C   C1080     1.0  0.66162  0.24218  0.60311  1.0000
  C   C1081     1.0  0.50679  0.09242  0.58871  1.0000
  C   C1082     1.0  0.54250  0.28066  0.55026  1.0000
  C   C1083     1.0  0.50939  0.19108  0.63784  1.0000
  H   H865      1.0  0.78498  0.10858  0.56902  1.0000
  H   H866      1.0  0.55671  0.27231  0.46973  1.0000
  H   H867      1.0  0.60877  0.99800  0.49248  1.0000
  C   C1084     1.0  0.56718  0.48311  0.59304  1.0000
  C   C1085     1.0  0.55860  0.29301  0.56272  1.0000
  C   C1086     1.0  0.57728  0.31017  0.55668  1.0000
  C   C1087     1.0  0.58027  0.31458  0.53814  1.0000
  C   C1088     1.0  0.56422  0.30212  0.52547  1.0000
  C   C1089     1.0  0.54566  0.28469  0.53169  1.0000
  P   P38       1.0  0.56979  0.30546  0.50144  1.0000
  C   C1090     1.0  0.54078  0.31684  0.48877  1.0000
  C   C1091     1.0  0.59416  0.32974  0.49822  1.0000
  C   C1092     1.0  0.58652  0.35663  0.49980  1.0000
  C   C1093     1.0  0.60540  0.37575  0.49891  1.0000
  C   C1094     1.0  0.63203  0.36813  0.49663  1.0000
  C   C1095     1.0  0.63975  0.34143  0.49499  1.0000
  C   C1096     1.0  0.62093  0.32225  0.49577  1.0000
  H   H868      1.0  0.66952  0.03284  0.49833  1.0000
  H   H869      1.0  0.58409  0.21661  0.53342  1.0000
  H   H870      1.0  0.53370  0.21073  0.61890  1.0000
  C   C1097     1.0  0.74665  0.12710  0.57430  1.0000
  H   H871      1.0  0.57827  0.16033  0.62318  1.0000
  C   C1098     1.0  0.58147  0.27311  0.49380  1.0000
  C   C1099     1.0  0.57135  0.26179  0.47799  1.0000
  C   C1100     1.0  0.57984  0.23626  0.47276  1.0000
  C   C1101     1.0  0.59836  0.22181  0.48331  1.0000
  C   C1102     1.0  0.60837  0.23285  0.49909  1.0000
  C   C1103     1.0  0.59989  0.25831  0.50440  1.0000
  C   C1104     1.0  0.61839  0.48343  0.44846  1.0000
  H   H872      1.0  0.55623  0.28976  0.57707  1.0000
  H   H873      1.0  0.58940  0.32024  0.56635  1.0000
  H   H874      1.0  0.59554  0.32732  0.53389  1.0000
  C   C1105     1.0  0.53788  0.44577  0.57502  1.0000
  H   H875      1.0  0.56614  0.36273  0.50250  1.0000
  H   H876      1.0  0.59961  0.39641  0.50088  1.0000
  H   H877      1.0  0.51177  0.07155  0.58733  1.0000
  C   C1106     1.0  0.50555  0.15573  0.54671  1.0000
  C   C1107     1.0  0.49923  0.34230  0.54612  1.0000
  H   H878      1.0  0.52479  0.38976  0.61539  1.0000
  H   H879      1.0  0.56888  0.00548  0.46506  1.0000
  C   C1108     1.0  0.64291  0.11913  0.66185  1.0000
  C   C1109     1.0  0.61171  0.47346  0.62716  1.0000
  H   H880      1.0  0.58997  0.36100  0.65619  1.0000
  C   C1110     1.0  0.50130  0.33003  0.56309  1.0000
  H   H881      1.0  0.54896  0.46532  0.55044  1.0000
  H   H882      1.0  0.51660  0.43894  0.64899  1.0000
  H   H883      1.0  0.70768  0.99796  0.54502  1.0000
  H   H884      1.0  0.57729  0.14629  0.65530  1.0000
  H   H885      1.0  0.63028  0.01059  0.58988  1.0000
  C   C1111     1.0  0.50044  0.13669  0.65958  1.0000
  C   C1112     1.0  0.54029  0.44506  0.59393  1.0000
  H   H886      1.0  0.62590  0.27878  0.66268  1.0000
  C   C1113     1.0  0.55009  0.46516  0.56512  1.0000
  C   C1114     1.0  0.68955  0.01284  0.52058  1.0000
  C   C1115     1.0  0.64465  0.26816  0.66495  1.0000
  C   C1116     1.0  0.55570  0.46313  0.60305  1.0000
  H   H887      1.0  0.73696  0.00659  0.37978  1.0000
  C   C1117     1.0  0.52040  0.10280  0.63989  1.0000
  H   H888      1.0  0.50427  0.01659  0.55807  1.0000
  H   H889      1.0  0.75720  0.02242  0.54524  1.0000
  C   C1118     1.0  0.56861  0.42557  0.65519  1.0000
  C   C1119     1.0  0.51588  0.23799  0.63839  1.0000
  C   C1120     1.0  0.57657  0.40091  0.66230  1.0000
  C   C1121     1.0  0.51139  0.45951  0.64647  1.0000
  C   C1122     1.0  0.58678  0.48026  0.63447  1.0000
  C   C1123     1.0  0.49730  0.42734  0.52494  1.0000
  C   C1124     1.0  0.63399  0.48617  0.63307  1.0000
  C   C1125     1.0  0.70045  0.01551  0.53790  1.0000
  H   H890      1.0  0.49612  0.19827  0.50812  1.0000
  C   C1126     1.0  0.72249  0.99278  0.38382  1.0000
  H   H891      1.0  0.63816  0.99268  0.54701  1.0000
  C   C1127     1.0  0.62447  0.99194  0.51938  1.0000
  C   C1128     1.0  0.77911  0.99302  0.56083  1.0000
  C   C1129     1.0  0.49343  0.32626  0.48633  1.0000
  Fe  Fe73      1.0  0.83857  0.37704  0.80294  1.0000
  S   S148      1.0  0.82955  0.36992  0.83243  1.0000
  S   S149      1.0  0.80959  0.37821  0.77866  1.0000
  Fe  Fe74      1.0  0.89952  0.36870  0.80958  1.0000
  S   S150      1.0  0.89412  0.36101  0.83910  1.0000
  S   S151      1.0  0.94033  0.35831  0.79803  1.0000
  Fe  Fe75      1.0  0.86053  0.33680  0.83093  1.0000
  S   S152      1.0  0.85563  0.29798  0.84508  1.0000
  Fe  Fe76      1.0  0.86400  0.39473  0.83822  1.0000
  S   S153      1.0  0.86579  0.42277  0.86186  1.0000
  S   S154      1.0  0.86751  0.34201  0.80123  1.0000
  S   S155      1.0  0.87153  0.40464  0.80889  1.0000
  Fe  Fe77      1.0  0.63473  0.36248  0.71080  1.0000
  S   S156      1.0  0.62867  0.40291  0.72315  1.0000
  H   H892      1.0  0.84440  0.01794  0.99335  1.0000
  Fe  Fe78      1.0  0.62840  0.33590  0.74720  1.0000
  S   S157      1.0  0.62084  0.37389  0.76192  1.0000
  S   S158      1.0  0.62948  0.29839  0.76314  1.0000
  Fe  Fe79      1.0  0.59471  0.38527  0.73809  1.0000
  S   S159      1.0  0.55419  0.40719  0.74053  1.0000
  Fe  Fe80      1.0  0.65555  0.38712  0.74592  1.0000
  S   S160      1.0  0.68742  0.40698  0.76270  1.0000
  S   S161      1.0  0.59979  0.34585  0.72468  1.0000
  S   S162      1.0  0.66390  0.34824  0.73218  1.0000
  Fe  Fe81      1.0  0.86167  0.16854  0.79801  1.0000
  S   S163      1.0  0.86945  0.13224  0.78117  1.0000
  S   S164      1.0  0.86803  0.20846  0.78656  1.0000
  Fe  Fe82      1.0  0.84971  0.13795  0.83198  1.0000
  S   S165      1.0  0.85658  0.09913  0.81779  1.0000
  S   S166      1.0  0.83698  0.14641  0.86085  1.0000
  Fe  Fe83      1.0  0.89235  0.11757  0.80572  1.0000
  S   S167      1.0  0.93331  0.09666  0.80583  1.0000
  Fe  Fe84      1.0  0.83281  0.11795  0.79461  1.0000
  S   S168      1.0  0.80015  0.09666  0.77953  1.0000
  S   S169      1.0  0.88662  0.15499  0.82156  1.0000
  S   S170      1.0  0.82382  0.15554  0.80978  1.0000
  Fe  Fe85      1.0  0.64500  0.13065  0.74027  1.0000
  S   S171      1.0  0.64127  0.14416  0.71138  1.0000
  S   S172      1.0  0.68461  0.13918  0.75402  1.0000
  Fe  Fe86      1.0  0.58384  0.12510  0.74210  1.0000
  S   S173      1.0  0.57697  0.13848  0.71356  1.0000
  S   S174      1.0  0.54962  0.11754  0.76095  1.0000
  Fe  Fe87      1.0  0.61286  0.11253  0.70735  1.0000
  H   H893      1.0  0.68018  0.11215  0.69429  1.0000
  Fe  Fe88      1.0  0.60607  0.16871  0.72008  1.0000
  S   S175      1.0  0.60212  0.20916  0.70820  1.0000
  S   S176      1.0  0.61837  0.09658  0.73579  1.0000
  S   S177      1.0  0.61078  0.15757  0.74923  1.0000
  Fe  Fe89      1.0  0.84962  0.14506  0.98019  1.0000
  S   S178      1.0  0.88513  0.13962  0.96233  1.0000
  S   S179      1.0  0.82542  0.18446  0.97788  1.0000
  C   C1130     1.0  0.98915  0.37872  0.85283  1.0000
  S   S180      1.0  0.89505  0.08022  0.98032  1.0000
  H   H894      1.0  0.97380  0.35324  0.94507  1.0000
  C   C1131     1.0  0.51839  0.12873  0.67336  1.0000
  C   C1132     1.0  0.69397  0.05471  0.71647  1.0000
  Fe  Fe90      1.0  0.87149  0.09887  0.95727  1.0000
  S   S181      1.0  0.87501  0.07924  0.92966  1.0000
  S   S182      1.0  0.83414  0.10480  0.97357  1.0000
  Fe  Fe91      1.0  0.85222  0.34273  0.98575  1.0000
  S   S183      1.0  0.86408  0.35045  0.95702  1.0000
  H   H895      1.0  0.79816  0.27223  0.88396  1.0000
  C   C1133     1.0  0.95456  0.27568  0.88783  1.0000
  S   S184      1.0  0.85783  0.41461  0.96636  1.0000
  H   H896      1.0  0.52051  0.36082  0.73414  1.0000
  Fe  Fe92      1.0  0.83205  0.38245  0.95730  1.0000
  S   S185      1.0  0.80603  0.38741  0.93251  1.0000
  Fe  Fe93      1.0  0.88879  0.38177  0.96833  1.0000
  S   S186      1.0  0.92828  0.38819  0.95606  1.0000
  S   S187      1.0  0.81808  0.37323  0.98555  1.0000
  H   H897      1.0  0.77751  0.46449  0.74987  1.0000
  C   C1134     1.0  0.95375  0.38948  0.97208  1.0000
  H   H898      1.0  0.93732  0.21509  0.85884  1.0000
  C   C1135     1.0  0.67924  0.07490  0.70770  1.0000
  C   C1136     1.0  0.83619  0.21701  0.98172  1.0000
  P   P39       1.0  0.51869  0.26974  0.73246  1.0000
  C   C1137     1.0  0.70344  0.13974  0.80917  1.0000
  C   C1138     1.0  0.52618  0.29627  0.74773  1.0000
  C   C1139     1.0  0.87447  0.45975  0.93415  1.0000
  H   H899      1.0  0.95440  0.45697  0.88930  1.0000
  C   C1140     1.0  0.50743  0.05933  0.76784  1.0000
  H   H900      1.0  0.68425  0.03768  0.72151  1.0000
  C   C1141     1.0  0.68791  0.28661  0.82947  1.0000
  C   C1142     1.0  0.94269  0.23172  0.86700  1.0000
  C   C1143     1.0  0.96797  0.12625  0.98206  1.0000
  C   C1144     1.0  0.96500  0.10520  0.97008  1.0000
  H   H901      1.0  0.94686  0.09499  0.96978  1.0000
  C   C1145     1.0  0.86465  0.09812  0.91058  1.0000
  C   C1146     1.0  0.85230  0.12317  0.91258  1.0000
  C   C1147     1.0  0.84385  0.13761  0.89720  1.0000
  C   C1148     1.0  0.84816  0.12743  0.87968  1.0000
  C   C1149     1.0  0.86088  0.10253  0.87764  1.0000
  C   C1150     1.0  0.86890  0.08788  0.89308  1.0000
  H   H902      1.0  0.84877  0.13119  0.92601  1.0000
  H   H903      1.0  0.83383  0.15672  0.89893  1.0000
  H   H904      1.0  0.86422  0.09443  0.86422  1.0000
  H   H905      1.0  0.87826  0.06849  0.89152  1.0000
  C   C1151     1.0  0.76828  0.10891  0.77211  1.0000
  C   C1152     1.0  0.75009  0.09105  0.76549  1.0000
  C   C1153     1.0  0.72451  0.09980  0.75966  1.0000
  C   C1154     1.0  0.71686  0.12663  0.76024  1.0000
  C   C1155     1.0  0.73526  0.14452  0.76638  1.0000
  C   C1156     1.0  0.76073  0.13581  0.77236  1.0000
  H   H906      1.0  0.75573  0.07023  0.76508  1.0000
  H   H907      1.0  0.71068  0.08577  0.75490  1.0000
  H   H908      1.0  0.72967  0.16530  0.76645  1.0000
  H   H909      1.0  0.77450  0.14988  0.77718  1.0000
  H   H910      1.0  0.65815  0.07339  0.70568  1.0000
  C   C1157     1.0  0.96401  0.11213  0.80467  1.0000
  C   C1158     1.0  0.80972  0.48862  0.97346  1.0000
  H   H911      1.0  0.94761  0.15094  0.79826  1.0000
  H   H912      1.0  0.97872  0.46105  0.94498  1.0000
  H   H913      1.0  0.55537  0.37839  0.70513  1.0000
  C   C1159     1.0  0.51514  0.12363  0.75701  1.0000
  H   H914      1.0  0.83303  0.45199  0.70615  1.0000
  H   H915      1.0  0.50842  0.13111  0.78538  1.0000
  C   C1160     1.0  0.98182  0.45353  0.93137  1.0000
  C   C1161     1.0  0.62269  0.27325  0.74801  1.0000
  C   C1162     1.0  0.61365  0.24952  0.75449  1.0000
  C   C1163     1.0  0.60749  0.22960  0.74229  1.0000
  C   C1164     1.0  0.61021  0.23351  0.72366  1.0000
  C   C1165     1.0  0.61924  0.25724  0.71722  1.0000
  C   C1166     1.0  0.62557  0.27713  0.72939  1.0000
  H   H916      1.0  0.61113  0.24667  0.76890  1.0000
  H   H917      1.0  0.59994  0.21160  0.74733  1.0000
  H   H918      1.0  0.62125  0.26022  0.70282  1.0000
  H   H919      1.0  0.63264  0.29544  0.72433  1.0000
  C   C1167     1.0  0.84945  0.41181  0.88129  1.0000
  C   C1168     1.0  0.86317  0.40879  0.89776  1.0000
  C   C1169     1.0  0.85014  0.40056  0.91341  1.0000
  C   C1170     1.0  0.82300  0.39682  0.91290  1.0000
  C   C1171     1.0  0.80916  0.40063  0.89654  1.0000
  C   C1172     1.0  0.82246  0.40736  0.88067  1.0000
  H   H920      1.0  0.88399  0.41241  0.89839  1.0000
  H   H921      1.0  0.86106  0.39758  0.92593  1.0000
  H   H922      1.0  0.78811  0.39822  0.89608  1.0000
  H   H923      1.0  0.81165  0.41001  0.86807  1.0000
  C   C1173     1.0  0.86292  0.27160  0.83032  1.0000
  C   C1174     1.0  0.87772  0.27538  0.81470  1.0000
  C   C1175     1.0  0.87989  0.25564  0.80145  1.0000
  C   C1176     1.0  0.86799  0.23172  0.80410  1.0000
  C   C1177     1.0  0.85520  0.22701  0.82046  1.0000
  C   C1178     1.0  0.85233  0.24711  0.83348  1.0000
  H   H924      1.0  0.88730  0.29360  0.81272  1.0000
  H   H925      1.0  0.89071  0.25899  0.78915  1.0000
  H   H926      1.0  0.84676  0.20821  0.82283  1.0000
  H   H927      1.0  0.84099  0.24405  0.84562  1.0000
  C   C1179     1.0  0.77456  0.38290  0.77634  1.0000
  C   C1180     1.0  0.76191  0.37149  0.76141  1.0000
  C   C1181     1.0  0.73491  0.37746  0.75760  1.0000
  C   C1182     1.0  0.72029  0.39545  0.76845  1.0000
  C   C1183     1.0  0.73277  0.40625  0.78367  1.0000
  C   C1184     1.0  0.75956  0.39971  0.78776  1.0000
  H   H928      1.0  0.77328  0.35876  0.75230  1.0000
  H   H929      1.0  0.72573  0.36908  0.74580  1.0000
  H   H930      1.0  0.72174  0.42024  0.79214  1.0000
  H   H931      1.0  0.76891  0.40868  0.79926  1.0000
  H   H932      1.0  0.75803  0.12071  0.73121  1.0000
  C   C1185     1.0  0.97009  0.37447  0.80184  1.0000
  C   C1186     1.0  0.56856  0.26493  0.68018  1.0000
  C   C1187     1.0  0.79115  0.41683  0.73149  1.0000
  H   H933      1.0  0.95225  0.41360  0.80474  1.0000
  H   H934      1.0  0.59862  0.17266  0.67893  1.0000
  C   C1188     1.0  0.51938  0.40253  0.73974  1.0000
  C   C1189     1.0  0.71496  0.15737  0.70207  1.0000
  C   C1190     1.0  0.78944  0.33863  0.88846  1.0000
  C   C1191     1.0  0.69323  0.24147  0.67180  1.0000
  H   H935      1.0  0.49694  0.21211  0.78352  1.0000
  C   C1192     1.0  0.94204  0.06368  0.85510  1.0000
  H   H936      1.0  0.67791  0.29669  0.81821  1.0000
  H   H937      1.0  0.91684  0.11389  0.92721  1.0000
  C   C1193     1.0  0.71935  0.16918  0.71898  1.0000
  C   C1194     1.0  0.94200  0.46445  0.83109  1.0000
  C   C1195     1.0  0.98705  0.34550  0.88283  1.0000
  H   H938      1.0  0.78256  0.41985  0.96397  1.0000
  H   H939      1.0  0.49822  0.33562  0.67582  1.0000
  C   C1196     1.0  0.96630  0.25087  0.89201  1.0000
  C   C1197     1.0  0.99135  0.27521  0.80639  1.0000
  H   H940      1.0  0.83696  0.38661  0.73996  1.0000
  C   C1198     1.0  0.71360  0.26095  0.85860  1.0000
  H   H941      1.0  0.85752  0.34429  0.87108  1.0000
  C   C1199     1.0  0.90639  0.03111  0.87172  1.0000
  H   H942      1.0  0.94740  0.14292  0.83589  1.0000
  C   C1200     1.0  0.97100  0.02902  0.96524  1.0000
  C   C1201     1.0  0.68396  0.20199  0.71326  1.0000
  H   H943      1.0  0.78527  0.13759  0.67724  1.0000
  H   H944      1.0  0.80495  0.44315  0.93971  1.0000
  H   H945      1.0  0.55619  0.18014  0.74720  1.0000
  H   H946      1.0  0.67149  0.21872  0.71774  1.0000
  H   H947      1.0  0.70740  0.19999  0.73770  1.0000
  P   P40       1.0  0.97389  0.19637  0.88843  1.0000
  C   C1202     1.0  0.93695  0.27853  0.87324  1.0000
  H   H948      1.0  0.91050  0.99676  0.99861  1.0000
  C   C1203     1.0  0.80425  0.31255  0.93503  1.0000
  C   C1204     1.0  0.78869  0.29139  0.93890  1.0000
  C   C1205     1.0  0.79900  0.26560  0.93661  1.0000
  C   C1206     1.0  0.82494  0.26095  0.93062  1.0000
  C   C1207     1.0  0.84057  0.28213  0.92627  1.0000
  C   C1208     1.0  0.82997  0.30801  0.92863  1.0000
  P   P41       1.0  0.87412  0.27641  0.91830  1.0000
  C   C1209     1.0  0.88250  0.30482  0.90507  1.0000
  C   C1210     1.0  0.89725  0.27294  0.93691  1.0000
  C   C1211     1.0  0.89100  0.28320  0.95409  1.0000
  C   C1212     1.0  0.91025  0.28295  0.96777  1.0000
  C   C1213     1.0  0.93566  0.27220  0.96447  1.0000
  C   C1214     1.0  0.94197  0.26179  0.94741  1.0000
  C   C1215     1.0  0.92285  0.26220  0.93366  1.0000
  C   C1216     1.0  0.86568  0.31398  0.89103  1.0000
  C   C1217     1.0  0.87074  0.33719  0.88180  1.0000
  C   C1218     1.0  0.89265  0.35142  0.88643  1.0000
  C   C1219     1.0  0.90934  0.34271  0.90052  1.0000
  C   C1220     1.0  0.90425  0.31962  0.90988  1.0000
  C   C1221     1.0  0.87622  0.24603  0.90537  1.0000
  C   C1222     1.0  0.87654  0.24604  0.88632  1.0000
  C   C1223     1.0  0.87749  0.22217  0.87675  1.0000
  C   C1224     1.0  0.87769  0.19823  0.88601  1.0000
  C   C1225     1.0  0.87751  0.19801  0.90493  1.0000
  C   C1226     1.0  0.87709  0.22176  0.91458  1.0000
  H   H949      1.0  0.79646  0.33258  0.93712  1.0000
  H   H950      1.0  0.76881  0.29500  0.94394  1.0000
  H   H951      1.0  0.78712  0.24913  0.93991  1.0000
  H   H952      1.0  0.83254  0.24079  0.92958  1.0000
  H   H953      1.0  0.84148  0.32484  0.92563  1.0000
  H   H954      1.0  0.87148  0.29177  0.95693  1.0000
  H   H955      1.0  0.80364  0.12217  0.74262  1.0000
  H   H956      1.0  0.77861  0.48133  0.92354  1.0000
  C   C1227     1.0  0.73375  0.07838  0.71199  1.0000
  H   H957      1.0  0.92807  0.25465  0.92038  1.0000
  H   H958      1.0  0.84837  0.30343  0.88736  1.0000
  C   C1228     1.0  0.68494  0.26289  0.68263  1.0000
  H   H959      1.0  0.89635  0.36954  0.87935  1.0000
  H   H960      1.0  0.92576  0.35435  0.90453  1.0000
  H   H961      1.0  0.91692  0.31408  0.92120  1.0000
  H   H962      1.0  0.87600  0.26424  0.87872  1.0000
  H   H963      1.0  0.87790  0.22213  0.86208  1.0000
  H   H964      1.0  0.87778  0.17986  0.87847  1.0000
  H   H965      1.0  0.87759  0.17939  0.91213  1.0000
  H   H966      1.0  0.87699  0.22116  0.92928  1.0000
  H   H967      1.0  0.80810  0.34753  0.89098  1.0000
  C   C1229     1.0  0.67414  0.26977  0.84049  1.0000
  H   H968      1.0  0.80404  0.43683  0.68175  1.0000
  H   H969      1.0  0.87174  0.35282  0.74740  1.0000
  C   C1230     1.0  0.77529  0.20069  0.72018  1.0000
  C   C1231     1.0  0.76851  0.21502  0.70455  1.0000
  C   C1232     1.0  0.76231  0.24209  0.70575  1.0000
  C   C1233     1.0  0.76275  0.25476  0.72260  1.0000
  C   C1234     1.0  0.76845  0.24023  0.73845  1.0000
  C   C1235     1.0  0.77521  0.21316  0.73709  1.0000
  P   P42       1.0  0.77071  0.25699  0.75992  1.0000
  C   C1236     1.0  0.76836  0.23366  0.77819  1.0000
  C   C1237     1.0  0.80220  0.27208  0.75952  1.0000
  C   C1238     1.0  0.82562  0.25609  0.75941  1.0000
  C   C1239     1.0  0.85014  0.26746  0.75918  1.0000
  C   C1240     1.0  0.85153  0.29485  0.75880  1.0000
  C   C1241     1.0  0.82833  0.31087  0.75806  1.0000
  C   C1242     1.0  0.80374  0.29955  0.75827  1.0000
  C   C1243     1.0  0.74580  0.21885  0.77949  1.0000
  C   C1244     1.0  0.74331  0.20102  0.79373  1.0000
  C   C1245     1.0  0.76335  0.19778  0.80667  1.0000
  C   C1246     1.0  0.78563  0.21272  0.80562  1.0000
  C   C1247     1.0  0.78822  0.23053  0.79144  1.0000
  C   C1248     1.0  0.74323  0.28046  0.76339  1.0000
  C   C1249     1.0  0.72020  0.27956  0.75283  1.0000
  C   C1250     1.0  0.69908  0.29777  0.75580  1.0000
  C   C1251     1.0  0.70059  0.31679  0.76942  1.0000
  C   C1252     1.0  0.72313  0.31732  0.78034  1.0000
  C   C1253     1.0  0.74416  0.29892  0.77753  1.0000
  H   H970      1.0  0.78085  0.17993  0.71924  1.0000
  H   H971      1.0  0.76851  0.20521  0.69150  1.0000
  H   H972      1.0  0.75767  0.25339  0.69359  1.0000
  H   H973      1.0  0.75879  0.27591  0.72326  1.0000
  H   H974      1.0  0.78091  0.20168  0.74898  1.0000
  H   H975      1.0  0.82503  0.23479  0.75984  1.0000
  H   H976      1.0  0.86808  0.25490  0.75960  1.0000
  H   H977      1.0  0.87058  0.30362  0.75909  1.0000
  H   H978      1.0  0.82933  0.33213  0.75764  1.0000
  H   H979      1.0  0.78613  0.31240  0.75756  1.0000
  H   H980      1.0  0.73026  0.22089  0.76940  1.0000
  H   H981      1.0  0.72608  0.18932  0.79454  1.0000
  H   H982      1.0  0.76188  0.18346  0.81739  1.0000
  H   H983      1.0  0.80115  0.21023  0.81567  1.0000
  H   H984      1.0  0.80588  0.24150  0.79095  1.0000
  H   H985      1.0  0.71820  0.26474  0.74245  1.0000
  H   H986      1.0  0.68140  0.29707  0.74755  1.0000
  H   H987      1.0  0.68424  0.33111  0.77150  1.0000
  H   H988      1.0  0.72441  0.33226  0.79078  1.0000
  H   H989      1.0  0.76128  0.29924  0.78624  1.0000
  C   C1254     1.0  0.94433  0.14711  0.85015  1.0000
  C   C1255     1.0  0.66444  0.20942  0.76616  1.0000
  H   H990      1.0  0.91521  0.06385  0.83232  1.0000
  H   H991      1.0  0.91806  0.41130  0.77241  1.0000
  C   C1256     1.0  0.97058  0.40181  0.80421  1.0000
  C   C1257     1.0  0.69167  0.09702  0.70139  1.0000
  C   C1258     1.0  0.95516  0.17133  0.87747  1.0000
  H   H992      1.0  0.75496  0.07873  0.71330  1.0000
  H   H993      1.0  0.73405  0.16100  0.72826  1.0000
  H   H994      1.0  0.94238  0.41799  0.86416  1.0000
  H   H995      1.0  0.67632  0.24356  0.86343  1.0000
  C   C1259     1.0  0.66071  0.27624  0.67916  1.0000
  C   C1260     1.0  0.97775  0.39942  0.96690  1.0000
  H   H996      1.0  0.65944  0.20421  0.75234  1.0000
  C   C1261     1.0  0.53809  0.33743  0.77142  1.0000
  H   H997      1.0  0.95552  0.07611  0.84822  1.0000
  C   C1262     1.0  0.55606  0.28776  0.70798  1.0000
  C   C1263     1.0  0.88090  0.42568  0.76070  1.0000
  C   C1264     1.0  0.50283  0.12106  0.73999  1.0000
  C   C1265     1.0  0.91917  0.05672  0.84593  1.0000
  H   H998      1.0  0.75822  0.39645  0.72082  1.0000
  C   C1266     1.0  0.95100  0.02666  0.95232  1.0000
  C   C1267     1.0  0.87436  0.37320  0.75097  1.0000
  C   C1268     1.0  0.99115  0.13995  0.98196  1.0000
  C   C1269     1.0  0.96825  0.45095  0.89987  1.0000
  C   C1270     1.0  0.90134  0.04057  0.85423  1.0000
  C   C1271     1.0  0.98924  0.00963  0.88890  1.0000
  C   C1272     1.0  0.85472  0.39254  0.74666  1.0000
  C   C1273     1.0  0.96392  0.46044  0.91749  1.0000
  H   H999      1.0  0.98435  0.29093  0.79741  1.0000
  H   H1000     1.0  0.52845  0.17556  0.77434  1.0000
  H   H1001     1.0  0.55113  0.10213  0.68095  1.0000
  C   C1274     1.0  0.69433  0.16791  0.69101  1.0000
  H   H1002     1.0  0.76110  0.12366  0.83129  1.0000
  C   C1275     1.0  0.98590  0.09696  0.95872  1.0000
  C   C1276     1.0  0.70412  0.19149  0.72445  1.0000
  C   C1277     1.0  0.96552  0.13900  0.80079  1.0000
  H   H1003     1.0  0.52329  0.06011  0.75807  1.0000
  C   C1278     1.0  0.98269  0.33560  0.86545  1.0000
  C   C1279     1.0  0.96935  0.19260  0.95098  1.0000
  C   C1280     1.0  0.73198  0.15345  0.84002  1.0000
  C   C1281     1.0  0.68703  0.25670  0.85493  1.0000
  C   C1282     1.0  0.91437  0.46134  0.95214  1.0000
  H   H1004     1.0  0.64468  0.40624  0.67762  1.0000
  H   H1005     1.0  0.83060  0.13938  0.68904  1.0000
  H   H1006     1.0  0.92664  0.07978  0.90422  1.0000
  C   C1283     1.0  0.94971  0.19320  0.75477  1.0000
  C   C1284     1.0  0.76807  0.34402  0.90000  1.0000
  C   C1285     1.0  0.81220  0.43280  0.72764  1.0000
  C   C1286     1.0  0.98462  0.27680  0.82473  1.0000
  H   H1007     1.0  0.93334  0.45239  0.95616  1.0000
  H   H1008     1.0  0.50033  0.19216  0.72492  1.0000
  H   H1009     1.0  0.67508  0.24857  0.75939  1.0000
  C   C1287     1.0  0.74209  0.13363  0.82844  1.0000
  C   C1288     1.0  0.94818  0.19967  0.92177  1.0000
  H   H1010     1.0  0.66258  0.19761  0.68833  1.0000
  C   C1289     1.0  0.67356  0.23427  0.77012  1.0000
  H   H1011     1.0  0.79686  0.46618  0.86763  1.0000
  H   H1012     1.0  0.68933  0.15852  0.67835  1.0000
  H   H1013     1.0  0.97757  0.18303  0.73364  1.0000
  H   H1014     1.0  0.96807  0.19087  0.96562  1.0000
  C   C1290     1.0  0.96776  0.08912  0.90119  1.0000
  H   H1015     1.0  0.91748  0.25887  0.85144  1.0000
  H   H1016     1.0  0.88072  0.45270  0.72535  1.0000
  C   C1291     1.0  0.92909  0.03814  0.88102  1.0000
  H   H1017     1.0  0.50990  0.18399  0.69256  1.0000
  C   C1292     1.0  0.76790  0.12947  0.70337  1.0000
  H   H1018     1.0  0.96767  0.30806  0.93396  1.0000
  H   H1019     1.0  0.51472  0.11623  0.72820  1.0000
  H   H1020     1.0  0.93976  0.04414  0.94762  1.0000
  C   C1293     1.0  0.99206  0.21279  0.75147  1.0000
  C   C1294     1.0  0.52187  0.40155  0.69497  1.0000
  C   C1295     1.0  0.95939  0.16560  0.85901  1.0000
  C   C1296     1.0  0.72750  0.27823  0.84778  1.0000
  C   C1297     1.0  0.52690  0.19360  0.76651  1.0000
  C   C1298     1.0  0.77935  0.41562  0.69969  1.0000
  C   C1299     1.0  0.94218  0.09229  0.90839  1.0000
  H   H1021     1.0  0.93046  0.20419  0.91396  1.0000
  S   S188      1.0  0.63969  0.34897  0.68158  1.0000
  C   C1300     1.0  0.95602  0.12807  0.92735  1.0000
  C   C1301     1.0  0.98507  0.46008  0.84550  1.0000
  H   H1022     1.0  0.91222  0.36496  0.76371  1.0000
  H   H1023     1.0  0.57870  0.32443  0.76768  1.0000
  C   C1302     1.0  0.66092  0.19140  0.78007  1.0000
  H   H1024     1.0  0.57682  0.15100  0.78782  1.0000
  H   H1025     1.0  0.65363  0.17235  0.77668  1.0000
  C   C1303     1.0  0.94709  0.05454  0.87281  1.0000
  C   C1304     1.0  0.69274  0.15908  0.82103  1.0000
  C   C1305     1.0  0.93642  0.11173  0.92144  1.0000
  H   H1026     1.0  0.77004  0.35744  0.91131  1.0000
  H   H1027     1.0  0.54948  0.22870  0.67508  1.0000
  H   H1028     1.0  0.72168  0.08664  0.66849  1.0000
  C   C1306     1.0  0.78872  0.13461  0.69157  1.0000
  C   C1307     1.0  0.71887  0.09930  0.70381  1.0000
  C   C1308     1.0  0.59461  0.14376  0.79479  1.0000
  H   H1029     1.0  0.58464  0.10316  0.79293  1.0000
  H   H1030     1.0  0.60969  0.18219  0.79793  1.0000
  C   C1309     1.0  0.96807  0.47199  0.83259  1.0000
  C   C1310     1.0  0.50787  0.37829  0.73633  1.0000
  H   H1031     1.0  0.51818  0.13824  0.68645  1.0000
  C   C1311     1.0  0.98996  0.34233  0.93847  1.0000
  C   C1312     1.0  0.94977  0.43314  0.85548  1.0000
  H   H1032     1.0  0.54276  0.35390  0.78004  1.0000
  H   H1033     1.0  0.78582  0.18898  0.85048  1.0000
  C   C1313     1.0  0.59900  0.11673  0.79770  1.0000
  C   C1314     1.0  0.61334  0.16132  0.80048  1.0000
  C   C1315     1.0  0.68005  0.24078  0.78796  1.0000
  H   H1034     1.0  0.68725  0.26008  0.79091  1.0000
  Fe  Fe94      1.0  0.90454  0.12171  0.98698  1.0000
  C   C1316     1.0  0.81207  0.45142  0.76551  1.0000
  H   H1035     1.0  0.87412  0.20539  0.99317  1.0000
  Fe  Fe95      1.0  0.85877  0.08821  0.99708  1.0000
  H   H1036     1.0  0.74353  0.16777  0.66741  1.0000
  H   H1037     1.0  0.92760  0.20074  0.94737  1.0000
  C   C1317     1.0  0.66651  0.19801  0.79808  1.0000
  H   H1038     1.0  0.91199  0.43698  0.98808  1.0000
  C   C1318     1.0  0.78590  0.46143  0.76328  1.0000
  H   H1039     1.0  0.97534  0.04836  0.97002  1.0000
  P   P43       1.0  0.73426  0.12803  0.69505  1.0000
  C   C1319     1.0  0.81459  0.13555  0.69820  1.0000
  H   H1040     1.0  0.92597  0.20722  0.77727  1.0000
  C   C1320     1.0  0.63681  0.15192  0.80899  1.0000
  C   C1321     1.0  0.93284  0.44510  0.84257  1.0000
  C   C1322     1.0  0.62192  0.10727  0.80663  1.0000
  C   C1323     1.0  0.67688  0.22255  0.80191  1.0000
  H   H1041     1.0  0.65829  0.16108  0.85451  1.0000
  H   H1042     1.0  0.88364  0.44585  0.76478  1.0000
  H   H1043     1.0  0.78733  0.41114  0.74531  1.0000
  H   H1044     1.0  0.57846  0.39824  0.67682  1.0000
  H   H1045     1.0  0.98642  0.33269  0.89446  1.0000
  C   C1324     1.0  0.63468  0.19192  0.86739  1.0000
  C   C1325     1.0  0.64756  0.17987  0.85259  1.0000
  P   P44       1.0  0.66084  0.17499  0.81608  1.0000
  C   C1326     1.0  0.64067  0.12480  0.81244  1.0000
  H   H1046     1.0  0.63595  0.18270  0.88064  1.0000
  H   H1047     1.0  0.62522  0.08630  0.80894  1.0000
  C   C1327     1.0  0.84835  0.47375  0.73907  1.0000
  C   C1328     1.0  0.61958  0.21546  0.86503  1.0000
  C   C1329     1.0  0.64613  0.19174  0.83541  1.0000
  C   C1330     1.0  0.86064  0.22181  0.98967  1.0000
  H   H1048     1.0  0.60927  0.22458  0.87645  1.0000
  H   H1049     1.0  0.93544  0.17935  0.75028  1.0000
  H   H1050     1.0  0.88355  0.03553  0.84708  1.0000
  C   C1331     1.0  0.51182  0.33280  0.76730  1.0000
  H   H1051     1.0  0.72321  0.25107  0.87005  1.0000
  C   C1332     1.0  0.81993  0.13120  0.71658  1.0000
  H   H1052     1.0  0.83999  0.13166  0.72172  1.0000
  H   H1053     1.0  0.92748  0.29766  0.87012  1.0000
  C   C1333     1.0  0.93126  0.25662  0.86272  1.0000
  H   H1054     1.0  0.81376  0.18944  0.87803  1.0000
  C   C1334     1.0  0.61716  0.22683  0.84782  1.0000
  C   C1335     1.0  0.63020  0.21493  0.83303  1.0000
  C   C1336     1.0  0.54078  0.21946  0.74103  1.0000
  H   H1055     1.0  0.60479  0.24466  0.84588  1.0000
  H   H1056     1.0  0.62738  0.22362  0.81971  1.0000
  H   H1057     1.0  0.65807  0.11705  0.81953  1.0000
  H   H1058     1.0  0.68221  0.22764  0.81564  1.0000
  H   H1059     1.0  0.93238  0.03109  0.89473  1.0000
  H   H1060     1.0  0.82278  0.28133  0.80108  1.0000
  C   C1337     1.0  0.78792  0.20732  0.85777  1.0000
  H   H1061     1.0  0.69288  0.13449  0.79696  1.0000
  C   C1338     1.0  0.97608  0.44042  0.85696  1.0000
  H   H1062     1.0  0.79991  0.23530  0.97153  1.0000
  C   C1339     1.0  0.79943  0.12591  0.72838  1.0000
  H   H1063     1.0  0.65431  0.29295  0.68753  1.0000
  H   H1064     1.0  0.73274  0.04059  0.72516  1.0000
  H   H1065     1.0  0.81196  0.28119  0.97825  1.0000
  C   C1340     1.0  0.77471  0.40840  0.71761  1.0000
  C   C1341     1.0  0.77356  0.12511  0.72184  1.0000
  H   H1066     1.0  0.76240  0.23036  0.83987  1.0000
  H   H1067     1.0  0.76647  0.40920  0.68894  1.0000
  H   H1068     1.0  0.58489  0.30117  0.68916  1.0000
  C   C1342     1.0  0.80049  0.43124  0.69566  1.0000
  P   P45       1.0  0.76146  0.28455  0.85321  1.0000
  S   S189      1.0  0.61058  0.08804  0.68192  1.0000
  H   H1069     1.0  0.81459  0.45108  0.81173  1.0000
  H   H1070     1.0  0.77835  0.43975  0.99469  1.0000
  C   C1343     1.0  0.52260  0.24002  0.74585  1.0000
  C   C1344     1.0  0.53570  0.24725  0.69984  1.0000
  C   C1345     1.0  0.55089  0.24550  0.68406  1.0000
  H   H1071     1.0  0.53056  0.07465  0.78958  1.0000
  C   C1346     1.0  0.80395  0.20750  0.87322  1.0000
  H   H1072     1.0  0.81264  0.32758  0.79255  1.0000
  C   C1347     1.0  0.95068  0.38016  0.98972  1.0000
  C   C1348     1.0  0.77496  0.23070  0.85177  1.0000
  C   C1349     1.0  0.80793  0.29293  0.80853  1.0000
  H   H1073     1.0  0.56836  0.28743  0.74749  1.0000
  C   C1350     1.0  0.55835  0.32095  0.76430  1.0000
  H   H1074     1.0  0.95005  0.46614  0.98771  1.0000
  C   C1351     1.0  0.80242  0.31917  0.80378  1.0000
  C   C1352     1.0  0.72787  0.12690  0.81300  1.0000
  C   C1353     1.0  0.70759  0.16646  0.83619  1.0000
  H   H1075     1.0  0.73585  0.11171  0.80393  1.0000
  H   H1076     1.0  0.70050  0.18222  0.84506  1.0000
  C   C1354     1.0  0.79488  0.25442  0.87644  1.0000
  C   C1355     1.0  0.55243  0.30019  0.75272  1.0000
  C   C1356     1.0  0.85783  0.41898  0.75147  1.0000
  H   H1077     1.0  0.95845  0.23807  0.78808  1.0000
  C   C1357     1.0  0.81689  0.43982  0.70957  1.0000
  C   C1358     1.0  0.80660  0.45420  0.79821  1.0000
  H   H1078     1.0  0.55353  0.22110  0.72944  1.0000
  H   H1079     1.0  0.79987  0.26176  0.82682  1.0000
  H   H1080     1.0  0.84246  0.44088  0.78521  1.0000
  H   H1081     1.0  0.52208  0.23204  0.70267  1.0000
  H   H1082     1.0  0.75802  0.33657  0.83642  1.0000
  H   H1083     1.0  0.98190  0.00765  0.87516  1.0000
  H   H1084     1.0  0.51102  0.44382  0.74475  1.0000
  H   H1085     1.0  0.74323  0.15880  0.85190  1.0000
  H   H1086     1.0  0.52839  0.41972  0.70087  1.0000
  H   H1087     1.0  0.58062  0.26330  0.66812  1.0000
  C   C1359     1.0  0.79505  0.28202  0.82322  1.0000
  C   C1360     1.0  0.82238  0.44827  0.78310  1.0000
  C   C1361     1.0  0.50582  0.31230  0.75553  1.0000
  H   H1088     1.0  0.95045  0.27209  0.97514  1.0000
  C   C1362     1.0  0.98757  0.09693  0.80774  1.0000
  C   C1363     1.0  0.94654  0.19798  0.94067  1.0000
  H   H1089     1.0  0.69720  0.26921  0.69373  1.0000
  H   H1090     1.0  0.89237  0.01884  0.87824  1.0000
  H   H1091     1.0  0.82004  0.23097  0.89441  1.0000
  C   C1364     1.0  0.78965  0.43930  0.96655  1.0000
  C   C1365     1.0  0.78392  0.33458  0.81357  1.0000
  C   C1366     1.0  0.90046  0.40624  0.76502  1.0000
  C   C1367     1.0  0.53864  0.26803  0.71217  1.0000
  H   H1092     1.0  0.77981  0.35501  0.80988  1.0000
  C   C1368     1.0  0.53709  0.37816  0.69746  1.0000
  C   C1369     1.0  0.98655  0.31676  0.93218  1.0000
  C   C1370     1.0  0.77706  0.29761  0.83349  1.0000
  C   C1371     1.0  0.77842  0.25448  0.86102  1.0000
  C   C1372     1.0  0.80744  0.23098  0.88252  1.0000
  C   C1373     1.0  0.77163  0.32403  0.82858  1.0000
  Fe  Fe96      1.0  0.84692  0.40353  0.99462  1.0000
  C   C1374     1.0  0.98737  0.10559  0.90731  1.0000
  H   H1093     1.0  0.94682  0.47340  0.92031  1.0000
  C   C1375     1.0  0.89718  0.38003  0.76015  1.0000
  H   H1094     1.0  0.97885  0.31503  0.86351  1.0000
  H   H1095     1.0  0.90724  0.43121  0.93239  1.0000
  H   H1096     1.0  0.90662  0.12876  0.88542  1.0000
  C   C1376     1.0  0.86409  0.48269  0.94263  1.0000
  C   C1377     1.0  0.92131  0.13908  0.87802  1.0000
  H   H1097     1.0  0.98043  0.11188  0.86485  1.0000
  H   H1098     1.0  0.96173  0.25355  0.94486  1.0000
  C   C1378     1.0  0.89963  0.44932  0.93872  1.0000
  C   C1379     1.0  0.98143  0.12509  0.92019  1.0000
  C   C1380     1.0  0.81943  0.48575  0.91608  1.0000
  C   C1381     1.0  0.57098  0.28618  0.69205  1.0000
  H   H1099     1.0  0.72329  0.30504  0.88067  1.0000
  C   C1382     1.0  0.76309  0.30914  0.87081  1.0000
  P   P46       1.0  0.97632  0.06324  0.88514  1.0000
  C   C1383     1.0  0.93603  0.15779  0.88688  1.0000
  H   H1100     1.0  0.90548  0.29131  0.98094  1.0000
  H   H1101     1.0  0.80378  0.31745  0.86503  1.0000
  C   C1384     1.0  0.96300  0.22630  0.77615  1.0000
  H   H1102     1.0  0.91369  0.11945  0.85275  1.0000
  C   C1385     1.0  0.82581  0.26486  0.98121  1.0000
  C   C1386     1.0  0.74176  0.31445  0.88255  1.0000
  H   H1103     1.0  0.95178  0.14227  0.93803  1.0000
  C   C1387     1.0  0.52838  0.35451  0.69055  1.0000
  H   H1104     1.0  0.98026  0.40609  0.95318  1.0000
  C   C1388     1.0  0.51156  0.06752  0.78567  1.0000
  H   H1105     1.0  0.72775  0.33623  0.90603  1.0000
  H   H1106     1.0  0.86276  0.44936  0.92449  1.0000
  H   H1107     1.0  0.72449  0.30407  0.82430  1.0000
  C   C1389     1.0  0.54265  0.19624  0.75122  1.0000
  C   C1390     1.0  0.78481  0.47346  0.89526  1.0000
  C   C1391     1.0  0.92534  0.13379  0.85965  1.0000
  C   C1392     1.0  0.74423  0.33202  0.89701  1.0000
  C   C1393     1.0  0.81898  0.23875  0.97743  1.0000
  C   C1394     1.0  0.67905  0.19016  0.69658  1.0000
  C   C1395     1.0  0.71447  0.29081  0.83304  1.0000
  H   H1108     1.0  0.64847  0.12806  0.67444  1.0000
  C   C1396     1.0  0.78690  0.32156  0.87377  1.0000
  H   H1109     1.0  0.86698  0.46928  0.99324  1.0000
  H   H1110     1.0  0.93222  0.16142  0.90103  1.0000
  C   C1397     1.0  0.80218  0.45269  0.95275  1.0000
  H   H1111     1.0  0.55825  0.30443  0.71688  1.0000
  C   C1398     1.0  0.94442  0.20885  0.77004  1.0000
  C   C1399     1.0  0.99030  0.15043  0.80004  1.0000
  H   H1112     1.0  0.65347  0.26694  0.83779  1.0000
  H   H1113     1.0  0.91266  0.43914  0.84140  1.0000
  H   H1114     1.0  0.95877  0.29267  0.89604  1.0000
  C   C1400     1.0  0.72125  0.05637  0.71851  1.0000
  H   H1115     1.0  0.74968  0.47411  0.77656  1.0000
  H   H1116     1.0  0.49608  0.34564  0.77282  1.0000
  H   H1117     1.0  0.98383  0.08068  0.94947  1.0000
  P   P47       1.0  0.83262  0.44425  0.74593  1.0000
  C   C1401     1.0  0.49935  0.12944  0.77215  1.0000
  H   H1118     1.0  0.85766  0.49011  0.90370  1.0000
  H   H1119     1.0  0.98960  0.39130  0.84101  1.0000
  C   C1402     1.0  0.87187  0.47182  0.72905  1.0000
  C   C1403     1.0  0.97344  0.19529  0.74542  1.0000
  H   H1120     1.0  0.49330  0.25320  0.76559  1.0000
  H   H1121     1.0  0.76453  0.46863  0.89282  1.0000
  C   C1404     1.0  0.84967  0.26961  0.98994  1.0000
  C   C1405     1.0  0.97244  0.19512  0.91297  1.0000
  C   C1406     1.0  0.96027  0.22860  0.88176  1.0000
  H   H1122     1.0  0.97968  0.24889  0.90347  1.0000
  C   C1407     1.0  0.99244  0.37202  0.88527  1.0000
  H   H1123     1.0  0.71191  0.23098  0.67459  1.0000
  H   H1124     1.0  0.84323  0.47709  0.87317  1.0000
  C   C1408     1.0  0.77010  0.46724  0.77840  1.0000
  C   C1409     1.0  0.50444  0.35415  0.68111  1.0000
  H   H1125     1.0  0.92894  0.47345  0.82095  1.0000
  C   C1410     1.0  0.73330  0.12714  0.67050  1.0000
  C   C1411     1.0  0.78721  0.45051  0.98381  1.0000
  C   C1412     1.0  0.99052  0.43432  0.89606  1.0000
  H   H1126     1.0  0.93271  0.37147  0.99362  1.0000
  C   C1413     1.0  0.98879  0.03446  0.89736  1.0000
  H   H1127     1.0  0.97405  0.17564  0.85135  1.0000
  C   C1414     1.0  0.98368  0.35224  0.85046  1.0000
  C   C1415     1.0  0.78045  0.46363  0.79586  1.0000
  C   C1416     1.0  0.99204  0.25612  0.83644  1.0000
  H   H1128     1.0  0.76806  0.46775  0.80755  1.0000
  C   C1417     1.0  0.53717  0.10808  0.67035  1.0000
  H   H1129     1.0  0.98666  0.25735  0.85058  1.0000
  H   H1130     1.0  0.98669  0.07613  0.81067  1.0000
  C   C1418     1.0  0.79713  0.47521  0.98722  1.0000
  S   S190      1.0  0.85646  0.30144  0.99875  1.0000
  C   C1419     1.0  0.80294  0.47224  0.88104  1.0000
  C   C1420     1.0  0.98719  0.22810  0.76709  1.0000
  C   C1421     1.0  0.79294  0.48044  0.91269  1.0000
  C   C1422     1.0  0.82911  0.47842  0.88417  1.0000
  C   C1423     1.0  0.50262  0.42499  0.74219  1.0000
  H   H1131     1.0  0.54025  0.33650  0.69257  1.0000
  H   H1132     1.0  0.97316  0.29388  0.82969  1.0000
  C   C1424     1.0  0.81195  0.47762  0.95601  1.0000
  C   C1425     1.0  0.50718  0.23741  0.76146  1.0000
  H   H1133     1.0  0.93048  0.00025  0.93506  1.0000
  H   H1134     1.0  0.62137  0.21275  0.67073  1.0000
  C   C1426     1.0  0.50921  0.21420  0.77167  1.0000
  H   H1135     1.0  0.98014  0.34472  0.83695  1.0000
  C   C1427     1.0  0.90413  0.48415  0.96077  1.0000
  H   H1136     1.0  0.49426  0.07355  0.81203  1.0000
  C   C1428     1.0  0.94581  0.00194  0.94524  1.0000
  C   C1429     1.0  0.83728  0.48544  0.90157  1.0000
  H   H1137     1.0  0.97529  0.48676  0.82354  1.0000
  S   S191      1.0  0.87972  0.37226  0.99712  1.0000
  S   S192      1.0  0.94287  0.13567  0.99714  1.0000
  C   C1430     1.0  0.86712  0.24789  0.99393  1.0000
  H   H1138     1.0  0.98151  0.31138  0.72735  1.0000
  H   H1139     1.0  0.98482  0.26803  0.74235  1.0000
  C   C1431     1.0  0.99289  0.30885  0.73974  1.0000
  H   H1140     1.0  0.99121  0.17117  0.79692  1.0000
  C   C1432     1.0  0.49797  0.40135  0.68549  1.0000
  C   C1433     1.0  0.98546  0.00666  0.97167  1.0000
  Fe  Fe97      1.0  0.86940  0.87142  0.24609  1.0000
  S   S193      1.0  0.86308  0.85478  0.21811  1.0000
  S   S194      1.0  0.83827  0.87185  0.26895  1.0000
  Fe  Fe98      1.0  0.92916  0.88171  0.23798  1.0000
  S   S195      1.0  0.92583  0.86570  0.20990  1.0000
  S   S196      1.0  0.96777  0.90056  0.24571  1.0000
  Fe  Fe99      1.0  0.88681  0.88814  0.20838  1.0000
  S   S197      1.0  0.88087  0.91380  0.18361  1.0000
  Fe  Fe100     1.0  0.90297  0.83414  0.22256  1.0000
  S   S198      1.0  0.91620  0.79261  0.21561  1.0000
  S   S199      1.0  0.89100  0.90647  0.23596  1.0000
  S   S200      1.0  0.90838  0.84855  0.25095  1.0000
  H   H1141     1.0  0.92580  0.93021  0.20370  1.0000
  S   S201      1.0  0.64525  0.89121  0.30567  1.0000
  Fe  Fe101     1.0  0.60793  0.66388  0.32127  1.0000
  S   S202      1.0  0.65971  0.83005  0.29621  1.0000
  H   H1142     1.0  0.79149  0.92335  0.12868  1.0000
  Fe  Fe102     1.0  0.68271  0.86672  0.29857  1.0000
  S   S203      1.0  0.71148  0.87332  0.27490  1.0000
  Fe  Fe103     1.0  0.62341  0.85355  0.30590  1.0000
  S   S204      1.0  0.58268  0.84501  0.29387  1.0000
  C   C1434     1.0  0.84240  0.51026  0.03505  1.0000
  H   H1143     1.0  0.78023  0.81426  0.14725  1.0000
  Fe  Fe104     1.0  0.83756  0.67314  0.22094  1.0000
  S   S205      1.0  0.84667  0.66354  0.24980  1.0000
  S   S206      1.0  0.82373  0.71491  0.21521  1.0000
  Fe  Fe105     1.0  0.84967  0.61735  0.20859  1.0000
  S   S207      1.0  0.85905  0.60328  0.23711  1.0000
  S   S208      1.0  0.86061  0.59275  0.18390  1.0000
  Fe  Fe106     1.0  0.82225  0.62833  0.24499  1.0000
  S   S209      1.0  0.79215  0.62118  0.26768  1.0000
  Fe  Fe107     1.0  0.88232  0.63994  0.23930  1.0000
  S   S210      1.0  0.92310  0.64943  0.25065  1.0000
  S   S211      1.0  0.81157  0.63934  0.21620  1.0000
  S   S212      1.0  0.87445  0.65243  0.21061  1.0000
  C   C1435     1.0  0.96431  0.70091  0.06000  1.0000
  S   S213      1.0  0.62190  0.58931  0.31554  1.0000
  C   C1436     1.0  0.81913  0.93767  0.20712  1.0000
  S   S214      1.0  0.59704  0.64219  0.29612  1.0000
  C   C1437     1.0  0.83738  0.94340  0.22061  1.0000
  Fe  Fe108     1.0  0.58219  0.61189  0.31514  1.0000
  S   S215      1.0  0.54197  0.59358  0.31784  1.0000
  Fe  Fe109     1.0  0.63801  0.62228  0.29885  1.0000
  S   S216      1.0  0.66550  0.61976  0.27399  1.0000
  C   C1438     1.0  0.92386  0.51407  0.04165  1.0000
  H   H1144     1.0  0.85390  0.97538  0.05386  1.0000
  Fe  Fe110     1.0  0.84566  0.88168  0.08773  1.0000
  S   S217      1.0  0.83334  0.86974  0.05954  1.0000
  S   S218      1.0  0.82193  0.87608  0.11313  1.0000
  Fe  Fe111     1.0  0.90082  0.89276  0.07623  1.0000
  S   S219      1.0  0.89331  0.88085  0.04755  1.0000
  S   S220      1.0  0.94008  0.90467  0.08685  1.0000
  Fe  Fe112     1.0  0.85541  0.90553  0.05054  1.0000
  S   S221      1.0  0.84506  0.93373  0.02682  1.0000
  Fe  Fe113     1.0  0.87242  0.84642  0.05897  1.0000
  S   S222      1.0  0.88662  0.80426  0.05104  1.0000
  S   S223      1.0  0.86421  0.91895  0.07889  1.0000
  S   S224      1.0  0.88323  0.85688  0.08745  1.0000
  Fe  Fe114     1.0  0.84139  0.61074  0.08119  1.0000
  S   S225      1.0  0.82527  0.61704  0.05292  1.0000
  S   S226      1.0  0.81385  0.60731  0.10490  1.0000
  Fe  Fe115     1.0  0.89730  0.61624  0.06909  1.0000
  S   S227      1.0  0.88559  0.62341  0.04005  1.0000
  S   S228      1.0  0.93814  0.61570  0.08112  1.0000
  Fe  Fe116     1.0  0.85323  0.65037  0.05165  1.0000
  S   S229      1.0  0.83822  0.69123  0.04155  1.0000
  Fe  Fe117     1.0  0.85910  0.58922  0.04404  1.0000
  S   S230      1.0  0.86060  0.55759  0.02142  1.0000
  S   S231      1.0  0.86696  0.64534  0.08040  1.0000
  S   S232      1.0  0.87305  0.58085  0.07256  1.0000
  C   C1439     1.0  0.85567  0.52290  0.02121  1.0000
  C   C1440     1.0  0.72283  0.91994  0.21306  1.0000
  C   C1441     1.0  0.93039  0.53416  0.13791  1.0000
  H   H1145     1.0  0.77050  0.81194  0.18887  1.0000
  H   H1146     1.0  0.83516  0.52158  0.04659  1.0000
  H   H1147     1.0  0.79230  0.81520  0.26428  1.0000
  C   C1442     1.0  0.96321  0.62435  0.06633  1.0000
  C   C1443     1.0  0.95871  0.62738  0.04771  1.0000
  C   C1444     1.0  0.96133  0.70333  0.04121  1.0000
  H   H1148     1.0  0.93953  0.62431  0.04207  1.0000
  C   C1445     1.0  0.87179  0.77318  0.05084  1.0000
  C   C1446     1.0  0.84504  0.77072  0.04677  1.0000
  C   C1447     1.0  0.83497  0.74548  0.04440  1.0000
  C   C1448     1.0  0.85126  0.72238  0.04660  1.0000
  C   C1449     1.0  0.87776  0.72485  0.05139  1.0000
  C   C1450     1.0  0.88800  0.75008  0.05320  1.0000
  H   H1149     1.0  0.83238  0.78824  0.04465  1.0000
  H   H1150     1.0  0.81453  0.74384  0.04049  1.0000
  H   H1151     1.0  0.89065  0.70736  0.05292  1.0000
  H   H1152     1.0  0.90871  0.75170  0.05621  1.0000
  C   C1451     1.0  0.84728  0.96880  0.02543  1.0000
  C   C1452     1.0  0.83763  0.69136  0.29290  1.0000
  C   C1453     1.0  0.96477  0.89393  0.07171  1.0000
  C   C1454     1.0  0.96016  0.89544  0.05306  1.0000
  H   H1153     1.0  0.98123  0.71332  0.16998  1.0000
  H   H1154     1.0  0.94186  0.90419  0.04798  1.0000
  C   C1455     1.0  0.84830  0.60128  0.16223  1.0000
  C   C1456     1.0  0.86474  0.59704  0.14716  1.0000
  C   C1457     1.0  0.85461  0.59997  0.12947  1.0000
  C   C1458     1.0  0.82778  0.60663  0.12682  1.0000
  C   C1459     1.0  0.81151  0.61178  0.14190  1.0000
  C   C1460     1.0  0.82181  0.60941  0.15959  1.0000
  H   H1155     1.0  0.88530  0.59114  0.14922  1.0000
  H   H1156     1.0  0.86732  0.59629  0.11791  1.0000
  H   H1157     1.0  0.79074  0.61690  0.13991  1.0000
  H   H1158     1.0  0.80897  0.61240  0.17115  1.0000
  C   C1461     1.0  0.75679  0.62199  0.26902  1.0000
  C   C1462     1.0  0.74039  0.62401  0.25368  1.0000
  C   C1463     1.0  0.71262  0.62360  0.25549  1.0000
  C   C1464     1.0  0.70071  0.62119  0.27261  1.0000
  C   C1465     1.0  0.71708  0.61962  0.28796  1.0000
  C   C1466     1.0  0.74484  0.62001  0.28615  1.0000
  H   H1159     1.0  0.74912  0.62537  0.24039  1.0000
  H   H1160     1.0  0.70028  0.62477  0.24350  1.0000
  H   H1161     1.0  0.70837  0.61760  0.30121  1.0000
  H   H1162     1.0  0.75719  0.61830  0.29813  1.0000
  C   C1467     1.0  0.97730  0.65181  0.24811  1.0000
  C   C1468     1.0  0.95558  0.63573  0.24618  1.0000
  H   H1163     1.0  0.90802  0.93330  0.03667  1.0000
  H   H1164     1.0  0.97384  0.67236  0.25166  1.0000
  H   H1165     1.0  0.94415  0.59635  0.24057  1.0000
  C   C1469     1.0  0.78745  0.71586  0.28837  1.0000
  H   H1166     1.0  0.96394  0.68162  0.06623  1.0000
  C   C1470     1.0  0.87568  0.72724  0.00485  1.0000
  C   C1471     1.0  0.78291  0.79303  0.14588  1.0000
  C   C1472     1.0  0.97663  0.64812  0.19352  1.0000
  C   C1473     1.0  0.55012  0.85529  0.30118  1.0000
  C   C1474     1.0  0.52811  0.84610  0.29179  1.0000
  C   C1475     1.0  0.54559  0.87229  0.31594  1.0000
  H   H1167     1.0  0.53125  0.83292  0.28039  1.0000
  H   H1168     1.0  0.96886  0.72137  0.08530  1.0000
  C   C1476     1.0  0.69945  0.96660  0.19906  1.0000
  C   C1477     1.0  0.79534  0.71012  0.08206  1.0000
  H   H1169     1.0  0.80446  0.83312  0.20779  1.0000
  C   C1478     1.0  0.52363  0.67637  0.31719  1.0000
  C   C1479     1.0  0.98752  0.68687  0.00062  1.0000
  C   C1480     1.0  0.79295  0.93286  0.21169  1.0000
  H   H1170     1.0  0.82263  0.79461  0.13595  1.0000
  C   C1481     1.0  0.85895  0.87070  0.00326  1.0000
  H   H1171     1.0  0.90056  0.57496  0.20704  1.0000
  C   C1482     1.0  0.78572  0.93265  0.23006  1.0000
  C   C1483     1.0  0.86587  0.90070  0.16428  1.0000
  C   C1484     1.0  0.87516  0.90727  0.14710  1.0000
  C   C1485     1.0  0.86231  0.89888  0.13139  1.0000
  C   C1486     1.0  0.83962  0.88447  0.13276  1.0000
  C   C1487     1.0  0.83046  0.87760  0.14996  1.0000
  C   C1488     1.0  0.84367  0.88558  0.16571  1.0000
  H   H1172     1.0  0.89225  0.91908  0.14593  1.0000
  H   H1173     1.0  0.86961  0.90418  0.11822  1.0000
  H   H1174     1.0  0.81290  0.86648  0.15108  1.0000
  H   H1175     1.0  0.83621  0.88096  0.17896  1.0000
  C   C1489     1.0  0.75750  0.65555  0.17369  1.0000
  C   C1490     1.0  0.74518  0.80366  0.31150  1.0000
  C   C1491     1.0  0.72488  0.67038  0.15142  1.0000
  H   H1176     1.0  0.86942  0.88747  0.00807  1.0000
  C   C1492     1.0  0.90268  0.72047  0.00618  1.0000
  C   C1493     1.0  0.89090  0.77075  0.21815  1.0000
  C   C1494     1.0  0.89640  0.74379  0.21554  1.0000
  C   C1495     1.0  0.87596  0.72629  0.21605  1.0000
  C   C1496     1.0  0.84989  0.73575  0.21865  1.0000
  C   C1497     1.0  0.84458  0.76260  0.22205  1.0000
  C   C1498     1.0  0.86513  0.78004  0.22202  1.0000
  H   H1177     1.0  0.91640  0.73648  0.21289  1.0000
  H   H1178     1.0  0.88040  0.70565  0.21375  1.0000
  H   H1179     1.0  0.82457  0.77013  0.22415  1.0000
  H   H1180     1.0  0.86085  0.80071  0.22450  1.0000
  C   C1499     1.0  0.80303  0.87082  0.27009  1.0000
  C   C1500     1.0  0.78675  0.87339  0.25475  1.0000
  C   C1501     1.0  0.75894  0.87375  0.25649  1.0000
  C   C1502     1.0  0.74685  0.87130  0.27355  1.0000
  C   C1503     1.0  0.76315  0.86791  0.28883  1.0000
  C   C1504     1.0  0.79096  0.86780  0.28710  1.0000
  H   H1181     1.0  0.79564  0.87558  0.24161  1.0000
  H   H1182     1.0  0.74666  0.87614  0.24454  1.0000
  H   H1183     1.0  0.75434  0.86592  0.30206  1.0000
  H   H1184     1.0  0.80324  0.86567  0.29910  1.0000
  H   H1185     1.0  0.96970  0.52519  0.12824  1.0000
  H   H1186     1.0  0.95301  0.90484  0.18160  1.0000
  H   H1187     1.0  0.93626  0.64601  0.20284  1.0000
  C   C1505     1.0  0.63857  0.67302  0.25014  1.0000
  C   C1506     1.0  0.61777  0.68019  0.26174  1.0000
  C   C1507     1.0  0.62054  0.70027  0.27449  1.0000
  C   C1508     1.0  0.66209  0.68614  0.25106  1.0000
  H   H1188     1.0  0.63693  0.65642  0.24103  1.0000
  H   H1189     1.0  0.59985  0.66949  0.26128  1.0000
  H   H1190     1.0  0.60465  0.70531  0.28383  1.0000
  H   H1191     1.0  0.67826  0.67939  0.24245  1.0000
  H   H1192     1.0  0.64211  0.80617  0.25244  1.0000
  C   C1509     1.0  0.50201  0.85380  0.29697  1.0000
  H   H1193     1.0  0.84448  0.94673  0.24935  1.0000
  C   C1510     1.0  0.96147  0.72820  0.03297  1.0000
  C   C1511     1.0  0.72620  0.73068  0.31659  1.0000
  H   H1194     1.0  0.78212  0.65565  0.11714  1.0000
  H   H1195     1.0  0.66613  0.95844  0.21585  1.0000
  C   C1512     1.0  0.92164  0.57364  0.20469  1.0000
  C   C1513     1.0  0.98827  0.62824  0.07344  1.0000
  C   C1514     1.0  0.78961  0.93514  0.14094  1.0000
  C   C1515     1.0  0.81527  0.67643  0.29364  1.0000
  H   H1196     1.0  0.82490  0.88059  0.01968  1.0000
  H   H1197     1.0  0.86986  0.83071  0.30298  1.0000
  C   C1516     1.0  0.77060  0.88828  0.19242  1.0000
  C   C1517     1.0  0.53332  0.74041  0.27264  1.0000
  C   C1518     1.0  0.54802  0.76236  0.26856  1.0000
  C   C1519     1.0  0.56905  0.75996  0.25638  1.0000
  C   C1520     1.0  0.57496  0.73591  0.24770  1.0000
  C   C1521     1.0  0.55974  0.71428  0.25115  1.0000
  C   C1522     1.0  0.53903  0.71646  0.26361  1.0000
  C   C1523     1.0  0.96658  0.74823  0.06267  1.0000
  C   C1524     1.0  0.85973  0.69095  0.16938  1.0000
  H   H1198     1.0  0.80538  0.88120  0.20933  1.0000
  C   C1525     1.0  0.93686  0.55256  0.21195  1.0000
  C   C1526     1.0  0.87534  0.67272  0.15945  1.0000
  H   H1199     1.0  0.90871  0.53551  0.08740  1.0000
  H   H1200     1.0  0.86590  0.69691  0.18279  1.0000
  H   H1201     1.0  0.80359  0.96996  0.12839  1.0000
  C   C1527     1.0  0.78959  0.84505  0.20050  1.0000
  H   H1202     1.0  0.54334  0.78138  0.27474  1.0000
  H   H1203     1.0  0.58063  0.77686  0.25363  1.0000
  H   H1204     1.0  0.59126  0.73404  0.23827  1.0000
  H   H1205     1.0  0.56402  0.69575  0.24421  1.0000
  C   C1528     1.0  0.69748  0.92848  0.21854  1.0000
  P   P48       1.0  0.80567  0.76606  0.28309  1.0000
  C   C1529     1.0  0.77926  0.93860  0.17305  1.0000
  H   H1206     1.0  0.87832  0.64967  0.13495  1.0000
  H   H1207     1.0  0.73158  0.90185  0.21869  1.0000
  C   C1530     1.0  0.92105  0.74025  0.00689  1.0000
  C   C1531     1.0  0.84023  0.81455  0.17388  1.0000
  C   C1532     1.0  0.83167  0.79177  0.18209  1.0000
  C   C1533     1.0  0.84443  0.76745  0.17840  1.0000
  C   C1534     1.0  0.86630  0.76583  0.16704  1.0000
  C   C1535     1.0  0.87530  0.78865  0.15897  1.0000
  C   C1536     1.0  0.86167  0.81298  0.16205  1.0000
  P   P49       1.0  0.90143  0.78556  0.14266  1.0000
  C   C1537     1.0  0.92717  0.76310  0.15116  1.0000
  C   C1538     1.0  0.88514  0.77311  0.12285  1.0000
  C   C1539     1.0  0.88307  0.74580  0.12044  1.0000
  C   C1540     1.0  0.86861  0.73620  0.10588  1.0000
  C   C1541     1.0  0.85554  0.75378  0.09395  1.0000
  C   C1542     1.0  0.85686  0.78094  0.09654  1.0000
  C   C1543     1.0  0.87133  0.79061  0.11106  1.0000
  C   C1544     1.0  0.94198  0.74673  0.13927  1.0000
  C   C1545     1.0  0.98618  0.83418  0.19482  1.0000
  H   H1208     1.0  0.71993  0.66427  0.31619  1.0000
  C   C1546     1.0  0.95227  0.74427  0.17653  1.0000
  C   C1547     1.0  0.93273  0.76207  0.16980  1.0000
  C   C1548     1.0  0.91646  0.81666  0.13943  1.0000
  C   C1549     1.0  0.92127  0.83285  0.15444  1.0000
  C   C1550     1.0  0.93176  0.85752  0.15196  1.0000
  C   C1551     1.0  0.93835  0.86580  0.13458  1.0000
  C   C1552     1.0  0.93472  0.84929  0.11972  1.0000
  C   C1553     1.0  0.92390  0.82475  0.12210  1.0000
  H   H1209     1.0  0.83026  0.83342  0.17656  1.0000
  H   H1210     1.0  0.81530  0.79270  0.19142  1.0000
  H   H1211     1.0  0.83759  0.74990  0.18467  1.0000
  H   H1212     1.0  0.87606  0.74674  0.16450  1.0000
  H   H1213     1.0  0.86735  0.83074  0.15530  1.0000
  H   H1214     1.0  0.89196  0.73185  0.13002  1.0000
  H   H1215     1.0  0.86714  0.71514  0.10393  1.0000
  H   H1216     1.0  0.84424  0.74632  0.08275  1.0000
  H   H1217     1.0  0.84666  0.79457  0.08726  1.0000
  H   H1218     1.0  0.87124  0.81173  0.11325  1.0000
  H   H1219     1.0  0.93846  0.74772  0.12479  1.0000
  C   C1554     1.0  0.79115  0.77287  0.26114  1.0000
  H   H1220     1.0  0.51635  0.89358  0.33232  1.0000
  H   H1221     1.0  0.95617  0.74351  0.19101  1.0000
  H   H1222     1.0  0.92183  0.77488  0.17918  1.0000
  H   H1223     1.0  0.91631  0.82678  0.16805  1.0000
  H   H1224     1.0  0.93435  0.87034  0.16353  1.0000
  H   H1225     1.0  0.94595  0.88512  0.13253  1.0000
  C   C1555     1.0  0.96106  0.59222  0.19237  1.0000
  H   H1226     1.0  0.92092  0.81246  0.11034  1.0000
  H   H1227     1.0  0.76994  0.82528  0.23519  1.0000
  H   H1228     1.0  0.59739  0.76128  0.31412  1.0000
  H   H1229     1.0  0.97599  0.53475  0.21505  1.0000
  C   C1556     1.0  0.76120  0.79408  0.29736  1.0000
  H   H1230     1.0  0.68092  0.83400  0.25261  1.0000
  C   C1557     1.0  0.66173  0.79715  0.25448  1.0000
  C   C1558     1.0  0.88066  0.78473  0.26993  1.0000
  C   C1559     1.0  0.98491  0.95615  0.21266  1.0000
  C   C1560     1.0  0.51774  0.80943  0.32973  1.0000
  C   C1561     1.0  0.64413  0.71329  0.27557  1.0000
  H   H1231     1.0  0.93967  0.85586  0.10624  1.0000
  C   C1562     1.0  0.92105  0.83873  0.01518  1.0000
  H   H1232     1.0  0.52139  0.62351  0.28592  1.0000
  C   C1563     1.0  0.83003  0.94324  0.23884  1.0000
  C   C1564     1.0  0.68358  0.81284  0.25451  1.0000
  H   H1233     1.0  0.64776  0.75847  0.25760  1.0000
  C   C1565     1.0  0.93615  0.50898  0.05838  1.0000
  H   H1234     1.0  0.85750  0.94719  0.21688  1.0000
  C   C1566     1.0  0.97616  0.57060  0.19950  1.0000
  C   C1567     1.0  0.80426  0.93770  0.24356  1.0000
  C   C1568     1.0  0.66505  0.77004  0.25768  1.0000
  H   H1235     1.0  0.71712  0.64431  0.17362  1.0000
  P   P50       1.0  0.95584  0.73171  0.00890  1.0000
  H   H1236     1.0  0.77300  0.67687  0.29214  1.0000
  C   C1569     1.0  0.50297  0.71364  0.30103  1.0000
  C   C1570     1.0  0.66484  0.70676  0.26354  1.0000
  H   H1237     1.0  0.64628  0.72828  0.28589  1.0000
  C   C1571     1.0  0.99061  0.56589  0.10203  1.0000
  C   C1572     1.0  0.77410  0.80493  0.23906  1.0000
  H   H1238     1.0  0.75687  0.78882  0.21497  1.0000
  H   H1239     1.0  0.75492  0.79843  0.28368  1.0000
  C   C1573     1.0  0.61601  0.75415  0.31986  1.0000
  C   C1574     1.0  0.96636  0.72736  0.16469  1.0000
  H   H1240     1.0  0.63290  0.79199  0.31872  1.0000
  H   H1241     1.0  0.89636  0.95215  0.00694  1.0000
  H   H1242     1.0  0.97842  0.79781  0.18132  1.0000
  C   C1575     1.0  0.76680  0.78449  0.22769  1.0000
  C   C1576     1.0  0.94940  0.60386  0.14885  1.0000
  H   H1243     1.0  0.87865  0.98666  0.09920  1.0000
  C   C1577     1.0  0.50499  0.61869  0.29440  1.0000
  C   C1578     1.0  0.78431  0.66553  0.08899  1.0000
  C   C1579     1.0  0.63622  0.77157  0.32245  1.0000
  H   H1244     1.0  0.97594  0.88769  0.02646  1.0000
  C   C1580     1.0  0.78944  0.68489  0.07627  1.0000
  C   C1581     1.0  0.96727  0.83060  0.02274  1.0000
  C   C1582     1.0  0.83547  0.70056  0.16242  1.0000
  C   C1583     1.0  0.70880  0.80144  0.25760  1.0000
  C   C1584     1.0  0.77273  0.75834  0.23263  1.0000
  C   C1585     1.0  0.78660  0.79915  0.25560  1.0000
  H   H1245     1.0  0.76867  0.74256  0.22334  1.0000
  H   H1246     1.0  0.73602  0.83962  0.17301  1.0000
  H   H1247     1.0  0.79639  0.66889  0.17036  1.0000
  C   C1586     1.0  0.99215  0.97188  0.00902  1.0000
  C   C1587     1.0  0.79173  0.77385  0.31918  1.0000
  C   C1588     1.0  0.83374  0.86675  0.00998  1.0000
  S   S233      1.0  0.59390  0.70650  0.32255  1.0000
  H   H1248     1.0  0.91699  0.54231  0.02018  1.0000
  H   H1249     1.0  0.68701  0.91708  0.22837  1.0000
  H   H1250     1.0  0.99125  0.81393  0.15099  1.0000
  C   C1589     1.0  0.78617  0.96506  0.17276  1.0000
  C   C1590     1.0  0.69035  0.75843  0.26104  1.0000
  H   H1251     1.0  0.72552  0.81391  0.25799  1.0000
  C   C1591     1.0  0.81048  0.75461  0.13766  1.0000
  H   H1252     1.0  0.95382  0.58367  0.15300  1.0000
  C   C1592     1.0  0.96112  0.72856  0.14607  1.0000
  H   H1253     1.0  0.96584  0.56729  0.06395  1.0000
  P   P51       1.0  0.69531  0.72345  0.26536  1.0000
  C   C1593     1.0  0.71225  0.77429  0.26065  1.0000
  H   H1254     1.0  0.69680  0.72868  0.22605  1.0000
  H   H1255     1.0  0.56222  0.87962  0.32326  1.0000
  H   H1256     1.0  0.79884  0.93665  0.25774  1.0000
  C   C1594     1.0  0.72805  0.70455  0.32256  1.0000
  C   C1595     1.0  0.51949  0.88020  0.32103  1.0000
  C   C1596     1.0  0.98029  0.92660  0.14456  1.0000
  H   H1257     1.0  0.74386  0.78531  0.15520  1.0000
  C   C1597     1.0  0.92692  0.53815  0.03299  1.0000
  C   C1598     1.0  0.84261  0.67414  0.13536  1.0000
  H   H1258     1.0  0.73190  0.76568  0.26307  1.0000
  H   H1259     1.0  0.94606  0.96226  0.22408  1.0000
  C   C1599     1.0  0.76248  0.77672  0.15032  1.0000
  H   H1260     1.0  0.92107  0.60896  0.18890  1.0000
  C   C1600     1.0  0.99251  0.82666  0.16271  1.0000
  H   H1261     1.0  0.95730  0.94294  0.12217  1.0000
  C   C1601     1.0  0.81992  0.84517  0.00417  1.0000
  C   C1602     1.0  0.70765  0.71661  0.28796  1.0000
  H   H1262     1.0  0.52741  0.69952  0.26612  1.0000
  C   C1603     1.0  0.71844  0.71062  0.24853  1.0000
  C   C1604     1.0  0.71392  0.71644  0.23013  1.0000
  H   H1263     1.0  0.72758  0.71044  0.20268  1.0000
  H   H1264     1.0  0.71374  0.75726  0.29545  1.0000
  C   C1605     1.0  0.76980  0.68481  0.14938  1.0000
  C   C1606     1.0  0.78486  0.75244  0.24928  1.0000
  C   C1607     1.0  0.78469  0.77916  0.30107  1.0000
  H   H1265     1.0  0.93317  0.95835  0.05887  1.0000
  H   H1266     1.0  0.93257  0.67584  0.13359  1.0000
  C   C1608     1.0  0.71907  0.68451  0.31149  1.0000
  H   H1267     1.0  0.73571  0.88813  0.17542  1.0000
  S   S234      1.0  0.69431  0.85991  0.32781  1.0000
  P   P52       1.0  0.97648  0.61820  0.18004  1.0000
  H   H1268     1.0  0.98253  0.82492  0.03253  1.0000
  H   H1269     1.0  0.89354  0.66431  0.16524  1.0000
  C   C1609     1.0  0.73122  0.70611  0.21687  1.0000
  C   C1610     1.0  0.71575  0.73679  0.29944  1.0000
  C   C1611     1.0  0.70878  0.69053  0.29430  1.0000
  H   H1270     1.0  0.70180  0.67478  0.28588  1.0000
  H   H1271     1.0  0.97164  0.71527  0.13686  1.0000
  C   C1612     1.0  0.94659  0.93373  0.20248  1.0000
  C   C1613     1.0  0.92872  0.96693  0.04569  1.0000
  H   H1272     1.0  0.93540  0.82409  0.04102  1.0000
  C   C1614     1.0  0.96215  0.91936  0.18997  1.0000
  C   C1615     1.0  0.95751  0.62485  0.15960  1.0000
  H   H1273     1.0  0.92951  0.59269  0.12422  1.0000
  C   C1616     1.0  0.95447  0.55212  0.05780  1.0000
  C   C1617     1.0  0.78995  0.87249  0.20148  1.0000
  H   H1274     1.0  0.95833  0.68583  0.03323  1.0000
  H   H1275     1.0  0.93566  0.68763  0.21961  1.0000
  C   C1618     1.0  0.75096  0.87623  0.18234  1.0000
  H   H1276     1.0  0.82687  0.81034  0.30374  1.0000
  H   H1277     1.0  0.78976  0.73201  0.25255  1.0000
  C   C1619     1.0  0.88492  0.77346  0.00639  1.0000
  C   C1620     1.0  0.77570  0.78357  0.33332  1.0000
  C   C1621     1.0  0.79020  0.68869  0.29155  1.0000
  C   C1622     1.0  0.96348  0.75071  0.04389  1.0000
  C   C1623     1.0  0.97561  0.69608  0.21272  1.0000
  H   H1278     1.0  0.74971  0.73716  0.15144  1.0000
  C   C1624     1.0  0.74059  0.69446  0.25343  1.0000
  C   C1625     1.0  0.75347  0.69042  0.22194  1.0000
  H   H1279     1.0  0.82285  0.71340  0.17073  1.0000
  H   H1280     1.0  0.77649  0.90321  0.15671  1.0000
  C   C1626     1.0  0.92993  0.63477  0.12704  1.0000
  H   H1281     1.0  0.95681  0.66745  0.16220  1.0000
  H   H1282     1.0  0.54508  0.70397  0.30188  1.0000
  H   H1283     1.0  0.80110  0.73561  0.10461  1.0000
  C   C1627     1.0  0.78101  0.92375  0.15697  1.0000
  H   H1284     1.0  0.88934  0.54365  0.14367  1.0000
  P   P53       1.0  0.76999  0.92372  0.19425  1.0000
  C   C1628     1.0  0.79146  0.69650  0.11350  1.0000
  H   H1285     1.0  0.76725  0.68288  0.21177  1.0000
  C   C1629     1.0  0.61988  0.72767  0.32479  1.0000
  H   H1286     1.0  0.97541  0.71404  0.22071  1.0000
  C   C1630     1.0  0.94072  0.83030  0.02753  1.0000
  C   C1631     1.0  0.51017  0.76889  0.30468  1.0000
  C   C1632     1.0  0.76588  0.74936  0.14814  1.0000
  C   C1633     1.0  0.75817  0.68469  0.24021  1.0000
  C   C1634     1.0  0.82677  0.69232  0.14535  1.0000
  S   S235      1.0  0.64936  0.64610  0.32301  1.0000
  H   H1287     1.0  0.74437  0.68900  0.26734  1.0000
  C   C1635     1.0  0.72493  0.95820  0.19364  1.0000
  H   H1288     1.0  0.78019  0.64580  0.08450  1.0000
  C   C1636     1.0  0.53554  0.77350  0.31120  1.0000
  H   H1289     1.0  0.94422  0.57592  0.03441  1.0000
  C   C1637     1.0  0.73689  0.93483  0.20068  1.0000
  H   H1290     1.0  0.77534  0.67235  0.24418  1.0000
  C   C1638     1.0  0.86681  0.75373  0.00486  1.0000
  H   H1291     1.0  0.54123  0.66445  0.32078  1.0000
  C   C1639     1.0  0.90397  0.53962  0.13319  1.0000
  H   H1292     1.0  0.78924  0.68021  0.06191  1.0000
  H   H1293     1.0  0.85246  0.75759  0.26058  1.0000
  H   H1294     1.0  0.80967  0.76223  0.32233  1.0000
  C   C1640     1.0  0.98672  0.59874  0.23983  1.0000
  C   C1641     1.0  0.97939  0.63385  0.03623  1.0000
  H   H1295     1.0  0.97596  0.63565  0.02179  1.0000
  C   C1642     1.0  0.91492  0.95238  0.03306  1.0000
  C   C1643     1.0  0.94167  0.52870  0.10601  1.0000
  C   C1644     1.0  0.98568  0.79017  0.10802  1.0000
  H   H1296     1.0  0.76295  0.64381  0.18553  1.0000
  H   H1297     1.0  0.83606  0.66658  0.12245  1.0000
  C   C1645     1.0  0.52570  0.69857  0.30623  1.0000
  C   C1646     1.0  0.84188  0.80248  0.29457  1.0000
  H   H1298     1.0  0.76793  0.72507  0.28658  1.0000
  H   H1299     1.0  0.69034  0.98469  0.19363  1.0000
  H   H1300     1.0  0.80047  0.84209  0.00957  1.0000
  C   C1647     1.0  0.89642  0.54026  0.11496  1.0000
  C   C1648     1.0  0.93575  0.60885  0.13259  1.0000
  C   C1649     1.0  0.73170  0.65577  0.16694  1.0000
  C   C1650     1.0  0.86681  0.66448  0.14241  1.0000
  C   C1651     1.0  0.78986  0.73811  0.14160  1.0000
  P   P54       1.0  0.79423  0.70300  0.13755  1.0000
  C   C1652     1.0  0.96049  0.60913  0.24177  1.0000
  H   H1301     1.0  0.93621  0.53414  0.15208  1.0000
  C   C1653     1.0  0.94922  0.52898  0.12438  1.0000
  C   C1654     1.0  0.94223  0.55712  0.04104  1.0000
  C   C1655     1.0  0.91513  0.53477  0.10141  1.0000
  P   P55       1.0  0.96616  0.52166  0.08860  1.0000
  H   H1302     1.0  0.87599  0.54518  0.11132  1.0000
  Fe  Fe118     1.0  0.66977  0.82458  0.32547  1.0000
  C   C1656     1.0  0.95151  0.52798  0.06658  1.0000
  H   H1303     1.0  0.76607  0.92794  0.23414  1.0000
  C   C1657     1.0  0.79653  0.96140  0.14079  1.0000
  C   C1658     1.0  0.80985  0.73096  0.28721  1.0000
  C   C1659     1.0  0.78536  0.67125  0.10752  1.0000
  C   C1660     1.0  0.83696  0.78144  0.28286  1.0000
  H   H1304     1.0  0.96793  0.76573  0.07096  1.0000
  C   C1661     1.0  0.95113  0.65088  0.15408  1.0000
  C   C1662     1.0  0.97605  0.93369  0.12641  1.0000
  H   H1305     1.0  0.81738  0.65525  0.29557  1.0000
  C   C1663     1.0  0.77039  0.83318  0.19004  1.0000
  H   H1306     1.0  0.85267  0.72950  0.28951  1.0000
  H   H1307     1.0  0.96470  0.93099  0.15420  1.0000
  C   C1664     1.0  0.86628  0.81412  0.29420  1.0000
  C   C1665     1.0  0.83498  0.71853  0.28984  1.0000
  C   C1666     1.0  0.79632  0.71598  0.10058  1.0000
  C   C1667     1.0  0.95798  0.95195  0.21391  1.0000
  H   H1308     1.0  0.96613  0.78890  0.10220  1.0000
  C   C1668     1.0  0.80686  0.78195  0.13950  1.0000
  H   H1309     1.0  0.73509  0.97004  0.18402  1.0000
  C   C1669     1.0  0.74384  0.68479  0.14264  1.0000
  H   H1310     1.0  0.79952  0.72497  0.07210  1.0000
  C   C1670     1.0  0.93352  0.59315  0.19467  1.0000
  C   C1671     1.0  0.77649  0.66996  0.16497  1.0000
  H   H1311     1.0  0.70497  0.67021  0.14604  1.0000
  H   H1312     1.0  0.55248  0.76157  0.30656  1.0000
  C   C1672     1.0  0.86463  0.50774  0.00623  1.0000
  H   H1313     1.0  0.73837  0.69569  0.13046  1.0000
  C   C1673     1.0  0.93745  0.65577  0.13783  1.0000
  C   C1674     1.0  0.96408  0.55089  0.20919  1.0000
  C   C1675     1.0  0.90847  0.96305  0.01613  1.0000
  H   H1314     1.0  0.96205  0.77023  0.03796  1.0000
  H   H1315     1.0  0.92563  0.78225  0.00923  1.0000
  C   C1676     1.0  0.85184  0.98449  0.04066  1.0000
  H   H1316     1.0  0.82920  0.74637  0.13279  1.0000
  C   C1677     1.0  0.88581  0.80493  0.28213  1.0000
  H   H1317     1.0  0.89550  0.77824  0.26013  1.0000
  C   C1678     1.0  0.96704  0.72332  0.07073  1.0000
  H   H1318     1.0  0.91924  0.63853  0.11446  1.0000
  H   H1319     1.0  0.92754  0.53773  0.21989  1.0000
  C   C1679     1.0  0.95317  0.68127  0.21205  1.0000
  H   H1320     1.0  0.97296  0.97947  0.00446  1.0000
  H   H1321     1.0  0.85709  0.68171  0.29436  1.0000
  C   C1680     1.0  0.75104  0.84877  0.18101  1.0000
  H   H1322     1.0  0.90473  0.81389  0.28197  1.0000
  C   C1681     1.0  0.85623  0.77316  0.27018  1.0000
  H   H1323     1.0  0.82576  0.93657  0.19317  1.0000
  C   C1682     1.0  0.95370  0.65735  0.20261  1.0000
  C   C1683     1.0  0.50982  0.60517  0.31072  1.0000
  C   C1684     1.0  0.97952  0.88616  0.04089  1.0000
  H   H1324     1.0  0.90063  0.83831  0.01932  1.0000
  H   H1325     1.0  0.73207  0.74637  0.32546  1.0000
  C   C1685     1.0  0.68577  0.95181  0.21154  1.0000
  C   C1686     1.0  0.84473  0.98122  0.00837  1.0000
  C   C1687     1.0  0.97423  0.83952  0.00562  1.0000
  H   H1326     1.0  0.99032  0.57792  0.23732  1.0000
  H   H1327     1.0  0.98642  0.83227  0.10418  1.0000
  H   H1328     1.0  0.72698  0.81498  0.30850  1.0000
  C   C1688     1.0  0.66016  0.76268  0.33033  1.0000
  H   H1329     1.0  0.98016  0.82730  0.20802  1.0000
  C   C1689     1.0  0.91196  0.76678  0.00738  1.0000
  C   C1690     1.0  0.98930  0.92326  0.18869  1.0000
  H   H1330     1.0  0.91156  0.49960  0.03549  1.0000
  H   H1331     1.0  0.98905  0.84625  0.24113  1.0000
  C   C1691     1.0  0.98907  0.88357  0.07823  1.0000
  P   P56       1.0  0.50583  0.74340  0.28809  1.0000
  H   H1332     1.0  0.97151  0.57254  0.10726  1.0000
  H   H1333     1.0  0.97601  0.94222  0.02608  1.0000
  H   H1334     1.0  0.99048  0.74874  0.11297  1.0000
  C   C1692     1.0  0.98523  0.81756  0.17975  1.0000
  H   H1335     1.0  0.98002  0.96732  0.07446  1.0000
  C   C1693     1.0  0.79473  0.97639  0.15669  1.0000
  C   C1694     1.0  0.53939  0.79419  0.32323  1.0000
  H   H1336     1.0  0.84580  0.75885  0.00478  1.0000
  C   C1695     1.0  0.49891  0.66932  0.32327  1.0000
  H   H1337     1.0  0.49737  0.65187  0.33153  1.0000
  H   H1338     1.0  0.90907  0.69983  0.00708  1.0000
  H   H1339     1.0  0.78540  0.97678  0.18505  1.0000
  H   H1340     1.0  0.86151  0.71191  0.00482  1.0000
  H   H1341     1.0  0.99261  0.88204  0.09266  1.0000
  C   C1696     1.0  0.64418  0.71857  0.33195  1.0000
  H   H1342     1.0  0.87793  0.79382  0.00795  1.0000
  C   C1697     1.0  0.91619  0.98819  0.01158  1.0000
  H   H1343     1.0  0.99143  0.64439  0.11965  1.0000
  H   H1344     1.0  0.99224  0.93352  0.09951  1.0000
  H   H1345     1.0  0.55931  0.79893  0.32686  1.0000
  C   C1698     1.0  0.75243  0.79849  0.32947  1.0000
  C   C1699     1.0  0.49748  0.87103  0.31161  1.0000
  H   H1346     1.0  0.99173  0.62620  0.08781  1.0000
  H   H1347     1.0  0.90615  0.98768  0.12709  1.0000
  Fe  Fe119     1.0  0.62578  0.92636  0.49541  1.0000
  S   S236      1.0  0.61902  0.93112  0.46534  1.0000
  S   S237      1.0  0.63535  0.95817  0.51640  1.0000
  Fe  Fe120     1.0  0.61951  0.86558  0.49336  1.0000
  S   S238      1.0  0.61189  0.86625  0.46355  1.0000
  S   S239      1.0  0.62290  0.82820  0.51040  1.0000
  Fe  Fe121     1.0  0.64459  0.89400  0.46182  1.0000
  S   S240      1.0  0.67509  0.88489  0.44009  1.0000
  Fe  Fe122     1.0  0.58705  0.90289  0.46944  1.0000
  S   S241      1.0  0.54821  0.90955  0.45544  1.0000
  S   S242      1.0  0.65444  0.89118  0.49154  1.0000
  S   S243      1.0  0.59162  0.90035  0.49967  1.0000
  Fe  Fe123     1.0  0.60007  0.61073  0.49271  1.0000
  S   S244      1.0  0.59695  0.60814  0.46220  1.0000
  S   S245      1.0  0.60800  0.57803  0.51416  1.0000
  Fe  Fe124     1.0  0.59491  0.67223  0.49200  1.0000
  S   S246      1.0  0.59093  0.67397  0.46185  1.0000
  S   S247      1.0  0.59414  0.70748  0.51118  1.0000
  Fe  Fe125     1.0  0.56479  0.64001  0.46472  1.0000
  S   S248      1.0  0.52880  0.64361  0.44676  1.0000
  Fe  Fe126     1.0  0.62328  0.64238  0.46142  1.0000
  S   S249      1.0  0.65700  0.64726  0.44209  1.0000
  S   S250      1.0  0.56559  0.64057  0.49520  1.0000
  S   S251      1.0  0.62945  0.64281  0.49161  1.0000
  S   S252      1.0  0.64498  0.90839  0.35817  1.0000
  S   S253      1.0  0.64986  0.59508  0.36429  1.0000
  C   C1700     1.0  0.65393  0.63383  0.42019  1.0000
  C   C1701     1.0  0.67690  0.62567  0.41093  1.0000
  C   C1702     1.0  0.67532  0.61416  0.39371  1.0000
  C   C1703     1.0  0.65085  0.61193  0.38516  1.0000
  C   C1704     1.0  0.62777  0.62097  0.39411  1.0000
  C   C1705     1.0  0.62929  0.63145  0.41181  1.0000
  H   H1348     1.0  0.69598  0.62753  0.41729  1.0000
  H   H1349     1.0  0.69317  0.60697  0.38696  1.0000
  H   H1350     1.0  0.60879  0.61904  0.38761  1.0000
  H   H1351     1.0  0.61152  0.63751  0.41903  1.0000
  C   C1706     1.0  0.60709  0.54299  0.51689  1.0000
  C   C1707     1.0  0.59647  0.52652  0.50377  1.0000
  C   C1708     1.0  0.61713  0.53142  0.53304  1.0000
  H   H1352     1.0  0.58842  0.53499  0.49137  1.0000
  H   H1353     1.0  0.62533  0.54386  0.54334  1.0000
  Fe  Fe127     1.0  0.65543  0.88090  0.33480  1.0000
  C   C1709     1.0  0.54528  0.81364  0.52754  1.0000
  H   H1354     1.0  0.57861  0.49779  0.59968  1.0000
  C   C1710     1.0  0.50797  0.71506  0.42649  1.0000
  H   H1355     1.0  0.53450  0.59398  0.46552  1.0000
  C   C1711     1.0  0.66510  0.88873  0.41726  1.0000
  C   C1712     1.0  0.68257  0.88059  0.40342  1.0000
  C   C1713     1.0  0.67570  0.88462  0.38509  1.0000
  C   C1714     1.0  0.65154  0.89745  0.38053  1.0000
  C   C1715     1.0  0.63365  0.90465  0.39436  1.0000
  C   C1716     1.0  0.64034  0.90027  0.41268  1.0000
  H   H1356     1.0  0.70171  0.87169  0.40690  1.0000
  H   H1357     1.0  0.68966  0.87907  0.37454  1.0000
  H   H1358     1.0  0.61483  0.91422  0.39090  1.0000
  H   H1359     1.0  0.62667  0.90651  0.42325  1.0000
  C   C1717     1.0  0.61605  0.79430  0.50810  1.0000
  C   C1718     1.0  0.60276  0.78343  0.49326  1.0000
  C   C1719     1.0  0.59708  0.75626  0.49325  1.0000
  C   C1720     1.0  0.60491  0.73998  0.50798  1.0000
  C   C1721     1.0  0.61863  0.75101  0.52237  1.0000
  C   C1722     1.0  0.62410  0.77774  0.52244  1.0000
  H   H1360     1.0  0.59627  0.79604  0.48215  1.0000
  H   H1361     1.0  0.58580  0.74819  0.48227  1.0000
  H   H1362     1.0  0.62455  0.73888  0.53387  1.0000
  H   H1363     1.0  0.63430  0.78580  0.53395  1.0000
  C   C1723     1.0  0.52640  0.88770  0.46473  1.0000
  H   H1364     1.0  0.55265  0.68381  0.57879  1.0000
  C   C1724     1.0  0.53564  0.86791  0.47667  1.0000
  H   H1365     1.0  0.76583  0.97601  0.60430  1.0000
  H   H1366     1.0  0.55636  0.86575  0.48006  1.0000
  P   P57       1.0  0.63828  0.53267  0.44198  1.0000
  C   C1725     1.0  0.55754  0.57419  0.42846  1.0000
  S   S254      1.0  0.59097  0.63496  0.34019  1.0000
  C   C1726     1.0  0.68521  0.95709  0.39415  1.0000
  C   C1727     1.0  0.58451  0.49959  0.64809  1.0000
  C   C1728     1.0  0.53909  0.88851  0.38312  1.0000
  H   H1367     1.0  0.59413  0.96525  0.37318  1.0000
  H   H1368     1.0  0.56574  0.50445  0.65448  1.0000
  C   C1729     1.0  0.60485  0.56945  0.42419  1.0000
  H   H1369     1.0  0.50547  0.95328  0.47094  1.0000
  C   C1730     1.0  0.52206  0.80623  0.53603  1.0000
  H   H1370     1.0  0.57141  0.84502  0.52270  1.0000
  H   H1371     1.0  0.70334  0.92563  0.46031  1.0000
  C   C1731     1.0  0.49604  0.51223  0.63962  1.0000
  H   H1372     1.0  0.57935  0.59835  0.41057  1.0000
  C   C1732     1.0  0.69913  0.50878  0.40871  1.0000
  C   C1733     1.0  0.61033  0.97065  0.42446  1.0000
  C   C1734     1.0  0.49609  0.60927  0.52017  1.0000
  C   C1735     1.0  0.68188  0.95637  0.47502  1.0000
  C   C1736     1.0  0.68489  0.98209  0.40230  1.0000
  H   H1373     1.0  0.53231  0.74739  0.59911  1.0000
  C   C1737     1.0  0.69140  0.94390  0.45931  1.0000
  H   H1374     1.0  0.55541  0.52091  0.40399  1.0000
  C   C1738     1.0  0.64999  0.49764  0.47072  1.0000
  C   C1739     1.0  0.56905  0.83779  0.43353  1.0000
  C   C1740     1.0  0.50125  0.90243  0.51249  1.0000
  H   H1375     1.0  0.50005  0.74213  0.38374  1.0000
  H   H1376     1.0  0.51954  0.89063  0.51144  1.0000
  C   C1741     1.0  0.64632  0.52637  0.40449  1.0000
  H   H1377     1.0  0.70196  0.60275  0.44914  1.0000
  C   C1742     1.0  0.49731  0.94597  0.42508  1.0000
  C   C1743     1.0  0.51469  0.97126  0.47490  1.0000
  C   C1744     1.0  0.57863  0.88209  0.36484  1.0000
  H   H1378     1.0  0.54559  0.87760  0.54131  1.0000
  H   H1379     1.0  0.60512  0.52715  0.66454  1.0000
  H   H1380     1.0  0.55729  0.79948  0.51977  1.0000
  C   C1745     1.0  0.49441  0.85627  0.38608  1.0000
  C   C1746     1.0  0.56562  0.73812  0.58181  1.0000
  H   H1381     1.0  0.79285  0.98814  0.54997  1.0000
  C   C1747     1.0  0.55473  0.56541  0.36959  1.0000
  C   C1748     1.0  0.50056  0.92897  0.50749  1.0000
  C   C1749     1.0  0.55259  0.82342  0.44449  1.0000
  C   C1750     1.0  0.51598  0.85044  0.54849  1.0000
  H   H1382     1.0  0.65774  0.58489  0.49662  1.0000
  P   P58       1.0  0.51329  0.77229  0.53545  1.0000
  H   H1383     1.0  0.57828  0.73086  0.59277  1.0000
  H   H1384     1.0  0.58559  0.54127  0.38222  1.0000
  C   C1751     1.0  0.52055  0.54232  0.39395  1.0000
  H   H1385     1.0  0.67095  0.94303  0.39801  1.0000
  C   C1752     1.0  0.53085  0.85667  0.41731  1.0000
  C   C1753     1.0  0.49764  0.90326  0.41010  1.0000
  C   C1754     1.0  0.52526  0.82587  0.44205  1.0000
  C   C1755     1.0  0.55352  0.83938  0.52933  1.0000
  H   H1386     1.0  0.54129  0.54771  0.44772  1.0000
  C   C1756     1.0  0.53280  0.57664  0.51870  1.0000
  H   H1387     1.0  0.62257  0.57633  0.41799  1.0000
  C   C1757     1.0  0.52353  0.75711  0.57122  1.0000
  H   H1388     1.0  0.65391  0.52457  0.37576  1.0000
  C   C1758     1.0  0.52640  0.66676  0.53821  1.0000
  C   C1759     1.0  0.57384  0.90689  0.35703  1.0000
  C   C1760     1.0  0.54398  0.67720  0.55062  1.0000
  H   H1389     1.0  0.71962  0.50203  0.41032  1.0000
  C   C1761     1.0  0.58044  0.58212  0.42007  1.0000
  C   C1762     1.0  0.62247  0.97690  0.39310  1.0000
  C   C1763     1.0  0.66867  0.97757  0.44080  1.0000
  C   C1764     1.0  0.51619  0.55839  0.51117  1.0000
  C   C1765     1.0  0.52824  0.73394  0.47966  1.0000
  C   C1766     1.0  0.53238  0.71912  0.49540  1.0000
  C   C1767     1.0  0.52848  0.73090  0.51236  1.0000
  C   C1768     1.0  0.52092  0.75775  0.51369  1.0000
  H   H1390     1.0  0.50383  0.76507  0.57428  1.0000
  C   C1769     1.0  0.68354  0.51425  0.42399  1.0000
  H   H1391     1.0  0.51236  0.81570  0.45104  1.0000
  C   C1770     1.0  0.53378  0.91295  0.37461  1.0000
  C   C1771     1.0  0.57532  0.73859  0.56412  1.0000
  C   C1772     1.0  0.55920  0.74838  0.55000  1.0000
  H   H1392     1.0  0.70689  0.67893  0.36447  1.0000
  H   H1393     1.0  0.65791  0.98858  0.48589  1.0000
  H   H1394     1.0  0.53864  0.69845  0.49447  1.0000
  H   H1395     1.0  0.53141  0.71901  0.52438  1.0000
  C   C1773     1.0  0.63532  0.50256  0.45475  1.0000
  H   H1396     1.0  0.59547  0.73170  0.56130  1.0000
  H   H1397     1.0  0.56729  0.74938  0.53649  1.0000
  C   C1774     1.0  0.49850  0.65390  0.56293  1.0000
  C   C1775     1.0  0.69762  0.70970  0.41969  1.0000
  C   C1776     1.0  0.72400  0.70056  0.41892  1.0000
  C   C1777     1.0  0.74407  0.71832  0.42060  1.0000
  C   C1778     1.0  0.73776  0.74521  0.42324  1.0000
  C   C1779     1.0  0.71123  0.75457  0.42393  1.0000
  C   C1780     1.0  0.69127  0.73664  0.42193  1.0000
  P   P59       1.0  0.70245  0.78873  0.42905  1.0000
  C   C1781     1.0  0.69262  0.79199  0.45254  1.0000
  C   C1782     1.0  0.73070  0.80852  0.42572  1.0000
  C   C1783     1.0  0.73368  0.82291  0.40966  1.0000
  C   C1784     1.0  0.75552  0.83833  0.40739  1.0000
  C   C1785     1.0  0.77459  0.83943  0.42107  1.0000
  C   C1786     1.0  0.77188  0.82507  0.43704  1.0000
  C   C1787     1.0  0.75004  0.80966  0.43937  1.0000
  C   C1788     1.0  0.69185  0.81691  0.46086  1.0000
  C   C1789     1.0  0.68481  0.81970  0.47908  1.0000
  C   C1790     1.0  0.67867  0.79765  0.48919  1.0000
  C   C1791     1.0  0.67932  0.77278  0.48107  1.0000
  C   C1792     1.0  0.68641  0.76987  0.46284  1.0000
  C   C1793     1.0  0.67620  0.80061  0.41401  1.0000
  C   C1794     1.0  0.67641  0.79279  0.39573  1.0000
  C   C1795     1.0  0.65774  0.80379  0.38355  1.0000
  C   C1796     1.0  0.63863  0.82253  0.38952  1.0000
  C   C1797     1.0  0.63797  0.83008  0.40772  1.0000
  C   C1798     1.0  0.65669  0.81926  0.41994  1.0000
  H   H1398     1.0  0.68212  0.69578  0.41852  1.0000
  H   H1399     1.0  0.72882  0.67967  0.41715  1.0000
  H   H1400     1.0  0.76455  0.71116  0.42010  1.0000
  H   H1401     1.0  0.75364  0.75847  0.42485  1.0000
  H   H1402     1.0  0.67079  0.74353  0.42248  1.0000
  H   H1403     1.0  0.71912  0.82267  0.39891  1.0000
  H   H1404     1.0  0.75748  0.84964  0.39507  1.0000
  H   H1405     1.0  0.79140  0.85153  0.41933  1.0000
  H   H1406     1.0  0.78661  0.82601  0.44768  1.0000
  H   H1407     1.0  0.74820  0.79872  0.45186  1.0000
  H   H1408     1.0  0.69665  0.83427  0.45325  1.0000
  H   H1409     1.0  0.68396  0.83900  0.48538  1.0000
  H   H1410     1.0  0.67322  0.79990  0.50333  1.0000
  H   H1411     1.0  0.67426  0.75577  0.48897  1.0000
  H   H1412     1.0  0.68706  0.75033  0.45702  1.0000
  H   H1413     1.0  0.69163  0.77898  0.39068  1.0000
  H   H1414     1.0  0.65861  0.79837  0.36933  1.0000
  H   H1415     1.0  0.62482  0.83178  0.37993  1.0000
  H   H1416     1.0  0.62379  0.84534  0.41220  1.0000
  H   H1417     1.0  0.65639  0.82636  0.43377  1.0000
  C   C1799     1.0  0.54052  0.75791  0.42585  1.0000
  C   C1800     1.0  0.55062  0.73321  0.43155  1.0000
  C   C1801     1.0  0.53452  0.71177  0.43149  1.0000
  H   H1418     1.0  0.73657  0.96255  0.36514  1.0000
  H   H1419     1.0  0.68276  0.72915  0.34077  1.0000
  P   P60       1.0  0.51591  0.87624  0.39918  1.0000
  C   C1802     1.0  0.52776  0.57250  0.36924  1.0000
  S   S255      1.0  0.63217  0.84464  0.33509  1.0000
  H   H1420     1.0  0.73975  0.80579  0.34036  1.0000
  C   C1803     1.0  0.65714  0.52356  0.42200  1.0000
  H   H1421     1.0  0.50913  0.79280  0.49854  1.0000
  H   H1422     1.0  0.69221  0.51176  0.43737  1.0000
  H   H1423     1.0  0.57286  0.95349  0.42881  1.0000
  H   H1424     1.0  0.69174  0.61047  0.48157  1.0000
  H   H1425     1.0  0.56175  0.68592  0.54577  1.0000
  H   H1426     1.0  0.69184  0.94384  0.43032  1.0000
  H   H1427     1.0  0.55320  0.77444  0.42559  1.0000
  H   H1428     1.0  0.57081  0.73055  0.43627  1.0000
  H   H1429     1.0  0.54256  0.69268  0.43583  1.0000
  H   H1430     1.0  0.51294  0.81906  0.39477  1.0000
  C   C1804     1.0  0.58052  0.95883  0.40038  1.0000
  C   C1805     1.0  0.60686  0.51237  0.65394  1.0000
  H   H1431     1.0  0.59017  0.83623  0.43563  1.0000
  C   C1806     1.0  0.64924  0.56226  0.47276  1.0000
  C   C1807     1.0  0.49963  0.88999  0.46020  1.0000
  H   H1432     1.0  0.68634  0.94784  0.48823  1.0000
  C   C1808     1.0  0.53305  0.75728  0.55338  1.0000
  H   H1433     1.0  0.50789  0.96239  0.43028  1.0000
  C   C1809     1.0  0.68195  0.59534  0.47412  1.0000
  C   C1810     1.0  0.53897  0.85773  0.53985  1.0000
  H   H1434     1.0  0.52512  0.83581  0.49374  1.0000
  C   C1811     1.0  0.51797  0.85073  0.48429  1.0000
  H   H1435     1.0  0.56456  0.85293  0.38282  1.0000
  H   H1436     1.0  0.56789  0.57433  0.36005  1.0000
  C   C1812     1.0  0.54759  0.53515  0.39419  1.0000
  C   C1813     1.0  0.68477  0.95434  0.44225  1.0000
  H   H1437     1.0  0.67877  0.56963  0.43174  1.0000
  H   H1438     1.0  0.53081  0.66757  0.52387  1.0000
  S   S256      1.0  0.68427  0.78498  0.33561  1.0000
  C   C1814     1.0  0.50624  0.61983  0.45160  1.0000
  C   C1815     1.0  0.70369  0.95014  0.38076  1.0000
  C   C1816     1.0  0.56047  0.65830  0.40105  1.0000
  C   C1817     1.0  0.54892  0.65379  0.38417  1.0000
  C   C1818     1.0  0.55357  0.67049  0.36966  1.0000
  C   C1819     1.0  0.57088  0.69085  0.37173  1.0000
  C   C1820     1.0  0.58312  0.69519  0.38853  1.0000
  C   C1821     1.0  0.57745  0.67897  0.40327  1.0000
  P   P61       1.0  0.60734  0.72009  0.39009  1.0000
  C   C1822     1.0  0.63836  0.70748  0.38076  1.0000
  C   C1823     1.0  0.59340  0.74876  0.37839  1.0000
  C   C1824     1.0  0.60884  0.76409  0.36726  1.0000
  C   C1825     1.0  0.59822  0.78770  0.35996  1.0000
  C   C1826     1.0  0.57213  0.79608  0.36357  1.0000
  C   C1827     1.0  0.55627  0.78030  0.37395  1.0000
  C   C1828     1.0  0.56687  0.75679  0.38142  1.0000
  C   C1829     1.0  0.66073  0.72253  0.38219  1.0000
  C   C1830     1.0  0.68537  0.71235  0.37631  1.0000
  C   C1831     1.0  0.68788  0.68693  0.36906  1.0000
  C   C1832     1.0  0.66575  0.67178  0.36762  1.0000
  C   C1833     1.0  0.64105  0.68194  0.37342  1.0000
  C   C1834     1.0  0.61488  0.72981  0.41310  1.0000
  C   C1835     1.0  0.62613  0.71116  0.42525  1.0000
  C   C1836     1.0  0.63215  0.71838  0.44305  1.0000
  C   C1837     1.0  0.62746  0.74440  0.44879  1.0000
  C   C1838     1.0  0.61743  0.76343  0.43659  1.0000
  C   C1839     1.0  0.61134  0.75627  0.41877  1.0000
  H   H1439     1.0  0.55668  0.64547  0.41237  1.0000
  H   H1440     1.0  0.53668  0.63714  0.38222  1.0000
  H   H1441     1.0  0.54464  0.66701  0.35655  1.0000
  H   H1442     1.0  0.57529  0.70277  0.36005  1.0000
  H   H1443     1.0  0.58626  0.68172  0.41642  1.0000
  H   H1444     1.0  0.62899  0.75796  0.36407  1.0000
  H   H1445     1.0  0.61023  0.79934  0.35131  1.0000
  H   H1446     1.0  0.56408  0.81445  0.35788  1.0000
  H   H1447     1.0  0.53574  0.78615  0.37605  1.0000
  H   H1448     1.0  0.55446  0.74485  0.38960  1.0000
  H   H1449     1.0  0.65910  0.74209  0.38796  1.0000
  H   H1450     1.0  0.70248  0.72420  0.37732  1.0000
  C   C1840     1.0  0.51417  0.59714  0.46120  1.0000
  H   H1451     1.0  0.66771  0.65208  0.36194  1.0000
  H   H1452     1.0  0.62433  0.66963  0.37221  1.0000
  H   H1453     1.0  0.63049  0.69099  0.42095  1.0000
  H   H1454     1.0  0.64067  0.70372  0.45236  1.0000
  H   H1455     1.0  0.63201  0.74987  0.46264  1.0000
  H   H1456     1.0  0.61454  0.78376  0.44098  1.0000
  H   H1457     1.0  0.60398  0.77151  0.40957  1.0000
  H   H1458     1.0  0.53613  0.61539  0.52939  1.0000
  C   C1841     1.0  0.55119  0.92213  0.36168  1.0000
  H   H1459     1.0  0.49333  0.60646  0.40784  1.0000
  H   H1460     1.0  0.59607  0.87029  0.36099  1.0000
  C   C1842     1.0  0.56100  0.87260  0.37748  1.0000
  H   H1461     1.0  0.55342  0.57111  0.52113  1.0000
  H   H1462     1.0  0.54664  0.96510  0.45603  1.0000
  C   C1843     1.0  0.67458  0.57195  0.44605  1.0000
  C   C1844     1.0  0.52284  0.60194  0.52328  1.0000
  C   C1845     1.0  0.49575  0.57834  0.46510  1.0000
  C   C1846     1.0  0.53971  0.74735  0.58536  1.0000
  C   C1847     1.0  0.51447  0.84250  0.42857  1.0000
  H   H1463     1.0  0.57128  0.86722  0.41294  1.0000
  C   C1848     1.0  0.55901  0.55349  0.44094  1.0000
  C   C1849     1.0  0.58651  0.96047  0.41884  1.0000
  C   C1850     1.0  0.55823  0.85498  0.42035  1.0000
  C   C1851     1.0  0.51409  0.76124  0.42045  1.0000
  H   H1464     1.0  0.51637  0.77198  0.46861  1.0000
  H   H1465     1.0  0.56094  0.81115  0.45530  1.0000
  C   C1852     1.0  0.51111  0.92487  0.41658  1.0000
  H   H1466     1.0  0.70329  0.93099  0.37426  1.0000
  H   H1467     1.0  0.62594  0.53283  0.40241  1.0000
  H   H1468     1.0  0.53871  0.58435  0.42549  1.0000
  C   C1853     1.0  0.53883  0.67604  0.56918  1.0000
  C   C1854     1.0  0.66267  0.58104  0.48255  1.0000
  H   H1469     1.0  0.52050  0.58695  0.35939  1.0000
  C   C1855     1.0  0.68847  0.51255  0.39134  1.0000
  C   C1856     1.0  0.51604  0.66455  0.57533  1.0000
  H   H1470     1.0  0.54702  0.94095  0.35510  1.0000
  C   C1857     1.0  0.60646  0.54828  0.43644  1.0000
  C   C1858     1.0  0.51038  0.56081  0.38127  1.0000
  H   H1471     1.0  0.53238  0.92504  0.41550  1.0000
  C   C1859     1.0  0.68784  0.59084  0.45587  1.0000
  H   H1472     1.0  0.56217  0.95080  0.39602  1.0000
  H   H1473     1.0  0.53114  0.72454  0.46667  1.0000
  P   P62       1.0  0.65982  0.99122  0.41883  1.0000
  C   C1860     1.0  0.56465  0.54668  0.38202  1.0000
  C   C1861     1.0  0.65573  0.55691  0.45459  1.0000
  C   C1862     1.0  0.50757  0.82474  0.54666  1.0000
  H   H1474     1.0  0.63377  0.55200  0.47940  1.0000
  H   H1475     1.0  0.52398  0.53879  0.50767  1.0000
  H   H1476     1.0  0.66400  0.51137  0.47562  1.0000
  H   H1477     1.0  0.73588  0.69991  0.33592  1.0000
  H   H1478     1.0  0.50670  0.78048  0.41591  1.0000
  H   H1479     1.0  0.57416  0.49883  0.56640  1.0000
  C   C1863     1.0  0.58339  0.54077  0.44511  1.0000
  H   H1480     1.0  0.50783  0.53355  0.40373  1.0000
  C   C1864     1.0  0.52002  0.76055  0.48081  1.0000
  Fe  Fe128     1.0  0.63099  0.61467  0.33959  1.0000
  H   H1481     1.0  0.79725  0.96483  0.57945  1.0000
  C   C1865     1.0  0.61700  0.50389  0.53596  1.0000
  H   H1482     1.0  0.51607  0.92483  0.37776  1.0000
  C   C1866     1.0  0.66206  0.52127  0.38924  1.0000
  C   C1867     1.0  0.59617  0.49899  0.50676  1.0000
  H   H1483     1.0  0.78122  0.77943  0.34727  1.0000
  H   H1484     1.0  0.51866  0.93731  0.50309  1.0000
  C   C1868     1.0  0.78160  0.97990  0.57743  1.0000
  C   C1869     1.0  0.51616  0.77238  0.49779  1.0000
  C   C1870     1.0  0.59845  0.96712  0.38752  1.0000
  C   C1871     1.0  0.72234  0.96797  0.37559  1.0000
  C   C1872     1.0  0.53801  0.97792  0.46635  1.0000
  C   C1873     1.0  0.62870  0.97857  0.41165  1.0000
  H   H1485     1.0  0.50471  0.86473  0.55664  1.0000
  C   C1874     1.0  0.49738  0.73998  0.42125  1.0000
  H   H1486     1.0  0.58416  0.52561  0.45540  1.0000
  H   H1487     1.0  0.61441  0.97211  0.43879  1.0000
  C   C1875     1.0  0.66576  0.97938  0.47369  1.0000
  H   H1488     1.0  0.49590  0.69813  0.42703  1.0000
  H   H1489     1.0  0.51212  0.66361  0.58973  1.0000
  C   C1876     1.0  0.65902  0.98989  0.45670  1.0000
  C   C1877     1.0  0.63158  0.50568  0.64642  1.0000
  C   C1878     1.0  0.50367  0.65480  0.54426  1.0000
  H   H1490     1.0  0.50980  0.98911  0.53050  1.0000
  H   H1491     1.0  0.58752  0.91403  0.34711  1.0000
  H   H1492     1.0  0.52069  0.82608  0.33859  1.0000
  H   H1493     1.0  0.63624  0.98289  0.38289  1.0000
  H   H1494     1.0  0.49673  0.53834  0.34944  1.0000
  C   C1879     1.0  0.50391  0.98725  0.48882  1.0000
  H   H1495     1.0  0.49569  0.65473  0.40889  1.0000
  H   H1496     1.0  0.50204  0.56037  0.47202  1.0000
  C   C1880     1.0  0.76390  0.98620  0.59143  1.0000
  H   H1497     1.0  0.64895  0.51529  0.65112  1.0000
  C   C1881     1.0  0.49752  0.82867  0.38666  1.0000
  H   H1498     1.0  0.64727  0.69822  0.33578  1.0000
  H   H1499     1.0  0.49328  0.84478  0.42706  1.0000
  H   H1500     1.0  0.62512  0.49545  0.54836  1.0000
  H   H1501     1.0  0.53245  0.51395  0.62495  1.0000
  H   H1502     1.0  0.70067  0.50890  0.37948  1.0000
  C   C1882     1.0  0.52008  0.50163  0.63293  1.0000
  C   C1883     1.0  0.66425  0.73610  0.33483  1.0000
  C   C1884     1.0  0.84654  0.54514  0.93527  1.0000
  C   C1885     1.0  0.90428  0.89410  0.97764  1.0000
  H   H1503     1.0  0.98694  0.64175  0.96645  1.0000
  C   C1886     1.0  0.88341  0.93472  0.96572  1.0000
  C   C1887     1.0  0.82615  0.52914  0.94055  1.0000
  C   C1888     1.0  0.98287  0.78584  0.97350  1.0000
  C   C1889     1.0  0.95840  0.67433  0.96975  1.0000
  H   H1504     1.0  0.85936  0.58483  0.93305  1.0000
  H   H1505     1.0  0.78598  0.52902  0.95041  1.0000
  H   H1506     1.0  0.96046  0.85401  0.97980  1.0000
  H   H1507     1.0  0.99216  0.96452  0.96838  1.0000
  C   C1890     1.0  0.83713  0.49879  0.74344  1.0000
  H   H1508     1.0  0.90645  0.96912  0.96714  1.0000
  H   H1509     1.0  0.87085  0.51170  0.96342  1.0000
  C   C1891     1.0  0.88412  0.49459  0.72368  1.0000
  C   C1892     1.0  0.87293  0.51943  0.72818  1.0000
  C   C1893     1.0  0.96462  0.70220  0.99616  1.0000
  H   H1510     1.0  0.92369  0.77760  0.94689  1.0000
  C   C1894     1.0  0.92790  0.84768  0.99792  1.0000
  C   C1895     1.0  0.83113  0.82772  0.99136  1.0000
  H   H1511     1.0  0.94359  0.89835  0.98879  1.0000
  H   H1512     1.0  0.94493  0.94533  0.98177  1.0000
  H   H1513     1.0  0.82032  0.81104  0.98683  1.0000
  C   C1896     1.0  0.88254  0.90781  0.96953  1.0000
  P   P63       1.0  0.90292  0.85903  0.98178  1.0000
  H   H1514     1.0  0.95698  0.96049  0.94531  1.0000
  P   P64       1.0  0.83022  0.49378  0.93871  1.0000
  C   C1897     1.0  0.90605  0.94815  0.96981  1.0000
  H   H1515     1.0  0.91524  0.49328  0.97143  1.0000
  C   C1898     1.0  0.80223  0.54097  0.94673  1.0000
  C   C1899     1.0  0.95467  0.84741  0.99308  1.0000
  C   C1900     1.0  0.79919  0.56839  0.94835  1.0000
  H   H1516     1.0  0.93348  0.70835  0.97610  1.0000
  C   C1901     1.0  0.98046  0.98192  0.96423  1.0000
  H   H1517     1.0  0.90233  0.49296  0.71602  1.0000
  H   H1518     1.0  0.86488  0.53644  0.92999  1.0000
  C   C1902     1.0  0.98084  0.65879  0.97455  1.0000
  C   C1903     1.0  0.90891  0.84058  0.96112  1.0000
  C   C1904     1.0  0.91527  0.81338  0.96203  1.0000
  C   C1905     1.0  0.91928  0.79866  0.94614  1.0000
  C   C1906     1.0  0.91725  0.81105  0.92926  1.0000
  C   C1907     1.0  0.91113  0.83815  0.92825  1.0000
  C   C1908     1.0  0.90692  0.85290  0.94410  1.0000
  C   C1909     1.0  0.81982  0.58418  0.94354  1.0000
  C   C1910     1.0  0.87042  0.85328  0.99041  1.0000
  H   H1519     1.0  0.86632  0.94527  0.95983  1.0000
  H   H1520     1.0  0.81892  0.50087  0.75101  1.0000
  H   H1521     1.0  0.86475  0.89776  0.96629  1.0000
  H   H1522     1.0  0.81749  0.60542  0.94495  1.0000
  C   C1911     1.0  0.84343  0.57257  0.93689  1.0000
  C   C1912     1.0  0.96753  0.76728  0.98190  1.0000
  H   H1523     1.0  0.86433  0.81816  0.97440  1.0000
  H   H1524     1.0  0.81832  0.50718  0.97665  1.0000
  H   H1525     1.0  0.94711  0.66940  0.95782  1.0000
  C   C1913     1.0  0.92684  0.90789  0.98198  1.0000
  H   H1526     1.0  0.84070  0.54079  0.74147  1.0000
  H   H1527     1.0  0.88244  0.53707  0.72401  1.0000
  C   C1914     1.0  0.92773  0.93473  0.97796  1.0000
  H   H1528     1.0  0.91665  0.80350  0.97504  1.0000
  C   C1915     1.0  0.85621  0.83185  0.98437  1.0000
  H   H1529     1.0  0.92021  0.79964  0.91693  1.0000
  H   H1530     1.0  0.90941  0.84773  0.91514  1.0000
  H   H1531     1.0  0.90201  0.87380  0.94295  1.0000
  H   H1532     1.0  0.95017  0.76062  0.97503  1.0000
  C   C1916     1.0  0.95054  0.69620  0.98033  1.0000
  H   H1533     1.0  0.97722  0.79369  0.96033  1.0000
  H   H1534     1.0  0.78085  0.57739  0.95345  1.0000
  C   C1917     1.0  0.96068  0.97958  0.95109  1.0000
  C   C1918     1.0  0.84943  0.52152  0.73803  1.0000
  H   H1535     1.0  0.87505  0.51723  0.99552  1.0000
  C   C1919     1.0  0.87898  0.49468  0.95613  1.0000
  H   H1536     1.0  0.84122  0.96940  0.99648  1.0000
  C   C1920     1.0  0.97483  0.75701  0.99896  1.0000
