data_image0
_chemical_formula_structural       CH3C6SC3H2CHC2HCHCHC2H2CHCH2C2H3C2H4C2FeCHC2SC3H4CH2C2HCH2C2H2SHCHCHC2HC3H2C2HCSCHCHC3HSCPH2C2HSHCH3CS2C3HFeC3H2C3H2FeH2C3HC2H2CHC7HC3H2C2SPCHC2HCH2C2HC4H3CHCHCHC2S2H2SH2C2H2CFeH3C2H2CH2C4PCHCHCHC2H3C2HCHCH2CHPH2FeC6HC3HSCH2C3HC3H3C2SC2H4C2H2C4HFeSCHSFeC4H2C3HC5HFeSCFeCHCHSC2HCHPCH2C2SH2CHPCFeC3HC2SC4HC3PH2CSCHCH2CFeHS2HCHCHCH2C2H2C3HC2SH2FeH2C3HCHCSHC3FeC5HC2H4C2H2CHC3H2C2H2CH2CHCH3CFeHCFeCHC2SHC2H2C4HCH2PHCHCHCH2CHSCSC3H3C2SC2HC4HC2H3C5HCH2CHCHC3HC3HCH2CHSC2HCH3C2H2PH3C3H3CH2CPC2H2C2HC2HC2H2CHCHCHCHCHCHC2HFeHFeCHCHCH2CHC4FeC2H3CPH2CHC4HFeCSCSHSCS3H3C2HCSHC2H6C2HC3HC4H2C2H2CHC3HCHCH3CHC2HC2HC5H2CHC4H2CHCHSH2PHC2PFeHCHC2S3FeC2HC4HCH2C3HCHC3SH3C2HCHC2HCHC2SHCFeH4CHCH4PHCHC3HC2HCSC2FeH2CHCSCHC2HCH2CH3CSH2C4SCH2CFeH2CSCH3C2HFeCS2C3H3FeC2HFeCHCS3H2CHFeCHC2SHCH2PCHCFeC3H2C3H2CH3CHC4HC2HC2HC3HCH2C2HCH2C3HC4HCSCH2C4PC3H6CHSHCH2CH3S2FeH2C2PCH4CSCH3C3H2CH2C4H2CSHCFeCHCHC6H4CHFeCH3SC8HSCH3C2SCHSHSHCHC3HC2HCSH2SFeC2HC2HCH3C2H2C5H2C2HC7HCH4CPCH3C4H7C2HC6HCHC2H4CHCH2C4H3CHPCPC2H4CHCSHCHC4H2SHCH2CHC6H2FeC2SC3HCH2SC2Fe2H3SHC2FeCS2HC2PCHCSCSH2CHCHS2FeCHSCHCHSC2H3C5FeC3FeC3FeH2CSH2SHC2PC2HCHCHPC4HC2H2CH3C6HCHCHPC2H3C3HCH3C2HC3HCHC3HC3H2CSCH2SHCHC2HC3HC2HSCHC3HC2HCH3C5HCHC2HC3HCHC5SH2CHSC2H2SCHC2HCFeC2H3CFeHFeHC2HCH2SFeCHCH2CHCFeCHCHCHCHCHSHC2HCH2SHSH3CSCFeC2SCHCSCHCFeCSC3HCHCH5
_chemical_formula_sum              "C720 H576 S96 Fe48 P24"
_cell_length_a       25.7559
_cell_length_b       27.7397
_cell_length_c       30.9237
_cell_angle_alpha    89.911
_cell_angle_beta     74.543
_cell_angle_gamma    102.496

_space_group_name_H-M_alt    "P 1"
_space_group_IT_number       1

loop_
  _space_group_symop_operation_xyz
  'x, y, z'

loop_
  _atom_site_type_symbol
  _atom_site_label
  _atom_site_symmetry_multiplicity
  _atom_site_fract_x
  _atom_site_fract_y
  _atom_site_fract_z
  _atom_site_occupancy
  C   C1        1.0  0.31848  0.06711  0.52520  1.0000
  H   H1        1.0  0.42014  0.35695  0.47513  1.0000
  H   H2        1.0  0.04119  0.09730  0.63940  1.0000
  H   H3        1.0  0.19681  0.31274  0.47178  1.0000
  C   C2        1.0  0.02915  0.23758  0.60273  1.0000
  C   C3        1.0  0.34781  0.46719  0.49334  1.0000
  C   C4        1.0  0.05781  0.12941  0.65558  1.0000
  C   C5        1.0  0.30314  0.11232  0.52433  1.0000
  C   C6        1.0  0.36594  0.05964  0.49393  1.0000
  C   C7        1.0  0.99791  0.12548  0.53448  1.0000
  S   S1        1.0  0.13040  0.07761  0.49850  1.0000
  C   C8        1.0  0.47052  0.09011  0.58855  1.0000
  C   C9        1.0  0.37275  0.39768  0.52386  1.0000
  C   C10       1.0  0.01400  0.47299  0.48727  1.0000
  H   H4        1.0  0.47925  0.49338  0.52379  1.0000
  H   H5        1.0  0.32724  0.19004  0.60656  1.0000
  C   C11       1.0  0.40503  0.11766  0.65016  1.0000
  H   H6        1.0  0.03707  0.50412  0.46386  1.0000
  C   C12       1.0  0.26448  0.48935  0.43114  1.0000
  C   C13       1.0  0.06307  0.20292  0.50388  1.0000
  H   H7        1.0  0.32886  0.49871  0.49897  1.0000
  C   C14       1.0  0.01632  0.42501  0.47473  1.0000
  H   H8        1.0  0.22198  0.29280  0.64545  1.0000
  C   C15       1.0  0.40012  0.41681  0.44339  1.0000
  H   H9        1.0  0.32132  0.18427  0.49037  1.0000
  C   C16       1.0  0.39317  0.21836  0.63778  1.0000
  C   C17       1.0  0.39614  0.09655  0.46045  1.0000
  H   H10       1.0  0.32264  0.31776  0.63666  1.0000
  H   H11       1.0  0.46548  0.25558  0.65736  1.0000
  C   C18       1.0  0.98577  0.38460  0.50444  1.0000
  H   H12       1.0  0.26149  0.45255  0.44481  1.0000
  C   C19       1.0  0.11431  0.15108  0.64236  1.0000
  H   H13       1.0  0.44255  0.32151  0.54101  1.0000
  H   H14       1.0  0.14149  0.13550  0.61597  1.0000
  C   C20       1.0  0.13579  0.19255  0.66322  1.0000
  C   C21       1.0  0.34709  0.43764  0.53033  1.0000
  H   H15       1.0  0.07955  0.14710  0.54347  1.0000
  H   H16       1.0  0.35760  0.25565  0.54653  1.0000
  H   H17       1.0  0.40292  0.16946  0.43249  1.0000
  C   C22       1.0  0.01779  0.31634  0.57781  1.0000
  C   C23       1.0  0.04998  0.15709  0.52817  1.0000
  H   H18       1.0  0.02008  0.36097  0.65950  1.0000
  H   H19       1.0  0.04114  0.41878  0.44178  1.0000
  H   H20       1.0  0.17987  0.20730  0.65306  1.0000
  H   H21       1.0  0.03641  0.35400  0.56456  1.0000
  C   C24       1.0  0.36316  0.21887  0.60588  1.0000
  C   C25       1.0  0.45808  0.29278  0.59959  1.0000
  Fe  Fe1       1.0  0.17825  0.05722  0.54324  1.0000
  C   C26       1.0  0.21608  0.50621  0.43506  1.0000
  H   H22       1.0  0.28923  0.32653  0.48609  1.0000
  C   C27       1.0  0.37340  0.45639  0.44951  1.0000
  C   C28       1.0  0.02390  0.21774  0.48618  1.0000
  S   S2        1.0  0.24060  0.11869  0.55986  1.0000
  C   C29       1.0  0.48269  0.24452  0.47272  1.0000
  C   C30       1.0  0.44069  0.25574  0.63422  1.0000
  C   C31       1.0  0.22790  0.29446  0.45256  1.0000
  H   H23       1.0  0.05588  0.21402  0.60727  1.0000
  H   H24       1.0  0.37260  0.37520  0.55263  1.0000
  H   H25       1.0  0.44108  0.23623  0.46924  1.0000
  H   H26       1.0  0.09642  0.29976  0.57546  1.0000
  C   C32       1.0  0.39942  0.38739  0.48038  1.0000
  H   H27       1.0  0.46021  0.16442  0.59252  1.0000
  H   H28       1.0  0.29622  0.10785  0.63717  1.0000
  C   C33       1.0  0.42806  0.29318  0.56820  1.0000
  C   C34       1.0  0.38050  0.25625  0.57134  1.0000
  H   H29       1.0  0.17627  0.48258  0.45189  1.0000
  C   C35       1.0  0.44595  0.12760  0.60879  1.0000
  H   H30       1.0  0.19462  0.08655  0.65820  1.0000
  H   H31       1.0  0.28431  0.06467  0.43700  1.0000
  C   C36       1.0  0.33441  0.14994  0.49184  1.0000
  C   C37       1.0  0.31923  0.27772  0.43612  1.0000
  H   H32       1.0  0.32724  0.44604  0.56413  1.0000
  H   H33       1.0  0.10334  0.22716  0.49940  1.0000
  S   S3        1.0  0.04128  0.27622  0.45741  1.0000
  H   H34       1.0  0.08421  0.44233  0.65768  1.0000
  C   C38       1.0  0.38032  0.14155  0.45916  1.0000
  H   H35       1.0  0.05081  0.10106  0.43195  1.0000
  C   C39       1.0  0.05206  0.28595  0.58446  1.0000
  H   H36       1.0  0.35971  0.28357  0.44196  1.0000
  C   C40       1.0  0.05794  0.36324  0.66903  1.0000
  C   C41       1.0  0.27979  0.30207  0.46066  1.0000
  H   H37       1.0  0.98756  0.34760  0.49434  1.0000
  C   C42       1.0  0.29428  0.30690  0.66961  1.0000
  C   C43       1.0  0.09370  0.40900  0.66866  1.0000
  C   C44       1.0  0.27369  0.11841  0.66923  1.0000
  H   H38       1.0  0.25648  0.14323  0.43028  1.0000
  H   H39       1.0  0.47475  0.17297  0.50420  1.0000
  C   C45       1.0  0.38994  0.06997  0.67133  1.0000
  C   C46       1.0  0.22137  0.27993  0.75518  1.0000
  H   H40       1.0  0.01535  0.20707  0.73524  1.0000
  C   C47       1.0  0.42540  0.44203  0.71018  1.0000
  S   S4        1.0  0.34149  0.43255  0.84093  1.0000
  C   C48       1.0  0.42383  0.24201  0.78103  1.0000
  H   H41       1.0  0.41394  0.36449  0.81816  1.0000
  C   C49       1.0  0.38607  0.42197  0.79019  1.0000
  H   H42       1.0  0.26429  0.11885  0.84772  1.0000
  C   C50       1.0  0.03030  0.21057  0.84995  1.0000
  C   C51       1.0  0.33348  0.09029  0.85409  1.0000
  C   C52       1.0  0.10056  0.21325  0.69722  1.0000
  H   H43       1.0  0.45004  0.46610  0.88025  1.0000
  S   S5        1.0  0.31264  0.28628  0.86526  1.0000
  C   C53       1.0  0.11322  0.17305  0.90006  1.0000
  P   P1        1.0  0.12667  0.26754  0.72458  1.0000
  H   H44       1.0  0.18627  0.37197  0.71377  1.0000
  H   H45       1.0  0.18993  0.15702  0.78205  1.0000
  C   C54       1.0  0.20037  0.27831  0.71762  1.0000
  C   C55       1.0  0.30823  0.16298  0.88967  1.0000
  H   H46       1.0  0.00946  0.17440  0.86629  1.0000
  S   S6        1.0  0.47904  0.05275  0.78751  1.0000
  H   H47       1.0  0.36677  0.47825  0.75310  1.0000
  C   C56       1.0  0.44791  0.16119  0.73223  1.0000
  H   H48       1.0  0.41494  0.27356  0.79969  1.0000
  H   H49       1.0  0.42146  0.14084  0.91550  1.0000
  H   H50       1.0  0.35869  0.32171  0.70347  1.0000
  C   C57       1.0  0.35264  0.16965  0.90887  1.0000
  S   S7        1.0  0.17559  0.20156  0.86161  1.0000
  S   S8        1.0  0.99481  0.41655  0.85938  1.0000
  C   C58       1.0  0.04360  0.19168  0.70951  1.0000
  C   C59       1.0  0.14040  0.41176  0.68417  1.0000
  C   C60       1.0  0.08284  0.30403  0.80756  1.0000
  H   H51       1.0  0.40370  0.07033  0.86850  1.0000
  Fe  Fe2       1.0  0.30363  0.36232  0.88404  1.0000
  C   C61       1.0  0.10428  0.54747  0.77286  1.0000
  C   C62       1.0  0.06862  0.32018  0.68481  1.0000
  C   C63       1.0  0.07199  0.51443  0.75117  1.0000
  H   H52       1.0  0.36821  0.24579  0.74125  1.0000
  H   H53       1.0  0.19395  0.27080  0.78874  1.0000
  C   C64       1.0  0.41695  0.38586  0.78801  1.0000
  C   C65       1.0  0.45703  0.40658  0.70813  1.0000
  C   C66       1.0  0.46274  0.21792  0.78946  1.0000
  H   H54       1.0  0.04668  0.33212  0.87090  1.0000
  H   H55       1.0  0.27989  0.18718  0.89704  1.0000
  Fe  Fe3       1.0  0.22105  0.26294  0.89261  1.0000
  H   H56       1.0  0.06625  0.47487  0.75744  1.0000
  H   H57       1.0  0.10214  0.34062  0.79179  1.0000
  C   C67       1.0  0.05103  0.29952  0.85238  1.0000
  C   C68       1.0  0.02410  0.25287  0.87336  1.0000
  C   C69       1.0  0.18585  0.12138  0.72116  1.0000
  H   H58       1.0  0.12357  0.53350  0.79588  1.0000
  C   C70       1.0  0.27126  0.15859  0.73896  1.0000
  C   C71       1.0  0.21347  0.14661  0.75041  1.0000
  H   H59       1.0  0.29393  0.29754  0.77918  1.0000
  H   H60       1.0  0.10799  0.10527  0.86609  1.0000
  C   C72       1.0  0.29880  0.12359  0.86226  1.0000
  H   H61       1.0  0.16747  0.44730  0.68514  1.0000
  C   C73       1.0  0.46821  0.50500  0.88137  1.0000
  C   C74       1.0  0.38704  0.13605  0.90098  1.0000
  C   C75       1.0  0.06406  0.21476  0.80585  1.0000
  C   C76       1.0  0.43874  0.53981  0.87442  1.0000
  C   C77       1.0  0.37733  0.09636  0.87388  1.0000
  C   C78       1.0  0.08759  0.12503  0.89318  1.0000
  C   C79       1.0  0.23736  0.29208  0.67473  1.0000
  H   H62       1.0  0.29117  0.17795  0.76259  1.0000
  C   C80       1.0  0.39057  0.45027  0.75136  1.0000
  C   C81       1.0  0.30198  0.14579  0.69754  1.0000
  C   C82       1.0  0.40828  0.18494  0.72366  1.0000
  H   H63       1.0  0.39851  0.52732  0.86836  1.0000
  H   H64       1.0  0.14106  0.11324  0.72993  1.0000
  C   C83       1.0  0.11533  0.32246  0.70041  1.0000
  C   C84       1.0  0.08907  0.26162  0.78365  1.0000
  S   S9        1.0  0.21122  0.34024  0.90383  1.0000
  P   P2        1.0  0.37648  0.16666  0.67863  1.0000
  C   C85       1.0  0.39711  0.22593  0.74804  1.0000
  H   H65       1.0  0.06976  0.18129  0.78917  1.0000
  C   C86       1.0  0.27824  0.29532  0.74992  1.0000
  C   C87       1.0  0.45310  0.37860  0.74700  1.0000
  H   H66       1.0  0.03883  0.28565  0.68667  1.0000
  C   C88       1.0  0.47506  0.17786  0.76484  1.0000
  H   H67       1.0  0.01999  0.50600  0.70680  1.0000
  H   H68       1.0  0.44756  0.28160  0.87507  1.0000
  C   C89       1.0  0.31468  0.30897  0.70724  1.0000
  C   C90       1.0  0.46940  0.31879  0.87842  1.0000
  H   H69       1.0  0.45899  0.13039  0.71348  1.0000
  C   C91       1.0  0.04533  0.53234  0.72283  1.0000
  C   C92       1.0  0.15110  0.36875  0.70017  1.0000
  C   C93       1.0  0.02254  0.14960  0.68932  1.0000
  C   C94       1.0  0.45698  0.34048  0.91951  1.0000
  H   H70       1.0  0.36004  0.06211  0.70411  1.0000
  H   H71       1.0  0.99878  0.24948  0.90789  1.0000
  H   H72       1.0  0.47775  0.35132  0.74540  1.0000
  C   C95       1.0  0.21593  0.10641  0.68094  1.0000
  H   H73       1.0  0.42872  0.46384  0.68016  1.0000
  C   C96       1.0  0.03494  0.10303  0.92058  1.0000
  H   H74       1.0  0.01541  0.06580  0.91557  1.0000
  C   C97       1.0  0.15410  0.06943  0.96482  1.0000
  H   H75       1.0  0.46996  0.14230  0.97494  1.0000
  C   C98       1.0  0.03357  0.17687  0.96202  1.0000
  C   C99       1.0  0.05151  0.32175  0.04397  1.0000
  S   S10       1.0  0.31296  0.35144  0.95326  1.0000
  S   S11       1.0  0.16227  0.35170  0.03095  1.0000
  H   H76       1.0  0.47436  0.40501  0.95585  1.0000
  H   H77       1.0  0.42539  0.31998  0.94787  1.0000
  S   S12       1.0  0.22184  0.24715  0.96302  1.0000
  H   H78       1.0  0.08612  0.08037  0.08022  1.0000
  H   H79       1.0  0.19529  0.52283  0.11839  1.0000
  C   C100      1.0  0.02183  0.53593  0.17229  1.0000
  C   C101      1.0  0.13537  0.13985  0.10764  1.0000
  H   H80       1.0  0.02561  0.21672  0.16436  1.0000
  H   H81       1.0  0.11707  0.08081  0.96291  1.0000
  C   C102      1.0  0.00686  0.12979  0.95344  1.0000
  Fe  Fe4       1.0  0.31341  0.27232  0.93622  1.0000
  H   H82       1.0  0.17845  0.20796  0.12853  1.0000
  H   H83       1.0  0.37858  0.10131  0.00912  1.0000
  H   H84       1.0  0.05262  0.13510  0.03721  1.0000
  C   C103      1.0  0.01696  0.40554  0.13809  1.0000
  C   C104      1.0  0.15059  0.19148  0.10913  1.0000
  H   H85       1.0  0.10685  0.23569  0.94074  1.0000
  H   H86       1.0  0.39833  0.18662  0.08910  1.0000
  C   C105      1.0  0.13087  0.22240  0.08469  1.0000
  H   H87       1.0  0.13787  0.39717  0.95550  1.0000
  H   H88       1.0  0.17627  0.45845  0.00338  1.0000
  C   C106      1.0  0.19527  0.10322  0.97752  1.0000
  C   C107      1.0  0.13120  0.47703  0.06796  1.0000
  C   C108      1.0  0.26743  0.15285  0.07816  1.0000
  C   C109      1.0  0.35462  0.16932  0.09741  1.0000
  P   P3        1.0  0.16689  0.10050  0.13449  1.0000
  C   C110      1.0  0.32396  0.17467  0.06739  1.0000
  H   H89       1.0  0.01182  0.19779  0.98733  1.0000
  C   C111      1.0  0.09933  0.11981  0.08188  1.0000
  H   H90       1.0  0.34303  0.27109  0.17296  1.0000
  C   C112      1.0  0.10070  0.34992  0.01617  1.0000
  H   H91       1.0  0.14280  0.44915  0.08580  1.0000
  C   C113      1.0  0.00095  0.34285  0.99336  1.0000
  C   C114      1.0  0.32874  0.14210  0.13836  1.0000
  H   H92       1.0  0.14725  0.51851  0.96062  1.0000
  H   H93       1.0  0.34388  0.19647  0.03595  1.0000
  H   H94       1.0  0.01466  0.42146  0.10685  1.0000
  C   C115      1.0  0.27225  0.12016  0.14931  1.0000
  C   C116      1.0  0.00192  0.31785  0.03236  1.0000
  H   H95       1.0  0.05192  0.30201  0.07404  1.0000
  C   C117      1.0  0.24088  0.12557  0.11939  1.0000
  H   H96       1.0  0.27746  0.11723  0.98583  1.0000
  C   C118      1.0  0.04996  0.37186  0.96579  1.0000
  H   H97       1.0  0.24444  0.15831  0.05458  1.0000
  H   H98       1.0  0.35236  0.13846  0.16196  1.0000
  C   C119      1.0  0.09997  0.37498  0.97697  1.0000
  H   H99       1.0  0.08190  0.22622  0.03867  1.0000
  P   P4        1.0  0.07279  0.49974  0.15205  1.0000
  H   H100      1.0  0.14308  0.26222  0.08564  1.0000
  H   H101      1.0  0.36920  0.04833  0.16285  1.0000
  Fe  Fe5       1.0  0.22043  0.32681  0.97239  1.0000
  C   C120      1.0  0.04242  0.43479  0.16708  1.0000
  C   C121      1.0  0.09613  0.20214  0.05837  1.0000
  C   C122      1.0  0.14988  0.48187  0.02108  1.0000
  C   C123      1.0  0.08012  0.15086  0.05720  1.0000
  C   C124      1.0  0.09733  0.50729  0.09140  1.0000
  C   C125      1.0  0.24455  0.09022  0.97804  1.0000
  H   H102      1.0  0.18974  0.14016  0.98521  1.0000
  C   C126      1.0  0.13358  0.51579  0.99705  1.0000
  C   C127      1.0  0.99464  0.35503  0.14899  1.0000
  C   C128      1.0  0.08722  0.19833  0.93561  1.0000
  H   H103      1.0  0.04945  0.39150  0.93575  1.0000
  S   S13       1.0  0.36385  0.21798  0.94469  1.0000
  C   C129      1.0  0.18362  0.52929  0.15376  1.0000
  H   H104      1.0  0.32233  0.05798  0.08212  1.0000
  H   H105      1.0  0.98822  0.13943  0.13251  1.0000
  C   C130      1.0  0.98521  0.13974  0.16805  1.0000
  C   C131      1.0  0.37231  0.06153  0.01382  1.0000
  C   C132      1.0  0.09921  0.54558  0.02000  1.0000
  H   H106      1.0  0.42160  0.05348  0.94697  1.0000
  C   C133      1.0  0.08129  0.54159  0.06703  1.0000
  C   C134      1.0  0.39782  0.05174  0.22237  1.0000
  C   C135      1.0  0.30672  0.24555  0.40372  1.0000
  H   H107      1.0  0.25364  0.09983  0.18148  1.0000
  H   H108      1.0  0.34124  0.35261  0.31325  1.0000
  H   H109      1.0  0.10942  0.16311  0.19950  1.0000
  C   C136      1.0  0.35734  0.41581  0.35179  1.0000
  C   C137      1.0  0.00144  0.18450  0.23220  1.0000
  S   S14       1.0  0.42231  0.11640  0.21387  1.0000
  C   C138      1.0  0.26514  0.12194  0.40095  1.0000
  C   C139      1.0  0.07491  0.13108  0.40756  1.0000
  H   H110      1.0  0.00420  0.15604  0.40033  1.0000
  H   H111      1.0  0.07175  0.52377  0.24415  1.0000
  H   H112      1.0  0.39053  0.29416  0.23244  1.0000
  H   H113      1.0  0.05997  0.22650  0.34630  1.0000
  C   C140      1.0  0.28442  0.06369  0.32706  1.0000
  C   C141      1.0  0.26010  0.13821  0.35951  1.0000
  H   H114      1.0  0.24985  0.21508  0.19238  1.0000
  H   H115      1.0  0.09303  0.08836  0.32554  1.0000
  C   C142      1.0  0.09868  0.12971  0.26463  1.0000
  C   C143      1.0  0.16423  0.17970  0.36489  1.0000
  C   C144      1.0  0.32368  0.25227  0.28561  1.0000
  C   C145      1.0  0.11457  0.53018  0.22431  1.0000
  H   H116      1.0  0.43529  0.52956  0.30735  1.0000
  Fe  Fe6       1.0  0.98705  0.26734  0.31545  1.0000
  S   S15       1.0  0.45170  0.08556  0.41860  1.0000
  C   C146      1.0  0.26962  0.10859  0.32266  1.0000
  H   H117      1.0  0.06355  0.43380  0.23054  1.0000
  S   S16       1.0  0.03608  0.32750  0.34595  1.0000
  Fe  Fe7       1.0  0.46032  0.24196  0.32693  1.0000
  C   C147      1.0  0.41549  0.49065  0.30937  1.0000
  C   C148      1.0  0.10688  0.09108  0.28921  1.0000
  C   C149      1.0  0.14933  0.05775  0.21995  1.0000
  C   C150      1.0  0.04870  0.16218  0.38987  1.0000
  H   H118      1.0  0.39824  0.39642  0.24047  1.0000
  H   H119      1.0  0.07868  0.15746  0.28183  1.0000
  C   C151      1.0  0.27038  0.22571  0.21841  1.0000
  C   C152      1.0  0.02313  0.36200  0.21749  1.0000
  C   C153      1.0  0.13315  0.05569  0.26684  1.0000
  H   H120      1.0  0.42174  0.40858  0.41011  1.0000
  C   C154      1.0  0.28040  0.07711  0.40507  1.0000
  C   C155      1.0  0.42047  0.46564  0.26977  1.0000
  C   C156      1.0  0.13759  0.21123  0.34775  1.0000
  C   C157      1.0  0.36174  0.39120  0.31205  1.0000
  C   C158      1.0  0.08004  0.20210  0.35986  1.0000
  H   H121      1.0  0.34567  0.26203  0.31079  1.0000
  Fe  Fe8       1.0  0.45748  0.15438  0.26733  1.0000
  S   S17       1.0  0.44149  0.31519  0.34877  1.0000
  C   C159      1.0  0.12779  0.52108  0.17838  1.0000
  Fe  Fe9       1.0  0.46727  0.14087  0.36163  1.0000
  C   C160      1.0  0.00584  0.18356  0.18617  1.0000
  H   H122      1.0  0.33762  0.22674  0.38546  1.0000
  C   C161      1.0  0.13247  0.13934  0.39458  1.0000
  H   H123      1.0  0.02668  0.34494  0.24775  1.0000
  S   S18       1.0  0.03259  0.23969  0.25159  1.0000
  C   C162      1.0  0.14120  0.09649  0.19496  1.0000
  C   C163      1.0  0.34950  0.27041  0.24105  1.0000
  H   H124      1.0  0.44552  0.48467  0.23813  1.0000
  C   C164      1.0  0.32283  0.25728  0.20750  1.0000
  H   H125      1.0  0.47384  0.32177  0.25238  1.0000
  P   P5        1.0  0.23830  0.19494  0.35393  1.0000
  C   C165      1.0  0.99803  0.33317  0.18852  1.0000
  H   H126      1.0  0.16112  0.24357  0.32593  1.0000
  H   H127      1.0  0.20481  0.18160  0.27030  1.0000
  C   C166      1.0  0.24463  0.20729  0.26283  1.0000
  C   C167      1.0  0.27065  0.22107  0.29699  1.0000
  S   S19       1.0  0.40422  0.16617  0.33484  1.0000
  H   H128      1.0  0.17456  0.25715  0.41503  1.0000
  H   H129      1.0  0.33236  0.39579  0.38312  1.0000
  C   C168      1.0  0.04469  0.41264  0.20720  1.0000
  H   H130      1.0  0.15196  0.11458  0.40831  1.0000
  P   P6        1.0  0.37848  0.49722  0.40227  1.0000
  C   C169      1.0  0.39373  0.41593  0.27109  1.0000
  Fe  Fe10      1.0  0.98874  0.28634  0.41185  1.0000
  C   C170      1.0  0.38538  0.46540  0.35090  1.0000
  C   C171      1.0  0.31614  0.51947  0.40886  1.0000
  C   C172      1.0  0.21540  0.26254  0.41999  1.0000
  H   H131      1.0  0.26511  0.11960  0.29057  1.0000
  C   C173      1.0  0.11617  0.13276  0.21767  1.0000
  C   C174      1.0  0.25470  0.23747  0.39535  1.0000
  S   S20       1.0  0.98465  0.44692  0.33258  1.0000
  C   C175      1.0  0.15645  0.54675  0.24529  1.0000
  C   C176      1.0  0.22542  0.54600  0.17485  1.0000
  C   C177      1.0  0.23423  0.95841  0.64434  1.0000
  C   C178      1.0  0.06006  0.61079  0.62173  1.0000
  H   H132      1.0  0.17431  0.89023  0.64713  1.0000
  C   C179      1.0  0.99960  0.82438  0.52398  1.0000
  C   C180      1.0  0.29916  0.71486  0.55545  1.0000
  C   C181      1.0  0.21698  0.90981  0.63343  1.0000
  P   P7        1.0  0.35735  0.88455  0.54512  1.0000
  H   H133      1.0  0.46561  0.65887  0.44698  1.0000
  H   H134      1.0  0.29382  0.72031  0.62596  1.0000
  C   C182      1.0  0.33193  0.81849  0.54884  1.0000
  S   S21       1.0  0.19518  0.99123  0.50467  1.0000
  C   C183      1.0  0.15360  0.79080  0.54995  1.0000
  H   H135      1.0  0.16968  0.89225  0.48196  1.0000
  C   C184      1.0  0.30909  0.91266  0.58482  1.0000
  H   H136      1.0  0.32396  0.81140  0.62017  1.0000
  H   H137      1.0  0.27463  0.90312  0.50360  1.0000
  C   C185      1.0  0.07327  0.62788  0.44573  1.0000
  Fe  Fe11      1.0  0.13833  0.00749  0.46562  1.0000
  H   H138      1.0  0.37770  0.02459  0.49439  1.0000
  S   S22       1.0  0.23939  0.74323  0.43539  1.0000
  S   S23       1.0  0.10404  0.01504  0.59544  1.0000
  H   H139      1.0  0.28617  0.67489  0.55791  1.0000
  C   C186      1.0  0.46752  0.87836  0.53005  1.0000
  H   H140      1.0  0.02510  0.66713  0.59858  1.0000
  C   C187      1.0  0.09133  0.65089  0.54649  1.0000
  H   H141      1.0  0.23913  0.84996  0.59448  1.0000
  C   C188      1.0  0.09911  0.58147  0.60878  1.0000
  H   H142      1.0  0.47659  0.01460  0.59510  1.0000
  H   H143      1.0  0.00736  0.82057  0.55649  1.0000
  C   C189      1.0  0.18232  0.76278  0.51846  1.0000
  C   C190      1.0  0.28853  0.98441  0.62509  1.0000
  H   H144      1.0  0.22344  0.84358  0.42704  1.0000
  H   H145      1.0  0.16021  0.62904  0.50096  1.0000
  C   C191      1.0  0.14914  0.83780  0.53711  1.0000
  C   C192      1.0  0.41531  0.03277  0.65124  1.0000
  C   C193      1.0  0.30333  0.74042  0.59370  1.0000
  H   H146      1.0  0.39108  0.91562  0.62664  1.0000
  C   C194      1.0  0.32012  0.79202  0.59036  1.0000
  C   C195      1.0  0.25409  0.88699  0.60362  1.0000
  S   S24       1.0  0.11323  0.87159  0.57832  1.0000
  H   H147      1.0  0.45305  0.93264  0.46727  1.0000
  H   H148      1.0  0.43123  0.75061  0.53127  1.0000
  Fe  Fe12      1.0  0.11756  0.94950  0.55400  1.0000
  H   H149      1.0  0.13506  0.77611  0.58436  1.0000
  H   H150      1.0  0.04139  0.01311  0.44527  1.0000
  C   C196      1.0  0.32554  0.96201  0.59479  1.0000
  C   C197      1.0  0.42622  0.90785  0.60183  1.0000
  C   C198      1.0  0.05539  0.64453  0.58979  1.0000
  H   H151      1.0  0.36682  0.98337  0.57875  1.0000
  C   C199      1.0  0.42225  0.89269  0.55932  1.0000
  H   H152      1.0  0.18636  0.72694  0.52889  1.0000
  C   C200      1.0  0.32749  0.79269  0.51057  1.0000
  S   S25       1.0  0.06165  0.96255  0.51321  1.0000
  H   H153      1.0  0.08934  0.67891  0.52283  1.0000
  C   C201      1.0  0.13131  0.62279  0.53423  1.0000
  C   C202      1.0  0.02277  0.64189  0.46019  1.0000
  C   C203      1.0  0.17369  0.85646  0.49245  1.0000
  Fe  Fe13      1.0  0.05639  0.03274  0.54847  1.0000
  C   C204      1.0  0.31171  0.74095  0.51394  1.0000
  C   C205      1.0  0.20362  0.82872  0.46117  1.0000
  C   C206      1.0  0.41457  0.93311  0.46005  1.0000
  C   C207      1.0  0.36315  0.91295  0.49082  1.0000
  C   C208      1.0  0.02788  0.80235  0.48711  1.0000
  H   H154      1.0  0.30154  0.02247  0.63259  1.0000
  C   C209      1.0  0.31466  0.91735  0.48009  1.0000
  C   C210      1.0  0.46651  0.75357  0.50215  1.0000
  H   H155      1.0  0.46424  0.86286  0.49845  1.0000
  H   H156      1.0  0.42108  0.76327  0.45459  1.0000
  H   H157      1.0  0.05737  0.78161  0.49169  1.0000
  H   H158      1.0  0.33645  0.81223  0.47810  1.0000
  C   C211      1.0  0.46055  0.76052  0.45910  1.0000
  C   C212      1.0  0.31742  0.94120  0.43943  1.0000
  H   H159      1.0  0.98728  0.61669  0.48205  1.0000
  H   H160      1.0  0.30884  0.72109  0.48424  1.0000
  C   C213      1.0  0.20704  0.78149  0.47393  1.0000
  H   H161      1.0  0.27971  0.94465  0.43172  1.0000
  C   C214      1.0  0.13466  0.58756  0.56515  1.0000
  C   C215      1.0  0.01936  0.80846  0.44458  1.0000
  C   C216      1.0  0.01804  0.68842  0.44640  1.0000
  H   H162      1.0  0.07706  0.59199  0.45644  1.0000
  H   H163      1.0  0.38774  0.58814  0.45010  1.0000
  C   C217      1.0  0.45555  0.04285  0.60991  1.0000
  C   C218      1.0  0.42811  0.58782  0.42808  1.0000
  H   H164      1.0  0.20518  0.97628  0.66689  1.0000
  H   H165      1.0  0.29284  0.03751  0.54920  1.0000
  C   C219      1.0  0.47213  0.62795  0.42661  1.0000
  H   H166      1.0  0.16556  0.56567  0.55560  1.0000
  H   H167      1.0  0.40481  0.99651  0.66832  1.0000
  C   C220      1.0  0.98387  0.83855  0.43922  1.0000
  H   H168      1.0  0.47840  0.92530  0.64590  1.0000
  C   C221      1.0  0.47591  0.91269  0.61324  1.0000
  H   H169      1.0  0.10302  0.55464  0.63245  1.0000
  H   H170      1.0  0.07119  0.78864  0.67122  1.0000
  H   H171      1.0  0.08971  0.70473  0.66477  1.0000
  C   C222      1.0  0.15366  0.84914  0.89483  1.0000
  Fe  Fe14      1.0  0.43507  0.91035  0.80436  1.0000
  H   H172      1.0  0.08661  0.65591  0.73456  1.0000
  C   C223      1.0  0.32691  0.81907  0.91441  1.0000
  Fe  Fe15      1.0  0.39354  0.00525  0.80602  1.0000
  C   C224      1.0  0.11360  0.99954  0.87979  1.0000
  H   H173      1.0  0.34278  0.78910  0.89705  1.0000
  C   C225      1.0  0.99460  0.75817  0.82079  1.0000
  C   C226      1.0  0.00099  0.81253  0.89609  1.0000
  S   S26       1.0  0.41438  0.95304  0.75242  1.0000
  H   H174      1.0  0.12971  0.02398  0.75243  1.0000
  C   C227      1.0  0.28097  0.88659  0.91538  1.0000
  C   C228      1.0  0.05045  0.58356  0.71613  1.0000
  H   H175      1.0  0.02570  0.98217  0.88544  1.0000
  H   H176      1.0  0.05873  0.86918  0.84875  1.0000
  C   C229      1.0  0.10977  0.59842  0.76631  1.0000
  C   C230      1.0  0.12536  0.01815  0.78794  1.0000
  C   C231      1.0  0.46050  0.80486  0.82368  1.0000
  C   C232      1.0  0.17205  0.02642  0.80413  1.0000
  H   H177      1.0  0.43913  0.61728  0.86786  1.0000
  C   C233      1.0  0.08283  0.61648  0.73818  1.0000
  H   H178      1.0  0.46659  0.86098  0.87129  1.0000
  H   H179      1.0  0.14947  0.91597  0.86272  1.0000
  P   P8        1.0  0.01624  0.60583  0.67873  1.0000
  H   H180      1.0  0.05451  0.82041  0.78235  1.0000
  C   C234      1.0  0.48155  0.82936  0.85692  1.0000
  H   H181      1.0  0.29507  0.83848  0.86076  1.0000
  C   C235      1.0  0.47938  0.76355  0.80557  1.0000
  H   H182      1.0  0.13348  0.62380  0.78426  1.0000
  C   C236      1.0  0.03355  0.83188  0.85321  1.0000
  H   H183      1.0  0.26169  0.90911  0.89866  1.0000
  H   H184      1.0  0.46280  0.74442  0.78004  1.0000
  C   C237      1.0  0.07281  0.00252  0.81768  1.0000
  H   H185      1.0  0.21302  0.03965  0.78143  1.0000
  S   S27       1.0  0.41255  0.82767  0.80360  1.0000
  C   C238      1.0  0.16621  0.01713  0.84979  1.0000
  S   S28       1.0  0.32123  0.04078  0.81988  1.0000
  C   C239      1.0  0.04768  0.70874  0.67868  1.0000
  C   C240      1.0  0.03063  0.80463  0.81563  1.0000
  C   C241      1.0  0.14273  0.89638  0.89471  1.0000
  H   H186      1.0  0.16836  0.83297  0.86327  1.0000
  H   H187      1.0  0.20309  0.02269  0.86136  1.0000
  H   H188      1.0  0.03640  0.99684  0.80533  1.0000
  C   C242      1.0  0.46162  0.59040  0.87409  1.0000
  C   C243      1.0  0.06688  0.99353  0.86343  1.0000
  S   S29       1.0  0.40652  0.95881  0.85965  1.0000
  C   C244      1.0  0.29978  0.84685  0.89395  1.0000
  C   C245      1.0  0.03743  0.75633  0.68210  1.0000
  H   H189      1.0  0.99065  0.73775  0.79159  1.0000
  C   C246      1.0  0.00372  0.66679  0.69112  1.0000
  C   C247      1.0  0.98333  0.76244  0.69810  1.0000
  C   C248      1.0  0.17306  0.97103  0.07159  1.0000
  C   C249      1.0  0.42259  0.79508  0.05727  1.0000
  H   H190      1.0  0.06609  0.02285  0.16178  1.0000
  C   C250      1.0  0.03395  0.99600  0.01645  1.0000
  C   C251      1.0  0.47607  0.57395  0.16529  1.0000
  H   H191      1.0  0.29245  0.03478  0.96286  1.0000
  H   H192      1.0  0.33709  0.95726  0.16948  1.0000
  H   H193      1.0  0.02762  0.81960  0.05414  1.0000
  C   C252      1.0  0.17561  0.83857  0.10958  1.0000
  C   C253      1.0  0.12321  0.91750  0.93544  1.0000
  C   C254      1.0  0.27451  0.86945  0.07721  1.0000
  C   C255      1.0  0.44532  0.89120  0.01859  1.0000
  C   C256      1.0  0.33619  0.83142  0.95595  1.0000
  H   H194      1.0  0.22749  0.04248  0.06761  1.0000
  C   C257      1.0  0.18727  0.01961  0.08400  1.0000
  H   H195      1.0  0.45855  0.95201  0.14304  1.0000
  H   H196      1.0  0.30308  0.96754  0.09200  1.0000
  C   C258      1.0  0.18304  0.84052  0.15275  1.0000
  H   H197      1.0  0.33705  0.79568  0.06754  1.0000
  C   C259      1.0  0.09656  0.00858  0.13685  1.0000
  H   H198      1.0  0.32251  0.88245  0.12574  1.0000
  C   C260      1.0  0.46166  0.99532  0.08452  1.0000
  C   C261      1.0  0.32944  0.98547  0.06027  1.0000
  C   C262      1.0  0.45944  0.79476  0.15748  1.0000
  H   H199      1.0  0.13429  0.82602  0.10568  1.0000
  C   C263      1.0  0.08241  0.96021  0.12427  1.0000
  C   C264      1.0  0.12772  0.84413  0.97614  1.0000
  C   C265      1.0  0.48075  0.62169  0.14789  1.0000
  H   H200      1.0  0.20259  0.95659  0.04616  1.0000
  C   C266      1.0  0.23610  0.85620  0.15828  1.0000
  H   H201      1.0  0.21440  0.85198  0.03877  1.0000
  H   H202      1.0  0.40450  0.96293  0.95649  1.0000
  C   C267      1.0  0.25288  0.04358  0.96546  1.0000
  H   H203      1.0  0.44531  0.63846  0.15664  1.0000
  S   S30       1.0  0.00255  0.82868  0.17289  1.0000
  C   C268      1.0  0.37918  0.81691  0.05498  1.0000
  C   C269      1.0  0.28170  0.87026  0.12070  1.0000
  H   H204      1.0  0.12233  0.82393  0.00760  1.0000
  C   C270      1.0  0.28960  0.89875  0.95716  1.0000
  H   H205      1.0  0.04167  0.93732  0.13979  1.0000
  H   H206      1.0  0.03368  0.74987  0.11819  1.0000
  H   H207      1.0  0.10027  0.90667  0.00769  1.0000
  C   C271      1.0  0.16107  0.02163  0.95423  1.0000
  C   C272      1.0  0.14632  0.82308  0.93550  1.0000
  H   H208      1.0  0.05432  0.56475  0.08395  1.0000
  H   H209      1.0  0.01094  0.77134  0.98965  1.0000
  P   P9        1.0  0.10861  0.97842  0.93647  1.0000
  H   H210      1.0  0.21941  0.97425  0.94237  1.0000
  H   H211      1.0  0.10955  0.90352  0.08306  1.0000
  H   H212      1.0  0.35888  0.81017  0.97021  1.0000
  C   C273      1.0  0.22111  0.85322  0.07185  1.0000
  C   C274      1.0  0.12075  0.94128  0.09201  1.0000
  C   C275      1.0  0.35222  0.95796  0.02491  1.0000
  H   H213      1.0  0.26840  0.55197  0.15572  1.0000
  H   H214      1.0  0.41385  0.75770  0.07188  1.0000
  H   H215      1.0  0.42078  0.00190  0.09838  1.0000
  C   C276      1.0  0.39591  0.03459  0.97875  1.0000
  H   H216      1.0  0.45731  0.86704  0.13504  1.0000
  H   H217      1.0  0.15546  0.78671  0.93543  1.0000
  C   C277      1.0  0.04082  0.97229  0.97576  1.0000
  P   P10       1.0  0.33362  0.89099  0.02930  1.0000
  C   C278      1.0  0.11566  0.89096  0.97612  1.0000
  C   C279      1.0  0.39019  0.86517  0.03551  1.0000
  H   H218      1.0  0.08620  0.57156  0.00125  1.0000
  H   H219      1.0  0.45540  0.92795  0.00256  1.0000
  C   C280      1.0  0.47729  0.82138  0.04058  1.0000
  C   C281      1.0  0.33998  0.03703  0.05477  1.0000
  H   H220      1.0  0.99909  0.91902  0.93792  1.0000
  C   C282      1.0  0.21130  0.00934  0.95370  1.0000
  C   C283      1.0  0.99483  0.93973  0.96778  1.0000
  H   H221      1.0  0.06856  0.01878  0.02546  1.0000
  C   C284      1.0  0.31821  0.87183  0.97739  1.0000
  C   C285      1.0  0.38616  0.98310  0.98430  1.0000
  H   H222      1.0  0.27589  0.93031  0.97283  1.0000
  H   H223      1.0  0.41585  0.78012  0.16105  1.0000
  C   C286      1.0  0.98865  0.81528  0.04601  1.0000
  H   H224      1.0  0.08234  0.60530  0.16475  1.0000
  C   C287      1.0  0.98949  0.74023  0.13317  1.0000
  H   H225      1.0  0.47781  0.03999  0.02320  1.0000
  C   C288      1.0  0.14936  0.03841  0.11714  1.0000
  H   H226      1.0  0.00225  0.83516  0.92432  1.0000
  C   C289      1.0  0.03527  0.99116  0.41754  1.0000
  H   H227      1.0  0.13959  0.77442  0.31382  1.0000
  C   C290      1.0  0.11945  0.66095  0.41867  1.0000
  H   H228      1.0  0.22959  0.82954  0.27592  1.0000
  C   C291      1.0  0.35552  0.97568  0.19432  1.0000
  H   H229      1.0  0.45657  0.97057  0.39496  1.0000
  C   C292      1.0  0.20469  0.83924  0.30736  1.0000
  C   C293      1.0  0.12174  0.82015  0.37018  1.0000
  H   H230      1.0  0.26320  0.90709  0.30969  1.0000
  Fe  Fe16      1.0  0.30898  0.77878  0.37517  1.0000
  H   H231      1.0  0.11656  0.87568  0.41975  1.0000
  Fe  Fe17      1.0  0.43265  0.83151  0.34347  1.0000
  C   C294      1.0  0.99560  0.80103  0.29091  1.0000
  H   H232      1.0  0.29966  0.01265  0.37169  1.0000
  C   C295      1.0  0.06386  0.72118  0.41781  1.0000
  H   H233      1.0  0.39044  0.95097  0.28921  1.0000
  C   C296      1.0  0.19180  0.89544  0.36687  1.0000
  H   H234      1.0  0.18148  0.56586  0.41904  1.0000
  H   H235      1.0  0.15934  0.65123  0.40867  1.0000
  C   C297      1.0  0.41707  0.95584  0.41898  1.0000
  H   H236      1.0  0.04507  0.84521  0.32850  1.0000
  C   C298      1.0  0.27016  0.58279  0.39341  1.0000
  C   C299      1.0  0.22373  0.88288  0.32634  1.0000
  C   C300      1.0  0.37359  0.02731  0.19063  1.0000
  C   C301      1.0  0.36225  0.94783  0.22941  1.0000
  Fe  Fe18      1.0  0.35570  0.83773  0.28460  1.0000
  C   C302      1.0  0.02168  0.80858  0.32535  1.0000
  C   C303      1.0  0.31855  0.56587  0.38911  1.0000
  H   H237      1.0  0.14756  0.82996  0.18192  1.0000
  H   H238      1.0  0.14121  0.02681  0.28594  1.0000
  H   H239      1.0  0.01275  0.65540  0.19185  1.0000
  C   C304      1.0  0.21189  0.55471  0.22058  1.0000
  P   P11       1.0  0.05590  0.77947  0.39732  1.0000
  H   H240      1.0  0.10748  0.94667  0.32358  1.0000
  H   H241      1.0  0.27255  0.61883  0.37826  1.0000
  C   C305      1.0  0.07254  0.95508  0.34821  1.0000
  H   H242      1.0  0.16917  0.02956  0.20324  1.0000
  C   C306      1.0  0.36873  0.96052  0.40891  1.0000
  C   C307      1.0  0.14069  0.86456  0.38863  1.0000
  C   C308      1.0  0.99970  0.61574  0.19027  1.0000
  C   C309      1.0  0.15383  0.80807  0.32904  1.0000
  H   H243      1.0  0.15157  0.73255  0.38457  1.0000
  Fe  Fe19      1.0  0.38837  0.74008  0.29811  1.0000
  C   C310      1.0  0.01856  0.76905  0.35497  1.0000
  S   S31       1.0  0.43693  0.81632  0.27167  1.0000
  C   C311      1.0  0.38530  0.97217  0.26190  1.0000
  S   S32       1.0  0.14717  0.00212  0.39181  1.0000
  H   H244      1.0  0.20686  0.92914  0.38162  1.0000
  S   S33       1.0  0.34142  0.88294  0.22989  1.0000
  C   C312      1.0  0.48049  0.67406  0.27617  1.0000
  S   S34       1.0  0.41462  0.67195  0.26885  1.0000
  S   S35       1.0  0.30665  0.75957  0.30506  1.0000
  S   S36       1.0  0.35346  0.85812  0.35535  1.0000
  H   H245      1.0  0.14577  0.55300  0.28083  1.0000
  H   H246      1.0  0.98727  0.68997  0.37041  1.0000
  H   H247      1.0  0.01271  0.91815  0.31503  1.0000
  C   C313      1.0  0.40250  0.02419  0.25865  1.0000
  C   C314      1.0  0.01897  0.93862  0.34352  1.0000
  H   H248      1.0  0.37154  0.97889  0.37721  1.0000
  C   C315      1.0  0.11487  0.70746  0.40487  1.0000
  S   S37       1.0  0.38755  0.75409  0.36942  1.0000
  H   H249      1.0  0.42017  0.04289  0.28380  1.0000
  C   C316      1.0  0.98955  0.72150  0.34901  1.0000
  C   C317      1.0  0.08073  0.98181  0.38508  1.0000
  H   H250      1.0  0.35769  0.58890  0.36986  1.0000
  H   H251      1.0  0.29097  0.04069  0.29872  1.0000
  H   H252      1.0  0.99842  0.83185  0.26817  1.0000
  H   H253      1.0  0.24205  0.85780  0.19173  1.0000
  H   H254      1.0  0.47188  0.72719  0.18325  1.0000
  H   H255      1.0  0.24436  0.56744  0.23688  1.0000
  C   C318      1.0  0.21895  0.55301  0.41642  1.0000
  C   C319      1.0  0.28970  0.04797  0.36822  1.0000
  H   H256      1.0  0.43699  0.55388  0.18717  1.0000
  C   C320      1.0  0.43608  0.54818  0.40071  1.0000
  C   C321      1.0  0.03885  0.58727  0.17490  1.0000
  C   C322      1.0  0.59019  0.26653  0.48206  1.0000
  H   H257      1.0  0.63126  0.27432  0.48689  1.0000
  C   C323      1.0  0.67663  0.49689  0.63759  1.0000
  C   C324      1.0  0.87039  0.26904  0.53172  1.0000
  C   C325      1.0  0.94860  0.43975  0.55846  1.0000
  C   C326      1.0  0.61218  0.16735  0.60550  1.0000
  H   H258      1.0  0.74261  0.11157  0.44815  1.0000
  H   H259      1.0  0.95728  0.41013  0.64363  1.0000
  C   C327      1.0  0.97989  0.48041  0.52906  1.0000
  C   C328      1.0  0.59134  0.15907  0.65220  1.0000
  H   H260      1.0  0.50274  0.09824  0.55710  1.0000
  H   H261      1.0  0.88311  0.05894  0.48421  1.0000
  C   C329      1.0  0.76513  0.14564  0.58492  1.0000
  H   H262      1.0  0.92058  0.44571  0.58972  1.0000
  C   C330      1.0  0.51744  0.29075  0.45709  1.0000
  C   C331      1.0  0.88635  0.35257  0.64169  1.0000
  C   C332      1.0  0.59677  0.07896  0.59786  1.0000
  H   H263      1.0  0.66753  0.49525  0.47661  1.0000
  C   C333      1.0  0.77863  0.25986  0.52205  1.0000
  H   H264      1.0  0.59924  0.51316  0.54492  1.0000
  C   C334      1.0  0.81218  0.06337  0.56794  1.0000
  H   H265      1.0  0.74605  0.17709  0.59194  1.0000
  H   H266      1.0  0.56992  0.19305  0.51353  1.0000
  H   H267      1.0  0.94134  0.19724  0.47882  1.0000
  C   C335      1.0  0.67911  0.52580  0.49639  1.0000
  H   H268      1.0  0.80517  0.35406  0.58870  1.0000
  C   C336      1.0  0.96027  0.29815  0.58879  1.0000
  C   C337      1.0  0.73393  0.50380  0.62906  1.0000
  H   H269      1.0  0.97645  0.51749  0.53815  1.0000
  C   C338      1.0  0.82384  0.09490  0.60108  1.0000
  C   C339      1.0  0.50584  0.46924  0.50816  1.0000
  H   H270      1.0  0.82055  0.38986  0.48506  1.0000
  C   C340      1.0  0.93759  0.24938  0.60709  1.0000
  C   C341      1.0  0.51548  0.43289  0.53442  1.0000
  C   C342      1.0  0.91676  0.38932  0.66200  1.0000
  C   C343      1.0  0.88347  0.51471  0.65015  1.0000
  C   C344      1.0  0.81205  0.32329  0.56801  1.0000
  H   H271      1.0  0.50231  0.31753  0.44112  1.0000
  H   H272      1.0  0.74798  0.43057  0.52901  1.0000
  C   C345      1.0  0.57452  0.07053  0.64432  1.0000
  H   H273      1.0  0.80211  0.33619  0.42455  1.0000
  C   C346      1.0  0.50165  0.20903  0.49258  1.0000
  C   C347      1.0  0.87743  0.50343  0.49104  1.0000
  C   C348      1.0  0.84932  0.54084  0.50503  1.0000
  C   C349      1.0  0.77780  0.07339  0.54214  1.0000
  H   H274      1.0  0.85170  0.08779  0.61985  1.0000
  H   H275      1.0  0.89330  0.23490  0.61660  1.0000
  C   C350      1.0  0.54969  0.40159  0.51441  1.0000
  H   H276      1.0  0.86972  0.50381  0.62075  1.0000
  C   C351      1.0  0.60550  0.06011  0.46905  1.0000
  H   H277      1.0  0.72754  0.12393  0.53236  1.0000
  S   S38       1.0  0.76377  0.45237  0.61746  1.0000
  H   H278      1.0  0.80866  0.15981  0.63584  1.0000
  H   H279      1.0  0.55690  0.37363  0.53524  1.0000
  P   P12       1.0  0.91512  0.33833  0.58465  1.0000
  H   H280      1.0  0.65808  0.41756  0.51262  1.0000
  C   C352      1.0  0.57157  0.30204  0.46138  1.0000
  C   C353      1.0  0.86182  0.30760  0.56011  1.0000
  P   P13       1.0  0.61471  0.36276  0.44227  1.0000
  Fe  Fe20      1.0  0.63197  0.28521  0.62925  1.0000
  H   H281      1.0  0.76253  0.54489  0.45509  1.0000
  C   C354      1.0  0.77080  0.35447  0.44325  1.0000
  H   H282      1.0  0.81731  0.53514  0.53673  1.0000
  C   C355      1.0  0.83592  0.32343  0.66772  1.0000
  C   C356      1.0  0.97205  0.21907  0.61363  1.0000
  S   S39       1.0  0.98170  0.06644  0.56258  1.0000
  S   S40       1.0  0.63542  0.22692  0.57940  1.0000
  S   S41       1.0  0.63487  0.36149  0.60449  1.0000
  Fe  Fe21      1.0  0.69293  0.38752  0.64611  1.0000
  C   C357      1.0  0.80020  0.13588  0.60969  1.0000
  C   C358      1.0  0.78120  0.38486  0.47732  1.0000
  H   H283      1.0  0.65199  0.46156  0.63311  1.0000
  C   C359      1.0  0.95843  0.14095  0.51764  1.0000
  C   C360      1.0  0.61489  0.12727  0.57836  1.0000
  C   C361      1.0  0.91734  0.50921  0.44958  1.0000
  C   C362      1.0  0.87452  0.05593  0.45198  1.0000
  H   H284      1.0  0.81310  0.29289  0.65374  1.0000
  C   C363      1.0  0.55530  0.22015  0.49743  1.0000
  H   H285      1.0  0.73149  0.31039  0.55628  1.0000
  H   H286      1.0  0.63097  0.13362  0.54228  1.0000
  C   C364      1.0  0.77032  0.29887  0.54959  1.0000
  C   C365      1.0  0.53027  0.47419  0.46179  1.0000
  C   C366      1.0  0.95283  0.39163  0.54692  1.0000
  H   H287      1.0  0.91767  0.11779  0.52370  1.0000
  C   C367      1.0  0.75439  0.11491  0.55104  1.0000
  H   H288      1.0  0.49555  0.32063  0.59695  1.0000
  C   C368      1.0  0.67890  0.37064  0.45756  1.0000
  C   C369      1.0  0.74039  0.40771  0.50197  1.0000
  C   C370      1.0  0.64047  0.53645  0.53412  1.0000
  S   S42       1.0  0.50106  0.39802  0.65646  1.0000
  H   H289      1.0  0.86713  0.46945  0.51196  1.0000
  H   H290      1.0  0.90935  0.25784  0.52383  1.0000
  H   H291      1.0  0.74615  0.24126  0.50765  1.0000
  C   C371      1.0  0.82885  0.24518  0.51279  1.0000
  C   C372      1.0  0.68923  0.40032  0.49240  1.0000
  H   H292      1.0  0.60611  0.52928  0.66064  1.0000
  C   C373      1.0  0.70403  0.08419  0.46016  1.0000
  H   H293      1.0  0.83550  0.21547  0.49072  1.0000
  C   C374      1.0  0.57455  0.40636  0.46789  1.0000
  C   C375      1.0  0.65070  0.53548  0.65260  1.0000
  H   H294      1.0  0.95467  0.18110  0.62689  1.0000
  C   C376      1.0  0.97168  0.18639  0.49270  1.0000
  H   H295      1.0  0.56808  0.06869  0.46454  1.0000
  C   C377      1.0  0.65615  0.09362  0.45219  1.0000
  C   C378      1.0  0.56439  0.44286  0.44162  1.0000
  S   S43       1.0  0.69617  0.31055  0.66601  1.0000
  H   H296      1.0  0.52251  0.50211  0.44137  1.0000
  C   C379      1.0  0.72009  0.34761  0.43316  1.0000
  Fe  Fe22      1.0  0.56785  0.36321  0.66691  1.0000
  H   H297      1.0  0.65816  0.12758  0.43386  1.0000
  H   H298      1.0  0.49669  0.42908  0.57044  1.0000
  H   H299      1.0  0.58992  0.18996  0.67334  1.0000
  H   H300      1.0  0.68806  0.10908  0.67222  1.0000
  C   C380      1.0  0.57200  0.11054  0.67160  1.0000
  H   H301      1.0  0.93770  0.47942  0.43785  1.0000
  C   C381      1.0  0.89568  0.39850  0.70691  1.0000
  H   H302      1.0  0.71139  0.05025  0.91530  1.0000
  H   H303      1.0  0.84210  0.49385  0.76381  1.0000
  H   H304      1.0  0.82934  0.37684  0.76724  1.0000
  H   H305      1.0  0.91989  0.42591  0.72291  1.0000
  P   P14       1.0  0.56187  0.47703  0.89366  1.0000
  H   H306      1.0  0.64096  0.08594  0.89365  1.0000
  C   C382      1.0  0.84469  0.37046  0.73215  1.0000
  H   H307      1.0  0.93378  0.26641  0.83685  1.0000
  C   C383      1.0  0.52654  0.41487  0.88734  1.0000
  C   C384      1.0  0.65790  0.33761  0.90161  1.0000
  C   C385      1.0  0.66331  0.10347  0.74443  1.0000
  H   H308      1.0  0.71031  0.36357  0.77216  1.0000
  C   C386      1.0  0.86755  0.50922  0.73081  1.0000
  C   C387      1.0  0.53855  0.39290  0.84601  1.0000
  H   H309      1.0  0.75841  0.53268  0.74956  1.0000
  C   C388      1.0  0.64822  0.31934  0.82703  1.0000
  S   S44       1.0  0.61213  0.28211  0.79386  1.0000
  C   C389      1.0  0.81490  0.33277  0.71266  1.0000
  C   C390      1.0  0.76684  0.17700  0.83156  1.0000
  Fe  Fe23      1.0  0.87339  0.06529  0.83798  1.0000
  H   H310      1.0  0.57009  0.41203  0.81705  1.0000
  H   H311      1.0  0.78264  0.54364  0.90228  1.0000
  C   C391      1.0  0.62500  0.49413  0.84860  1.0000
  H   H312      1.0  0.64971  0.13800  0.74727  1.0000
  C   C392      1.0  0.65818  0.07480  0.78312  1.0000
  S   S45       1.0  0.87204  0.33941  0.88789  1.0000
  C   C393      1.0  0.92027  0.25028  0.73114  1.0000
  H   H313      1.0  0.51946  0.32834  0.80975  1.0000
  C   C394      1.0  0.73642  0.21339  0.90271  1.0000
  C   C395      1.0  0.72134  0.52115  0.77698  1.0000
  H   H314      1.0  0.50637  0.16024  0.77076  1.0000
  C   C396      1.0  0.75206  0.26021  0.88004  1.0000
  H   H315      1.0  0.58313  0.51205  0.80048  1.0000
  H   H316      1.0  0.55580  0.10415  0.70757  1.0000
  C   C397      1.0  0.62234  0.51008  0.80626  1.0000
  H   H317      1.0  0.97868  0.13272  0.69972  1.0000
  H   H318      1.0  0.77593  0.31020  0.73261  1.0000
  H   H319      1.0  0.76315  0.40992  0.82164  1.0000
  C   C398      1.0  0.67028  0.52348  0.77076  1.0000
  S   S46       1.0  0.88988  0.44059  0.82818  1.0000
  H   H320      1.0  0.73280  0.13539  0.89491  1.0000
  H   H321      1.0  0.48420  0.23061  0.81452  1.0000
  C   C399      1.0  0.85006  0.49548  0.69268  1.0000
  C   C400      1.0  0.90241  0.19865  0.73401  1.0000
  C   C401      1.0  0.93147  0.27485  0.76821  1.0000
  C   C402      1.0  0.70688  0.37282  0.88282  1.0000
  S   S47       1.0  0.87638  0.10645  0.77432  1.0000
  C   C403      1.0  0.69594  0.35604  0.80820  1.0000
  H   H322      1.0  0.90396  0.17464  0.84151  1.0000
  H   H323      1.0  0.74610  0.29270  0.89810  1.0000
  C   C404      1.0  0.52089  0.52074  0.88822  1.0000
  Fe  Fe24      1.0  0.83510  0.40587  0.89442  1.0000
  H   H324      1.0  0.76388  0.50349  0.82411  1.0000
  H   H325      1.0  0.53580  0.17534  0.90199  1.0000
  C   C405      1.0  0.67653  0.49156  0.85458  1.0000
  S   S48       1.0  0.74392  0.40316  0.91884  1.0000
  C   C406      1.0  0.72586  0.38215  0.83612  1.0000
  H   H326      1.0  0.77286  0.14472  0.81278  1.0000
  H   H327      1.0  0.87084  0.52335  0.89948  1.0000
  H   H328      1.0  0.79949  0.22787  0.77309  1.0000
  C   C407      1.0  0.72436  0.50476  0.81878  1.0000
  C   C408      1.0  0.92489  0.24759  0.80821  1.0000
  H   H329      1.0  0.63459  0.20291  0.89556  1.0000
  Fe  Fe25      1.0  0.62412  0.31460  0.72456  1.0000
  C   C409      1.0  0.62905  0.31052  0.87376  1.0000
  S   S49       1.0  0.55991  0.28448  0.68873  1.0000
  S   S50       1.0  0.95500  0.33945  0.76202  1.0000
  C   C410      1.0  0.90822  0.19565  0.81079  1.0000
  C   C411      1.0  0.89697  0.17116  0.77362  1.0000
  C   C412      1.0  0.77506  0.26540  0.83349  1.0000
  H   H330      1.0  0.78728  0.30171  0.81634  1.0000
  H   H331      1.0  0.68075  0.48006  0.88655  1.0000
  H   H332      1.0  0.66769  0.53599  0.73854  1.0000
  Fe  Fe26      1.0  0.94784  0.47716  0.86707  1.0000
  C   C413      1.0  0.91827  0.54220  0.72641  1.0000
  C   C414      1.0  0.74451  0.17185  0.87819  1.0000
  H   H333      1.0  0.59171  0.28273  0.88843  1.0000
  Fe  Fe27      1.0  0.93220  0.37774  0.82542  1.0000
  C   C415      1.0  0.50989  0.34509  0.84167  1.0000
  H   H334      1.0  0.64057  0.08734  0.81577  1.0000
  C   C416      1.0  0.78191  0.22379  0.80917  1.0000
  S   S51       1.0  0.82748  0.07992  0.90730  1.0000
  S   S52       1.0  0.62573  0.39365  0.70806  1.0000
  S   S53       1.0  0.94841  0.05577  0.85770  1.0000
  H   H335      1.0  0.92484  0.27127  0.70034  1.0000
  H   H336      1.0  0.89313  0.17992  0.70543  1.0000
  C   C417      1.0  0.68526  0.08728  0.70216  1.0000
  H   H337      1.0  0.81079  0.46955  0.69605  1.0000
  Fe  Fe28      1.0  0.93178  0.38098  0.92298  1.0000
  C   C418      1.0  0.88316  0.21422  0.09734  1.0000
  H   H338      1.0  0.84539  0.14652  0.00743  1.0000
  C   C419      1.0  0.74430  0.34053  0.15101  1.0000
  C   C420      1.0  0.64257  0.14465  0.17319  1.0000
  S   S54       1.0  0.93658  0.10620  0.97945  1.0000
  H   H339      1.0  0.54857  0.53277  0.04794  1.0000
  C   C421      1.0  0.68290  0.15605  0.13208  1.0000
  H   H340      1.0  0.64309  0.33025  0.93766  1.0000
  H   H341      1.0  0.63868  0.33775  0.05665  1.0000
  P   P15       1.0  0.69951  0.20525  0.96158  1.0000
  C   C422      1.0  0.70999  0.26274  0.98944  1.0000
  H   H342      1.0  0.97144  0.43873  0.02791  1.0000
  C   C423      1.0  0.63131  0.32600  0.15643  1.0000
  Fe  Fe29      1.0  0.89981  0.06444  0.92830  1.0000
  C   C424      1.0  0.62682  0.18339  0.96560  1.0000
  C   C425      1.0  0.85442  0.45141  0.13327  1.0000
  C   C426      1.0  0.69618  0.11033  0.99545  1.0000
  H   H343      1.0  0.60353  0.16078  0.03646  1.0000
  H   H344      1.0  0.79889  0.28099  0.96201  1.0000
  C   C427      1.0  0.85682  0.23864  0.07310  1.0000
  C   C428      1.0  0.60187  0.44267  0.96019  1.0000
  C   C429      1.0  0.77344  0.08780  0.01461  1.0000
  H   H345      1.0  0.58752  0.32046  0.15949  1.0000
  H   H346      1.0  0.81583  0.29772  0.07099  1.0000
  C   C430      1.0  0.76359  0.29163  0.98389  1.0000
  H   H347      1.0  0.78085  0.10349  0.15449  1.0000
  H   H348      1.0  0.74729  0.41765  0.13571  1.0000
  H   H349      1.0  0.50370  0.13437  0.04235  1.0000
  C   C431      1.0  0.77990  0.17224  0.99076  1.0000
  H   H350      1.0  0.73401  0.38780  0.04627  1.0000
  C   C432      1.0  0.59227  0.47408  0.03423  1.0000
  C   C433      1.0  0.90287  0.40017  0.08159  1.0000
  C   C434      1.0  0.85991  0.40414  0.11945  1.0000
  C   C435      1.0  0.71985  0.07457  0.00986  1.0000
  H   H351      1.0  0.79371  0.06004  0.02255  1.0000
  C   C436      1.0  0.51351  0.15329  0.97258  1.0000
  C   C437      1.0  0.55520  0.50962  0.98056  1.0000
  H   H352      1.0  0.63412  0.41566  0.01037  1.0000
  C   C438      1.0  0.88998  0.49377  0.10868  1.0000
  C   C439      1.0  0.66494  0.27982  0.01608  1.0000
  H   H353      1.0  0.76409  0.15020  0.09415  1.0000
  C   C440      1.0  0.86549  0.26975  0.15742  1.0000
  C   C441      1.0  0.80314  0.13662  0.00538  1.0000
  C   C442      1.0  0.70944  0.29308  0.16114  1.0000
  H   H354      1.0  0.90968  0.21173  0.15726  1.0000
  C   C443      1.0  0.72590  0.15981  0.98618  1.0000
  H   H355      1.0  0.59982  0.47334  0.06705  1.0000
  H   H356      1.0  0.90178  0.18430  0.08279  1.0000
  C   C444      1.0  0.88764  0.22986  0.13938  1.0000
  C   C445      1.0  0.53265  0.14897  0.01037  1.0000
  H   H357      1.0  0.90961  0.36454  0.07094  1.0000
  C   C446      1.0  0.74248  0.11563  0.16075  1.0000
  H   H358      1.0  0.62293  0.25971  0.02013  1.0000
  H   H359      1.0  0.80575  0.20864  0.98096  1.0000
  C   C447      1.0  0.93865  0.44252  0.05726  1.0000
  C   C448      1.0  0.72725  0.35259  0.03126  1.0000
  C   C449      1.0  0.93227  0.48934  0.07083  1.0000
  H   H360      1.0  0.53270  0.53574  0.97307  1.0000
  C   C450      1.0  0.57490  0.47740  0.94838  1.0000
  C   C451      1.0  0.72199  0.38060  0.14320  1.0000
  C   C452      1.0  0.83456  0.27832  0.09093  1.0000
  C   C453      1.0  0.66574  0.37322  0.14576  1.0000
  H   H361      1.0  0.75333  0.53286  0.05655  1.0000
  C   C454      1.0  0.55064  0.17227  0.93139  1.0000
  S   S55       1.0  0.93677  0.33701  0.98201  1.0000
  C   C455      1.0  0.58917  0.16384  0.00690  1.0000
  H   H362      1.0  0.67560  0.17618  0.10502  1.0000
  H   H363      1.0  0.64863  0.40437  0.14029  1.0000
  C   C456      1.0  0.61144  0.44160  0.00254  1.0000
  C   C457      1.0  0.77221  0.33600  0.00496  1.0000
  C   C458      1.0  0.65321  0.28598  0.16400  1.0000
  C   C459      1.0  0.73277  0.14142  0.12591  1.0000
  P   P16       1.0  0.81538  0.34951  0.15266  1.0000
  C   C460      1.0  0.56374  0.50779  0.02335  1.0000
  C   C461      1.0  0.83940  0.29471  0.13291  1.0000
  C   C462      1.0  0.72671  0.54220  0.99742  1.0000
  H   H364      1.0  0.81386  0.35812  0.99976  1.0000
  H   H365      1.0  0.82302  0.45551  0.16334  1.0000
  H   H366      1.0  0.65608  0.09856  0.98933  1.0000
  H   H367      1.0  0.88522  0.53010  0.11931  1.0000
  H   H368      1.0  0.85618  0.22856  0.03945  1.0000
  H   H369      1.0  0.74460  0.51308  0.98023  1.0000
  C   C463      1.0  0.67363  0.32448  0.03686  1.0000
  H   H370      1.0  0.89722  0.54262  0.00594  1.0000
  S   S56       1.0  0.89075  0.44490  0.93425  1.0000
  H   H371      1.0  0.96426  0.29543  0.05368  1.0000
  C   C464      1.0  0.60701  0.18753  0.92786  1.0000
  H   H372      1.0  0.72506  0.26176  0.16888  1.0000
  H   H373      1.0  0.97510  0.33274  0.12658  1.0000
  C   C465      1.0  0.48505  0.38851  0.92392  1.0000
  H   H374      1.0  0.96015  0.52217  0.05213  1.0000
  H   H375      1.0  0.61592  0.41659  0.93634  1.0000
  H   H376      1.0  0.51963  0.51672  0.17057  1.0000
  S   S57       1.0  0.51717  0.12522  0.29480  1.0000
  S   S58       1.0  0.76972  0.53047  0.35570  1.0000
  Fe  Fe30      1.0  0.67654  0.52862  0.22938  1.0000
  H   H377      1.0  0.79209  0.45318  0.40332  1.0000
  H   H378      1.0  0.87558  0.41879  0.39386  1.0000
  C   C466      1.0  0.91882  0.06237  0.41332  1.0000
  C   C467      1.0  0.82319  0.37206  0.29855  1.0000
  P   P17       1.0  0.71598  0.07146  0.24767  1.0000
  C   C468      1.0  0.48639  0.36187  0.30949  1.0000
  H   H379      1.0  0.58198  0.44701  0.40554  1.0000
  H   H380      1.0  0.82284  0.04868  0.20229  1.0000
  H   H381      1.0  0.49728  0.51716  0.35364  1.0000
  H   H382      1.0  0.86983  0.28148  0.18989  1.0000
  C   C469      1.0  0.82928  0.46878  0.37711  1.0000
  S   S59       1.0  0.76335  0.52205  0.22455  1.0000
  C   C470      1.0  0.81774  0.35859  0.20991  1.0000
  H   H383      1.0  0.82429  0.24813  0.31276  1.0000
  H   H384      1.0  0.90995  0.40332  0.26943  1.0000
  H   H385      1.0  0.69576  0.43871  0.38112  1.0000
  C   C471      1.0  0.86804  0.38020  0.21874  1.0000
  C   C472      1.0  0.69524  0.22244  0.38385  1.0000
  C   C473      1.0  0.92603  0.51011  0.31034  1.0000
  H   H386      1.0  0.57512  0.47371  0.30311  1.0000
  H   H387      1.0  0.81859  0.14711  0.20450  1.0000
  C   C474      1.0  0.97649  0.14127  0.26012  1.0000
  H   H388      1.0  0.93940  0.06310  0.26278  1.0000
  H   H389      1.0  0.89217  0.19461  0.23417  1.0000
  C   C475      1.0  0.82983  0.50774  0.34814  1.0000
  C   C476      1.0  0.74966  0.23635  0.29216  1.0000
  C   C477      1.0  0.62112  0.35023  0.30870  1.0000
  C   C478      1.0  0.63339  0.37259  0.38188  1.0000
  H   H390      1.0  0.57387  0.11468  0.37345  1.0000
  H   H391      1.0  0.96362  0.52659  0.28480  1.0000
  C   C479      1.0  0.68793  0.42399  0.31482  1.0000
  S   S60       1.0  0.92079  0.30864  0.31820  1.0000
  H   H392      1.0  0.53098  0.06855  0.22120  1.0000
  C   C480      1.0  0.81155  0.12968  0.33023  1.0000
  Fe  Fe31      1.0  0.56415  0.20341  0.29097  1.0000
  C   C481      1.0  0.51406  0.40552  0.32367  1.0000
  H   H393      1.0  0.72009  0.45576  0.29949  1.0000
  C   C482      1.0  0.87644  0.44932  0.37176  1.0000
  H   H394      1.0  0.80896  0.12724  0.36571  1.0000
  C   C483      1.0  0.65668  0.05608  0.29661  1.0000
  C   C484      1.0  0.75297  0.23226  0.36974  1.0000
  C   C485      1.0  0.87075  0.38721  0.26286  1.0000
  C   C486      1.0  0.77292  0.35115  0.29004  1.0000
  C   C487      1.0  0.59105  0.08470  0.35743  1.0000
  C   C488      1.0  0.78000  0.24013  0.32391  1.0000
  H   H395      1.0  0.62062  0.21315  0.36337  1.0000
  H   H396      1.0  0.67119  0.40036  0.25248  1.0000
  H   H397      1.0  0.57572  0.30847  0.37028  1.0000
  H   H398      1.0  0.60063  0.32527  0.28831  1.0000
  C   C489      1.0  0.77001  0.10140  0.31370  1.0000
  H   H399      1.0  0.90521  0.39106  0.19153  1.0000
  Fe  Fe32      1.0  0.88029  0.26929  0.38607  1.0000
  C   C490      1.0  0.95739  0.09681  0.24157  1.0000
  H   H400      1.0  0.88270  0.52466  0.21066  1.0000
  H   H401      1.0  0.67397  0.21683  0.41933  1.0000
  H   H402      1.0  0.73645  0.07590  0.33700  1.0000
  S   S61       1.0  0.65631  0.22595  0.26492  1.0000
  C   C491      1.0  0.77156  0.10700  0.26805  1.0000
  C   C492      1.0  0.81598  0.14106  0.23944  1.0000
  C   C493      1.0  0.66489  0.22067  0.35217  1.0000
  C   C494      1.0  0.67445  0.41398  0.36120  1.0000
  C   C495      1.0  0.60710  0.34058  0.35528  1.0000
  C   C496      1.0  0.56339  0.43309  0.24601  1.0000
  C   C497      1.0  0.77000  0.34450  0.24591  1.0000
  C   C498      1.0  0.96216  0.09611  0.19543  1.0000
  H   H403      1.0  0.82522  0.37527  0.33290  1.0000
  S   S62       1.0  0.94346  0.22374  0.38078  1.0000
  C   C499      1.0  0.70304  0.10559  0.20291  1.0000
  H   H404      1.0  0.77101  0.24106  0.25667  1.0000
  H   H405      1.0  0.96067  0.07076  0.41627  1.0000
  H   H406      1.0  0.73635  0.33834  0.31780  1.0000
  C   C500      1.0  0.87825  0.52856  0.31484  1.0000
  C   C501      1.0  0.92490  0.46998  0.33846  1.0000
  S   S63       1.0  0.78975  0.23319  0.41016  1.0000
  C   C502      1.0  0.69208  0.22795  0.30620  1.0000
  H   H407      1.0  0.71296  0.32416  0.40639  1.0000
  S   S64       1.0  0.51792  0.21697  0.36002  1.0000
  H   H408      1.0  0.88815  0.18421  0.31400  1.0000
  S   S65       1.0  0.50928  0.23202  0.25710  1.0000
  H   H409      1.0  0.65166  0.13206  0.30475  1.0000
  C   C503      1.0  0.66094  0.39244  0.28850  1.0000
  H   H410      1.0  0.62069  0.11132  0.23953  1.0000
  C   C504      1.0  0.65260  0.11957  0.20834  1.0000
  C   C505      1.0  0.85605  0.16225  0.30122  1.0000
  C   C506      1.0  0.85805  0.16828  0.25603  1.0000
  H   H411      1.0  0.50766  0.41090  0.35910  1.0000
  C   C507      1.0  0.55277  0.44094  0.29195  1.0000
  C   C508      1.0  0.53371  0.39056  0.23189  1.0000
  H   H412      1.0  0.73065  0.32701  0.24048  1.0000
  C   C509      1.0  0.63471  0.09446  0.31828  1.0000
  S   S66       1.0  0.61429  0.47391  0.20472  1.0000
  H   H413      1.0  0.97355  0.14178  0.29565  1.0000
  H   H414      1.0  0.54085  0.38472  0.19644  1.0000
  S   S67       1.0  0.92190  0.32922  0.42275  1.0000
  Fe  Fe33      1.0  0.96632  0.36572  0.35407  1.0000
  C   C510      1.0  0.49588  0.35479  0.26355  1.0000
  C   C511      1.0  0.48937  0.54803  0.37381  1.0000
  H   H415      1.0  0.94390  0.05827  0.34158  1.0000
  C   C512      1.0  0.90928  0.05495  0.37126  1.0000
  C   C513      1.0  0.92631  0.54214  0.20055  1.0000
  H   H416      1.0  0.60362  0.15571  0.17827  1.0000
  C   C514      1.0  0.96529  0.51360  0.18517  1.0000
  H   H417      1.0  0.98177  0.29382  0.19657  1.0000
  H   H418      1.0  0.95110  0.47432  0.18329  1.0000
  H   H419      1.0  0.62630  0.24966  0.17369  1.0000
  C   C515      1.0  0.82656  0.72904  0.59197  1.0000
  C   C516      1.0  0.63599  0.75506  0.53185  1.0000
  H   H420      1.0  0.64757  0.76419  0.65456  1.0000
  H   H421      1.0  0.71963  0.63567  0.56677  1.0000
  C   C517      1.0  0.68219  0.58162  0.65810  1.0000
  C   C518      1.0  0.96297  0.85295  0.51864  1.0000
  C   C519      1.0  0.71612  0.90790  0.58435  1.0000
  C   C520      1.0  0.64493  0.76220  0.62018  1.0000
  C   C521      1.0  0.86164  0.71390  0.61402  1.0000
  H   H422      1.0  0.78662  0.71575  0.53907  1.0000
  H   H423      1.0  0.58805  0.56976  0.47924  1.0000
  C   C522      1.0  0.83583  0.66211  0.54157  1.0000
  C   C523      1.0  0.81381  0.70343  0.55583  1.0000
  H   H424      1.0  0.69068  0.89688  0.61831  1.0000
  C   C524      1.0  0.87123  0.64726  0.56396  1.0000
  C   C525      1.0  0.95529  0.86019  0.47624  1.0000
  C   C526      1.0  0.73975  0.58948  0.64749  1.0000
  C   C527      1.0  0.70898  0.60615  0.54592  1.0000
  C   C528      1.0  0.73299  0.55468  0.48392  1.0000
  C   C529      1.0  0.61275  0.60331  0.46000  1.0000
  C   C530      1.0  0.86215  0.72161  0.44536  1.0000
  H   H425      1.0  0.83085  0.03165  0.56214  1.0000
  C   C531      1.0  0.51760  0.88413  0.54121  1.0000
  H   H426      1.0  0.88172  0.73398  0.47154  1.0000
  H   H427      1.0  0.80992  0.55685  0.62501  1.0000
  H   H428      1.0  0.91036  0.66099  0.61782  1.0000
  H   H429      1.0  0.80225  0.86501  0.49707  1.0000
  C   C532      1.0  0.60306  0.01596  0.49209  1.0000
  P   P18       1.0  0.76290  0.03219  0.49928  1.0000
  C   C533      1.0  0.74865  0.59491  0.50893  1.0000
  H   H430      1.0  0.68569  0.70184  0.60720  1.0000
  H   H431      1.0  0.80902  0.76050  0.60334  1.0000
  H   H432      1.0  0.95838  0.56342  0.61240  1.0000
  C   C534      1.0  0.52202  0.90186  0.58268  1.0000
  C   C535      1.0  0.88389  0.67301  0.60009  1.0000
  C   C536      1.0  0.56396  0.75567  0.46978  1.0000
  C   C537      1.0  0.86081  0.58435  0.47754  1.0000
  H   H433      1.0  0.94217  0.87096  0.54707  1.0000
  H   H434      1.0  0.76422  0.62545  0.65074  1.0000
  H   H435      1.0  0.55281  0.87488  0.51760  1.0000
  H   H436      1.0  0.81081  0.94747  0.46376  1.0000
  H   H437      1.0  0.62465  0.58637  0.58679  1.0000
  H   H438      1.0  0.56080  0.90689  0.59148  1.0000
  H   H439      1.0  0.94661  0.97799  0.44034  1.0000
  C   C538      1.0  0.68174  0.80435  0.44487  1.0000
  C   C539      1.0  0.60963  0.64915  0.47785  1.0000
  H   H440      1.0  0.92844  0.88383  0.47173  1.0000
  C   C540      1.0  0.64050  0.69307  0.45266  1.0000
  C   C541      1.0  0.78359  0.93696  0.49726  1.0000
  C   C542      1.0  0.62063  0.79507  0.60247  1.0000
  C   C543      1.0  0.66632  0.72679  0.59338  1.0000
  C   C544      1.0  0.66211  0.72326  0.54927  1.0000
  C   C545      1.0  0.73732  0.80191  0.42882  1.0000
  H   H441      1.0  0.88874  0.61561  0.55411  1.0000
  C   C546      1.0  0.77907  0.88992  0.51617  1.0000
  H   H442      1.0  0.75016  0.76809  0.43360  1.0000
  C   C547      1.0  0.65486  0.57767  0.55780  1.0000
  C   C548      1.0  0.74560  0.87547  0.55975  1.0000
  H   H443      1.0  0.60511  0.82323  0.62277  1.0000
  H   H444      1.0  0.87110  0.73370  0.64223  1.0000
  H   H445      1.0  0.67933  0.69588  0.52890  1.0000
  H   H446      1.0  0.92242  0.96366  0.60701  1.0000
  C   C549      1.0  0.75425  0.96990  0.52183  1.0000
  H   H447      1.0  0.64775  0.97264  0.51927  1.0000
  C   C550      1.0  0.72051  0.95501  0.56560  1.0000
  H   H448      1.0  0.58246  0.65036  0.51109  1.0000
  H   H449      1.0  0.56366  0.99006  0.50503  1.0000
  C   C551      1.0  0.61690  0.79201  0.55829  1.0000
  C   C552      1.0  0.66673  0.84949  0.44033  1.0000
  C   C553      1.0  0.90089  0.58988  0.43589  1.0000
  C   C554      1.0  0.83002  0.67322  0.44738  1.0000
  H   H450      1.0  0.52132  0.74348  0.54099  1.0000
  H   H451      1.0  0.69832  0.98017  0.58549  1.0000
  H   H452      1.0  0.59893  0.81832  0.54482  1.0000
  C   C555      1.0  0.83971  0.91928  0.63379  1.0000
  H   H453      1.0  0.84804  0.88767  0.61494  1.0000
  P   P19       1.0  0.63083  0.75156  0.47492  1.0000
  C   C556      1.0  0.65095  0.00632  0.50018  1.0000
  P   P20       1.0  0.81968  0.62964  0.49419  1.0000
  C   C557      1.0  0.51793  0.75035  0.50752  1.0000
  C   C558      1.0  0.88178  0.96177  0.62974  1.0000
  H   H454      1.0  0.62428  0.85260  0.45310  1.0000
  H   H455      1.0  0.59890  0.04808  0.57692  1.0000
  H   H456      1.0  0.74298  0.83935  0.57464  1.0000
  H   H457      1.0  0.97848  0.69866  0.45740  1.0000
  C   C559      1.0  0.55733  0.76179  0.42671  1.0000
  H   H458      1.0  0.90524  0.03374  0.65396  1.0000
  C   C560      1.0  0.87205  0.00143  0.65610  1.0000
  S   S68       1.0  0.55001  0.00900  0.66560  1.0000
  H   H459      1.0  0.71794  0.03003  0.66543  1.0000
  C   C561      1.0  0.78767  0.91670  0.66378  1.0000
  H   H460      1.0  0.75648  0.88266  0.66804  1.0000
  C   C562      1.0  0.70163  0.04093  0.48509  1.0000
  C   C563      1.0  0.93380  0.54834  0.64558  1.0000
  C   C564      1.0  0.76568  0.55070  0.63259  1.0000
  C   C565      1.0  0.82000  0.04331  0.44889  1.0000
  H   H461      1.0  0.66986  0.00822  0.81028  1.0000
  H   H462      1.0  0.62945  0.91884  0.81679  1.0000
  S   S69       1.0  0.97928  0.55845  0.84589  1.0000
  H   H463      1.0  0.93057  0.70499  0.86661  1.0000
  C   C566      1.0  0.65662  0.90921  0.71700  1.0000
  H   H464      1.0  0.62642  0.96438  0.68761  1.0000
  H   H465      1.0  0.80225  0.92078  0.75837  1.0000
  C   C567      1.0  0.92389  0.91225  0.77500  1.0000
  H   H466      1.0  0.81385  0.02964  0.70716  1.0000
  C   C568      1.0  0.91919  0.57989  0.84879  1.0000
  C   C569      1.0  0.96105  0.73937  0.86343  1.0000
  C   C570      1.0  0.52182  0.74857  0.81885  1.0000
  C   C571      1.0  0.71580  0.86616  0.85692  1.0000
  C   C572      1.0  0.87936  0.83950  0.74411  1.0000
  C   C573      1.0  0.52215  0.81306  0.87156  1.0000
  H   H467      1.0  0.97522  0.79931  0.70009  1.0000
  H   H468      1.0  0.90213  0.91304  0.71230  1.0000
  Fe  Fe34      1.0  0.65896  0.73018  0.81099  1.0000
  C   C574      1.0  0.76405  0.88097  0.82206  1.0000
  C   C575      1.0  0.66790  0.90999  0.81841  1.0000
  S   S70       1.0  0.94385  0.91009  0.85773  1.0000
  C   C576      1.0  0.88028  0.81027  0.78071  1.0000
  C   C577      1.0  0.86699  0.63237  0.82364  1.0000
  C   C578      1.0  0.61998  0.92578  0.69740  1.0000
  H   H469      1.0  0.53780  0.83175  0.89765  1.0000
  C   C579      1.0  0.58167  0.01633  0.90245  1.0000
  H   H470      1.0  0.53042  0.94252  0.91597  1.0000
  H   H471      1.0  0.90207  0.80941  0.84310  1.0000
  S   S71       1.0  0.59900  0.75828  0.86668  1.0000
  C   C580      1.0  0.56090  0.84338  0.70830  1.0000
  C   C581      1.0  0.82021  0.56572  0.88032  1.0000
  Fe  Fe35      1.0  0.50165  0.99679  0.73841  1.0000
  Fe  Fe36      1.0  0.90593  0.97574  0.87198  1.0000
  H   H472      1.0  0.95565  0.64048  0.79864  1.0000
  H   H473      1.0  0.89753  0.72584  0.72282  1.0000
  H   H474      1.0  0.91450  0.64214  0.71731  1.0000
  S   S72       1.0  0.68881  0.74799  0.73632  1.0000
  H   H475      1.0  0.53784  0.71773  0.80373  1.0000
  C   C582      1.0  0.82002  0.99913  0.68590  1.0000
  C   C583      1.0  0.69578  0.01268  0.73728  1.0000
  Fe  Fe37      1.0  0.77418  0.75280  0.74290  1.0000
  C   C584      1.0  0.95162  0.56219  0.68375  1.0000
  S   S73       1.0  0.74489  0.74265  0.81792  1.0000
  S   S74       1.0  0.84500  0.81295  0.70510  1.0000
  H   H476      1.0  0.86551  0.66310  0.80280  1.0000
  C   C585      1.0  0.70190  0.04235  0.69853  1.0000
  C   C586      1.0  0.77720  0.95699  0.68943  1.0000
  P   P21       1.0  0.71220  0.95231  0.73135  1.0000
  C   C587      1.0  0.92354  0.88302  0.81206  1.0000
  H   H477      1.0  0.53234  0.64561  0.87952  1.0000
  C   C588      1.0  0.66788  0.88035  0.85486  1.0000
  S   S75       1.0  0.53201  0.04333  0.88951  1.0000
  C   C589      1.0  0.71631  0.92530  0.78311  1.0000
  S   S76       1.0  0.65002  0.64904  0.80420  1.0000
  H   H478      1.0  0.59049  0.78746  0.73652  1.0000
  H   H479      1.0  0.71501  0.84321  0.88535  1.0000
  C   C590      1.0  0.54369  0.57164  0.88766  1.0000
  H   H480      1.0  0.63030  0.86698  0.88104  1.0000
  C   C591      1.0  0.93952  0.72101  0.71098  1.0000
  H   H481      1.0  0.67431  0.84496  0.74460  1.0000
  S   S77       1.0  0.52384  0.95142  0.78802  1.0000
  S   S78       1.0  0.75228  0.61573  0.85968  1.0000
  Fe  Fe38      1.0  0.73757  0.66236  0.80762  1.0000
  C   C592      1.0  0.56986  0.96608  0.91590  1.0000
  H   H482      1.0  0.86259  0.77103  0.78361  1.0000
  S   S79       1.0  0.77366  0.67276  0.73289  1.0000
  C   C593      1.0  0.59903  0.82595  0.72504  1.0000
  H   H483      1.0  0.93946  0.95190  0.77332  1.0000
  C   C594      1.0  0.87028  0.55348  0.87818  1.0000
  H   H484      1.0  0.80119  0.86964  0.82356  1.0000
  S   S80       1.0  0.83478  0.98418  0.84665  1.0000
  C   C595      1.0  0.90296  0.83193  0.81432  1.0000
  C   C596      1.0  0.81818  0.60494  0.85316  1.0000
  H   H485      1.0  0.54218  0.90667  0.68119  1.0000
  H   H486      1.0  0.58499  0.58445  0.89154  1.0000
  H   H487      1.0  0.52236  0.81862  0.70750  1.0000
  C   C597      1.0  0.54386  0.77395  0.85126  1.0000
  C   C598      1.0  0.63235  0.04686  0.90304  1.0000
  C   C599      1.0  0.94950  0.67341  0.70768  1.0000
  C   C600      1.0  0.91786  0.61992  0.82163  1.0000
  C   C601      1.0  0.76448  0.91052  0.78525  1.0000
  Fe  Fe39      1.0  0.79367  0.99764  0.91739  1.0000
  C   C602      1.0  0.51405  0.60632  0.88079  1.0000
  C   C603      1.0  0.57212  0.89298  0.69340  1.0000
  C   C604      1.0  0.67450  0.02964  0.77972  1.0000
  Fe  Fe40      1.0  0.68632  0.66734  0.73028  1.0000
  C   C605      1.0  0.96472  0.76584  0.90157  1.0000
  C   C606      1.0  0.90287  0.89028  0.74048  1.0000
  C   C607      1.0  0.64672  0.85863  0.72928  1.0000
  Fe  Fe41      1.0  0.49345  0.00386  0.83874  1.0000
  H   H488      1.0  0.79017  0.83951  0.91763  1.0000
  H   H489      1.0  0.71665  0.76490  0.91584  1.0000
  C   C608      1.0  0.67195  0.02689  0.91573  1.0000
  S   S81       1.0  0.64867  0.62860  0.67878  1.0000
  H   H490      1.0  0.97643  0.66834  0.91351  1.0000
  H   H491      1.0  0.93142  0.55196  0.75635  1.0000
  S   S82       1.0  0.86227  0.62408  0.13786  1.0000
  H   H492      1.0  0.87554  0.82998  0.93445  1.0000
  C   C609      1.0  0.97886  0.78785  0.00989  1.0000
  C   C610      1.0  0.94739  0.83604  0.07289  1.0000
  P   P22       1.0  0.56787  0.92996  0.12818  1.0000
  C   C611      1.0  0.79473  0.80287  0.92575  1.0000
  C   C612      1.0  0.87514  0.65930  0.01212  1.0000
  H   H493      1.0  0.71182  0.59818  0.09610  1.0000
  C   C613      1.0  0.54689  0.00938  0.02505  1.0000
  H   H494      1.0  0.55805  0.03083  0.15010  1.0000
  C   C614      1.0  0.65964  0.97720  0.93066  1.0000
  H   H495      1.0  0.76161  0.69766  0.05831  1.0000
  P   P23       1.0  0.91461  0.74414  0.95472  1.0000
  C   C615      1.0  0.80907  0.70824  0.94335  1.0000
  C   C616      1.0  0.53129  0.64814  0.12018  1.0000
  C   C617      1.0  0.57292  0.57948  0.12856  1.0000
  C   C618      1.0  0.67390  0.60499  0.99906  1.0000
  H   H496      1.0  0.90718  0.90972  0.99086  1.0000
  C   C619      1.0  0.75361  0.76113  0.92468  1.0000
  C   C620      1.0  0.96366  0.77266  0.16125  1.0000
  H   H497      1.0  0.85011  0.68066  0.03427  1.0000
  H   H498      1.0  0.60818  0.56273  0.12277  1.0000
  C   C621      1.0  0.90220  0.58140  0.99684  1.0000
  H   H499      1.0  0.84083  0.59313  0.05583  1.0000
  H   H500      1.0  0.59880  0.90853  0.94297  1.0000
  H   H501      1.0  0.61285  0.84877  0.15286  1.0000
  C   C622      1.0  0.90103  0.68203  0.14508  1.0000
  C   C623      1.0  0.65086  0.78906  0.00282  1.0000
  C   C624      1.0  0.57758  0.62683  0.10962  1.0000
  C   C625      1.0  0.65820  0.70479  0.15181  1.0000
  C   C626      1.0  0.74142  0.70633  0.09183  1.0000
  C   C627      1.0  0.53678  0.95892  0.09232  1.0000
  H   H502      1.0  0.81805  0.73944  0.10674  1.0000
  C   C628      1.0  0.54636  0.78453  0.16771  1.0000
  H   H503      1.0  0.65989  0.01111  0.13528  1.0000
  C   C629      1.0  0.93577  0.95936  0.03744  1.0000
  H   H504      1.0  0.84622  0.97984  0.15705  1.0000
  P   P24       1.0  0.64289  0.66059  0.07350  1.0000
  C   C630      1.0  0.94106  0.60324  0.95732  1.0000
  C   C631      1.0  0.66455  0.91047  0.07223  1.0000
  H   H505      1.0  0.76016  0.02658  0.10164  1.0000
  H   H506      1.0  0.77319  0.90654  0.15325  1.0000
  H   H507      1.0  0.60535  0.80011  0.95573  1.0000
  C   C632      1.0  0.72164  0.92017  0.05250  1.0000
  C   C633      1.0  0.92757  0.78125  0.00036  1.0000
  C   C634      1.0  0.66066  0.75491  0.03140  1.0000
  H   H508      1.0  0.53430  0.68535  0.10755  1.0000
  C   C635      1.0  0.95796  0.69521  0.12446  1.0000
  H   H509      1.0  0.56763  0.65289  0.01614  1.0000
  H   H510      1.0  0.53085  0.89001  0.00924  1.0000
  H   H511      1.0  0.65136  0.62369  0.98231  1.0000
  C   C636      1.0  0.56826  0.98001  0.04948  1.0000
  C   C637      1.0  0.85027  0.75007  0.94503  1.0000
  H   H512      1.0  0.55257  0.71329  0.96442  1.0000
  C   C638      1.0  0.60833  0.94693  0.93131  1.0000
  C   C639      1.0  0.58196  0.72494  0.98389  1.0000
  C   C640      1.0  0.84308  0.79735  0.93552  1.0000
  H   H513      1.0  0.84497  0.79506  0.02326  1.0000
  C   C641      1.0  0.48852  0.86951  0.02170  1.0000
  H   H514      1.0  0.73910  0.89627  0.02776  1.0000
  C   C642      1.0  0.68363  0.69261  0.10840  1.0000
  C   C643      1.0  0.61175  0.77402  0.97894  1.0000
  C   C644      1.0  0.87540  0.71448  0.17297  1.0000
  H   H515      1.0  0.86343  0.84377  0.08608  1.0000
  C   C645      1.0  0.77338  0.73086  0.11869  1.0000
  C   C646      1.0  0.53910  0.86428  0.13995  1.0000
  C   C647      1.0  0.75610  0.96187  0.06321  1.0000
  H   H516      1.0  0.69798  0.03609  0.01485  1.0000
  H   H517      1.0  0.57179  0.02678  0.99271  1.0000
  C   C648      1.0  0.64163  0.94236  0.10311  1.0000
  S   S83       1.0  0.94131  0.04192  0.16957  1.0000
  C   C649      1.0  0.91219  0.68096  0.97135  1.0000
  H   H518      1.0  0.97785  0.67001  0.10289  1.0000
  H   H519      1.0  0.67470  0.82697  0.99798  1.0000
  S   S84       1.0  0.70743  0.95367  0.95043  1.0000
  H   H520      1.0  0.61389  0.69386  0.16592  1.0000
  C   C650      1.0  0.49376  0.01704  0.04245  1.0000
  H   H521      1.0  0.80027  0.96963  0.04757  1.0000
  C   C651      1.0  0.67635  0.98510  0.11254  1.0000
  C   C652      1.0  0.63083  0.70536  0.03662  1.0000
  H   H522      1.0  0.63821  0.87869  0.06274  1.0000
  C   C653      1.0  0.94252  0.93383  0.99815  1.0000
  C   C654      1.0  0.67845  0.61646  0.04231  1.0000
  C   C655      1.0  0.89581  0.82866  0.06437  1.0000
  H   H523      1.0  0.89521  0.95535  0.06078  1.0000
  C   C656      1.0  0.57049  0.83387  0.15255  1.0000
  C   C657      1.0  0.74774  0.74356  0.16153  1.0000
  H   H524      1.0  0.69182  0.76738  0.04892  1.0000
  S   S85       1.0  0.86237  0.98370  0.94345  1.0000
  C   C658      1.0  0.86990  0.60965  0.02455  1.0000
  H   H525      1.0  0.60971  0.97488  0.03501  1.0000
  C   C659      1.0  0.94618  0.65281  0.94448  1.0000
  C   C660      1.0  0.59113  0.69080  0.01279  1.0000
  C   C661      1.0  0.88574  0.80121  0.02839  1.0000
  H   H526      1.0  0.51099  0.80462  0.04253  1.0000
  C   C662      1.0  0.70804  0.59056  0.06259  1.0000
  C   C663      1.0  0.73342  0.99428  0.09322  1.0000
  H   H527      1.0  0.95507  0.85699  0.10098  1.0000
  C   C664      1.0  0.69804  0.56814  0.97679  1.0000
  H   H528      1.0  0.69369  0.55910  0.94363  1.0000
  H   H529      1.0  0.72998  0.68181  0.93038  1.0000
  H   H530      1.0  0.81454  0.67114  0.94812  1.0000
  C   C665      1.0  0.76088  0.71400  0.93332  1.0000
  C   C666      1.0  0.76241  0.93778  0.17166  1.0000
  C   C667      1.0  0.49095  0.76493  0.17002  1.0000
  C   C668      1.0  0.98158  0.99003  0.04679  1.0000
  C   C669      1.0  0.48324  0.84433  0.14279  1.0000
  H   H531      1.0  0.96663  0.58141  0.93616  1.0000
  C   C670      1.0  0.48302  0.96647  0.10947  1.0000
  H   H532      1.0  0.97645  0.00953  0.07749  1.0000
  C   C671      1.0  0.52233  0.55308  0.15600  1.0000
  C   C672      1.0  0.73161  0.55337  0.04035  1.0000
  H   H533      1.0  0.79188  0.91965  0.38293  1.0000
  C   C673      1.0  0.52440  0.62865  0.39810  1.0000
  C   C674      1.0  0.64744  0.60074  0.41728  1.0000
  C   C675      1.0  0.85516  0.04117  0.36785  1.0000
  H   H534      1.0  0.94121  0.67733  0.30989  1.0000
  C   C676      1.0  0.80812  0.65817  0.41127  1.0000
  H   H535      1.0  0.50081  0.76776  0.38804  1.0000
  C   C677      1.0  0.96367  0.71399  0.31433  1.0000
  C   C678      1.0  0.84649  0.73973  0.37386  1.0000
  C   C679      1.0  0.94344  0.59313  0.20311  1.0000
  C   C680      1.0  0.67329  0.87273  0.31630  1.0000
  C   C681      1.0  0.78998  0.01778  0.20012  1.0000
  S   S86       1.0  0.78257  0.63229  0.26466  1.0000
  H   H536      1.0  0.83139  0.70457  0.18854  1.0000
  H   H537      1.0  0.88608  0.78541  0.20116  1.0000
  C   C682      1.0  0.55076  0.00903  0.18109  1.0000
  H   H538      1.0  0.90933  0.62225  0.41343  1.0000
  S   S87       1.0  0.87534  0.84305  0.27709  1.0000
  C   C683      1.0  0.81656  0.69131  0.37469  1.0000
  C   C684      1.0  0.50445  0.71370  0.29750  1.0000
  H   H539      1.0  0.62976  0.81454  0.23162  1.0000
  H   H540      1.0  0.54667  0.89391  0.22266  1.0000
  S   S88       1.0  0.88904  0.90111  0.18194  1.0000
  C   C685      1.0  0.76131  0.88771  0.40077  1.0000
  H   H541      1.0  0.51494  0.02081  0.29407  1.0000
  C   C686      1.0  0.53078  0.95480  0.26227  1.0000
  C   C687      1.0  0.77667  0.84318  0.40597  1.0000
  H   H542      1.0  0.76902  0.02350  0.40310  1.0000
  C   C688      1.0  0.67672  0.64424  0.39146  1.0000
  Fe  Fe42      1.0  0.69447  0.62972  0.26681  1.0000
  C   C689      1.0  0.55639  0.71634  0.30439  1.0000
  C   C690      1.0  0.53625  0.03098  0.22168  1.0000
  H   H543      1.0  0.85253  0.76532  0.34559  1.0000
  H   H544      1.0  0.58496  0.61241  0.25487  1.0000
  H   H545      1.0  0.57622  0.96098  0.37118  1.0000
  C   C691      1.0  0.69307  0.97773  0.21577  1.0000
  Fe  Fe43      1.0  0.82213  0.87887  0.24653  1.0000
  H   H546      1.0  0.84791  0.03490  0.33520  1.0000
  Fe  Fe44      1.0  0.75190  0.55395  0.29248  1.0000
  H   H547      1.0  0.78487  0.62078  0.41085  1.0000
  C   C692      1.0  0.54437  0.93229  0.22169  1.0000
  C   C693      1.0  0.70712  0.93734  0.19240  1.0000
  H   H548      1.0  0.57366  0.58961  0.35012  1.0000
  C   C694      1.0  0.58587  0.68048  0.28851  1.0000
  H   H549      1.0  0.87913  0.55952  0.29325  1.0000
  H   H550      1.0  0.67084  0.74025  0.21150  1.0000
  S   S89       1.0  0.50861  0.86809  0.36538  1.0000
  Fe  Fe45      1.0  0.94383  0.87114  0.21449  1.0000
  C   C695      1.0  0.67633  0.84943  0.27593  1.0000
  H   H551      1.0  0.64992  0.97800  0.22936  1.0000
  C   C696      1.0  0.50565  0.76356  0.42148  1.0000
  H   H552      1.0  0.71053  0.88596  0.32656  1.0000
  H   H553      1.0  0.65076  0.56516  0.40368  1.0000
  C   C697      1.0  0.57694  0.83923  0.28949  1.0000
  H   H554      1.0  0.94663  0.74809  0.25845  1.0000
  C   C698      1.0  0.62172  0.87788  0.34385  1.0000
  Fe  Fe46      1.0  0.90168  0.91764  0.30205  1.0000
  C   C699      1.0  0.59252  0.99809  0.35595  1.0000
  H   H555      1.0  0.69487  0.92581  0.41488  1.0000
  C   C700      1.0  0.67241  0.69032  0.40854  1.0000
  H   H556      1.0  0.57412  0.74665  0.32168  1.0000
  C   C701      1.0  0.57319  0.86116  0.33049  1.0000
  H   H557      1.0  0.65578  0.97791  0.30388  1.0000
  C   C702      1.0  0.56251  0.64069  0.26678  1.0000
  H   H558      1.0  0.67516  0.90596  0.18969  1.0000
  C   C703      1.0  0.92934  0.55252  0.42219  1.0000
  H   H559      1.0  0.59207  0.76497  0.39700  1.0000
  S   S90       1.0  0.90596  0.92499  0.37327  1.0000
  H   H560      1.0  0.69284  0.72330  0.38662  1.0000
  C   C704      1.0  0.81057  0.03514  0.40648  1.0000
  C   C705      1.0  0.53308  0.58849  0.37224  1.0000
  H   H561      1.0  0.52261  0.93388  0.29377  1.0000
  C   C706      1.0  0.62795  0.83288  0.26263  1.0000
  H   H562      1.0  0.79985  0.67944  0.34686  1.0000
  H   H563      1.0  0.89285  0.79251  0.40789  1.0000
  S   S91       1.0  0.65114  0.68751  0.29777  1.0000
  H   H564      1.0  0.91299  0.61516  0.21473  1.0000
  S   S92       1.0  0.70247  0.60541  0.19690  1.0000
  H   H565      1.0  0.70148  0.64225  0.35748  1.0000
  H   H566      1.0  0.61945  0.89470  0.37553  1.0000
  H   H567      1.0  0.81922  0.84077  0.39227  1.0000
  C   C707      1.0  0.52666  0.00406  0.26236  1.0000
  S   S93       1.0  0.73846  0.83923  0.24036  1.0000
  C   C708      1.0  0.50939  0.63716  0.26119  1.0000
  Fe  Fe47      1.0  0.78814  0.60102  0.19714  1.0000
  C   C709      1.0  0.86934  0.75490  0.40908  1.0000
  C   C710      1.0  0.96661  0.75379  0.28535  1.0000
  S   S94       1.0  0.84353  0.95194  0.27586  1.0000
  C   C711      1.0  0.63685  0.00788  0.31705  1.0000
  H   H568      1.0  0.54036  0.82570  0.27891  1.0000
  C   C712      1.0  0.70657  0.89114  0.41874  1.0000
  S   S95       1.0  0.66314  0.55353  0.29930  1.0000
  C   C713      1.0  0.97355  0.94693  0.37673  1.0000
  H   H569      1.0  0.55830  0.66043  0.39551  1.0000
  C   C714      1.0  0.73446  0.01755  0.22108  1.0000
  Fe  Fe48      1.0  0.91438  0.97177  0.21352  1.0000
  C   C715      1.0  0.80360  0.97854  0.17461  1.0000
  S   S96       1.0  0.97411  0.94335  0.24175  1.0000
  C   C716      1.0  0.98170  0.97230  0.41416  1.0000
  C   C717      1.0  0.90645  0.76014  0.18034  1.0000
  C   C718      1.0  0.55419  0.95924  0.18075  1.0000
  H   H570      1.0  0.53461  0.02852  0.40556  1.0000
  C   C719      1.0  0.56914  0.03629  0.37566  1.0000
  H   H571      1.0  0.56992  0.76207  0.17957  1.0000
  C   C720      1.0  0.69026  0.73075  0.17796  1.0000
  H   H572      1.0  0.77232  0.76277  0.18244  1.0000
  H   H573      1.0  0.49083  0.60596  0.24544  1.0000
  H   H574      1.0  0.48317  0.74262  0.30854  1.0000
  H   H575      1.0  0.97891  0.84629  0.40649  1.0000
  H   H576      1.0  0.95926  0.55619  0.38952  1.0000
