data_image0
_chemical_formula_structural       H2C3H2CHC3HC2HCHCH3C4HCH3SC2H2CHC2H2C6PH2CHCHCH3C12H2CHCH3C2H3PH3CHCHC2H2CHC4HCH2C5HC2H2C2HC2H2C2H3CHC2H2CH2C2PC3H2CH2CHC2HCHCH2CHCH2PC7HC2H2CHC2H2C2HCH2CH2C3SCHCH2C3HCHC2HC2PCH7C3HC2HCSHCH4CHCHC2HC6HC2HC4HS2C3HCFeHCHCHCFeSH4FeC3SH2FeH4C2FeC2SCSC2SCSH2CH2C2SH6SC4SH2CHC2H3CHCHSCHC3H3CHCHC2FeC2HCHPC3HC3H3C3HCFeSH2S3CSFeCH2CHC3HCHFeC2SFeH3C3HCSFeC3HSCSCH3CH3FeS2CH2CHC2H2C2H2CHCHSCSFeH3C4HC7HCH2C3FeHC2FeH3CSHS2PHSCH2C7PC3SC2HC2HCH2PC4H2C2HCHC3H2C3SC3HCH3CHC3HC2HCHC2HC2H4CHFeCHC3FeC3H3CHC3HCHFeHSH3SHPHCHC3HCH2C2HSHSHC5HC3SC2H2CH2CH4CHCPC4HCH4C2H2C2HCHCHSC2H2CFeCHSHC5HC3H4SH5CSCH2CHCFeCH2C4H2CHC2HCHC2PC2H2CHCHCSCH4C2H2C2H3CFeHCHC2HCH2SHSC2H2C2PCFeCSH2C6H2CH2CH3CHSH3SC5H2C2HCHCSH2FeC4H2CH2SFeHSHFeHCFeH2SC2S2CHC5SHC2H2CH2FeC2H2PHC2HCH2CHCHC3HC5HSCHFeCPC4HC3H4SH2CHC2SC6H4C6HC3FeHCSPCHS2H3CHCHCHCFe2SHSC2H2C2HCHC2HC2H2C2HCFeC4HC8H2
_chemical_formula_sum              "H384 C480 S64 P16 Fe32"
_cell_length_a       20.8098
_cell_length_b       13.8984
_cell_length_c       44.1878
_cell_angle_alpha    92.4308
_cell_angle_beta     88.2041
_cell_angle_gamma    81.5071

_space_group_name_H-M_alt    "P 1"
_space_group_IT_number       1

loop_
  _space_group_symop_operation_xyz
  'x, y, z'

loop_
  _atom_site_type_symbol
  _atom_site_label
  _atom_site_symmetry_multiplicity
  _atom_site_fract_x
  _atom_site_fract_y
  _atom_site_fract_z
  _atom_site_occupancy
  H   H1        1.0  0.16238  0.70369  0.21662  1.0000
  H   H2        1.0  0.97681  0.63331  0.17998  1.0000
  C   C1        1.0  0.15104  0.58792  0.28891  1.0000
  C   C2        1.0  0.18396  0.82377  0.24474  1.0000
  C   C3        1.0  0.01075  0.02283  0.27483  1.0000
  H   H3        1.0  0.34076  0.03601  0.27578  1.0000
  H   H4        1.0  0.41386  0.04051  0.16786  1.0000
  C   C4        1.0  0.24761  0.75717  0.19990  1.0000
  H   H5        1.0  0.34307  0.69929  0.27865  1.0000
  C   C5        1.0  0.26965  0.99510  0.33555  1.0000
  C   C6        1.0  0.22525  0.02960  0.17602  1.0000
  C   C7        1.0  0.07727  0.00541  0.26735  1.0000
  H   H6        1.0  0.33210  0.82262  0.18947  1.0000
  C   C8        1.0  0.44844  0.59988  0.17414  1.0000
  C   C9        1.0  0.41872  0.78562  0.28719  1.0000
  H   H7        1.0  0.06547  0.57357  0.39713  1.0000
  C   C10       1.0  0.44027  0.92365  0.39334  1.0000
  H   H8        1.0  0.23578  0.78416  0.30173  1.0000
  C   C11       1.0  0.03395  0.06038  0.32693  1.0000
  H   H9        1.0  0.06098  0.05426  0.18466  1.0000
  H   H10       1.0  0.40190  0.96868  0.40668  1.0000
  H   H11       1.0  0.26710  0.04680  0.18794  1.0000
  C   C12       1.0  0.29041  0.82405  0.20473  1.0000
  C   C13       1.0  0.98920  0.69883  0.17059  1.0000
  C   C14       1.0  0.44714  0.89129  0.17707  1.0000
  C   C15       1.0  0.20032  0.58496  0.30986  1.0000
  H   H12       1.0  0.40118  0.80817  0.31012  1.0000
  C   C16       1.0  0.28017  0.79573  0.34452  1.0000
  H   H13       1.0  0.09054  0.66405  0.17972  1.0000
  H   H14       1.0  0.30770  0.00691  0.37985  1.0000
  H   H15       1.0  0.43491  0.90347  0.20106  1.0000
  S   S1        1.0  0.18118  0.60976  0.34865  1.0000
  C   C17       1.0  0.16318  0.05199  0.18973  1.0000
  C   C18       1.0  0.10067  0.04048  0.31969  1.0000
  H   H16       1.0  0.28411  0.71858  0.34813  1.0000
  H   H17       1.0  0.38102  0.64982  0.22656  1.0000
  C   C19       1.0  0.25353  0.83325  0.31803  1.0000
  H   H18       1.0  0.31376  0.94251  0.23261  1.0000
  C   C20       1.0  0.05359  0.71604  0.17028  1.0000
  C   C21       1.0  0.24856  0.93328  0.31328  1.0000
  H   H19       1.0  0.14393  0.81926  0.26063  1.0000
  H   H20       1.0  0.09268  0.98755  0.24393  1.0000
  C   C22       1.0  0.27960  0.89203  0.22933  1.0000
  C   C23       1.0  0.29972  0.85798  0.36684  1.0000
  C   C24       1.0  0.22492  0.89457  0.24901  1.0000
  C   C25       1.0  0.10868  0.03621  0.17370  1.0000
  C   C26       1.0  0.38613  0.72425  0.26949  1.0000
  C   C27       1.0  0.29457  0.95756  0.36229  1.0000
  P   P1        1.0  0.20919  0.98350  0.28052  1.0000
  H   H21       1.0  0.10079  0.60856  0.29648  1.0000
  H   H22       1.0  0.25649  0.70314  0.18124  1.0000
  C   C28       1.0  0.12291  0.01112  0.28987  1.0000
  H   H23       1.0  0.31758  0.82907  0.38784  1.0000
  C   C29       1.0  0.40843  0.69585  0.23979  1.0000
  H   H24       1.0  0.09699  0.73799  0.40204  1.0000
  C   C30       1.0  0.19446  0.75731  0.21989  1.0000
  H   H25       1.0  0.97624  0.01630  0.25729  1.0000
  H   H26       1.0  0.44845  0.05048  0.29876  1.0000
  H   H27       1.0  0.13451  0.04902  0.33740  1.0000
  C   C31       1.0  0.98898  0.05072  0.30459  1.0000
  C   C32       1.0  0.45481  0.82411  0.39793  1.0000
  C   C33       1.0  0.43246  0.61758  0.61343  1.0000
  C   C34       1.0  0.36781  0.78853  0.52646  1.0000
  C   C35       1.0  0.18710  0.90889  0.59232  1.0000
  C   C36       1.0  0.35497  0.73057  0.50145  1.0000
  C   C37       1.0  0.00240  0.87032  0.54433  1.0000
  C   C38       1.0  0.10936  0.91918  0.53799  1.0000
  C   C39       1.0  0.40388  0.04289  0.47322  1.0000
  C   C40       1.0  0.08869  0.69917  0.42225  1.0000
  C   C41       1.0  0.39565  0.70573  0.60643  1.0000
  C   C42       1.0  0.24062  0.79673  0.50713  1.0000
  H   H28       1.0  0.19191  0.79777  0.49936  1.0000
  H   H29       1.0  0.42718  0.79096  0.41473  1.0000
  C   C43       1.0  0.37493  0.95887  0.46790  1.0000
  H   H30       1.0  0.07612  0.84746  0.57702  1.0000
  C   C44       1.0  0.07100  0.60622  0.41946  1.0000
  H   H31       1.0  0.24611  0.76654  0.58615  1.0000
  H   H32       1.0  0.30013  0.04083  0.53935  1.0000
  H   H33       1.0  0.39422  0.68199  0.48961  1.0000
  C   C45       1.0  0.38480  0.78334  0.62804  1.0000
  C   C46       1.0  0.02985  0.94973  0.49903  1.0000
  H   H34       1.0  0.41705  0.78486  0.53405  1.0000
  H   H35       1.0  0.24545  0.73375  0.64056  1.0000
  H   H36       1.0  0.01543  0.98069  0.47773  1.0000
  P   P2        1.0  0.18759  0.93528  0.55257  1.0000
  H   H37       1.0  0.28150  0.68756  0.47281  1.0000
  H   H38       1.0  0.12567  0.98990  0.49641  1.0000
  H   H39       1.0  0.32794  0.89312  0.56179  1.0000
  C   C47       1.0  0.06069  0.71481  0.64273  1.0000
  H   H40       1.0  0.09254  0.72264  0.62343  1.0000
  C   C48       1.0  0.21968  0.82033  0.60212  1.0000
  H   H41       1.0  0.37622  0.71395  0.58417  1.0000
  C   C49       1.0  0.18334  0.86750  0.65398  1.0000
  C   C50       1.0  0.98138  0.57259  0.52419  1.0000
  H   H42       1.0  0.10798  0.81446  0.45307  1.0000
  H   H43       1.0  0.40268  0.88716  0.46885  1.0000
  C   C51       1.0  0.21855  0.80051  0.63292  1.0000
  H   H44       1.0  0.01433  0.64445  0.56414  1.0000
  C   C52       1.0  0.37311  0.02439  0.65996  1.0000
  C   C53       1.0  0.29138  0.73426  0.49189  1.0000
  C   C54       1.0  0.30958  0.96691  0.46046  1.0000
  C   C55       1.0  0.07133  0.59503  0.47424  1.0000
  H   H45       1.0  0.12117  0.00515  0.66063  1.0000
  C   C56       1.0  0.40981  0.77187  0.65686  1.0000
  H   H46       1.0  0.19460  0.57557  0.50073  1.0000
  H   H47       1.0  0.96660  0.84091  0.55808  1.0000
  C   C57       1.0  0.15059  0.97454  0.61360  1.0000
  C   C58       1.0  0.09547  0.74168  0.45100  1.0000
  C   C59       1.0  0.09184  0.95528  0.50974  1.0000
  C   C60       1.0  0.08613  0.69020  0.47696  1.0000
  C   C61       1.0  0.97329  0.62367  0.55247  1.0000
  H   H48       1.0  0.35753  0.85264  0.62251  1.0000
  C   C62       1.0  0.06444  0.87526  0.55506  1.0000
  C   C63       1.0  0.14834  0.95330  0.64420  1.0000
  H   H49       1.0  0.09074  0.72404  0.49914  1.0000
  H   H50       1.0  0.28786  0.90215  0.45558  1.0000
  C   C64       1.0  0.25311  0.85588  0.53220  1.0000
  C   C65       1.0  0.31713  0.85020  0.54200  1.0000
  H   H51       1.0  0.28277  0.57770  0.53639  1.0000
  C   C66       1.0  0.99389  0.74682  0.64159  1.0000
  C   C67       1.0  0.98513  0.90751  0.51636  1.0000
  H   H52       1.0  0.97485  0.77900  0.62121  1.0000
  H   H53       1.0  0.12388  0.04242  0.60680  1.0000
  C   C68       1.0  0.27249  0.05860  0.45869  1.0000
  C   C69       1.0  0.19581  0.06275  0.54931  1.0000
  H   H54       1.0  0.12796  0.03237  0.77117  1.0000
  H   H55       1.0  0.15044  0.84009  0.78416  1.0000
  H   H56       1.0  0.36387  0.66808  0.84500  1.0000
  C   C70       1.0  0.31579  0.79486  0.82413  1.0000
  H   H57       1.0  0.42221  0.98905  0.66252  1.0000
  C   C71       1.0  0.98352  0.79802  0.81823  1.0000
  C   C72       1.0  0.23514  0.72078  0.72352  1.0000
  H   H58       1.0  0.40942  0.76409  0.88575  1.0000
  H   H59       1.0  0.33712  0.87723  0.74486  1.0000
  C   C73       1.0  0.33025  0.95074  0.84754  1.0000
  H   H60       1.0  0.18344  0.85405  0.67797  1.0000
  H   H61       1.0  0.04547  0.69489  0.78794  1.0000
  C   C74       1.0  0.17369  0.01194  0.81427  1.0000
  C   C75       1.0  0.11166  0.78482  0.85797  1.0000
  P   P3        1.0  0.99154  0.72328  0.85099  1.0000
  C   C76       1.0  0.29358  0.84378  0.74497  1.0000
  C   C77       1.0  0.28956  0.76840  0.72349  1.0000
  C   C78       1.0  0.30336  0.89731  0.82480  1.0000
  H   H62       1.0  0.11729  0.77763  0.83351  1.0000
  H   H63       1.0  0.08521  0.57260  0.87780  1.0000
  C   C79       1.0  0.01792  0.59541  0.84119  1.0000
  H   H64       1.0  0.20596  0.82803  0.86315  1.0000
  H   H65       1.0  0.06459  0.62343  0.71294  1.0000
  C   C80       1.0  0.08615  0.67065  0.66848  1.0000
  H   H66       1.0  0.14383  0.70877  0.74577  1.0000
  C   C81       1.0  0.97712  0.92051  0.76894  1.0000
  C   C82       1.0  0.05056  0.76974  0.90464  1.0000
  H   H67       1.0  0.95532  0.59014  0.80327  1.0000
  C   C83       1.0  0.18882  0.82292  0.76689  1.0000
  H   H68       1.0  0.38887  0.94475  0.88684  1.0000
  C   C84       1.0  0.29112  0.05742  0.78237  1.0000
  H   H69       1.0  0.23265  0.66123  0.70722  1.0000
  H   H70       1.0  0.03750  0.80205  0.74455  1.0000
  C   C85       1.0  0.01222  0.82668  0.76587  1.0000
  H   H71       1.0  0.13764  0.64380  0.66914  1.0000
  C   C86       1.0  0.36725  0.90264  0.86978  1.0000
  H   H72       1.0  0.22264  0.62035  0.89402  1.0000
  H   H73       1.0  0.38721  0.97257  0.77804  1.0000
  P   P4        1.0  0.25236  0.96004  0.79723  1.0000
  C   C87       1.0  0.05484  0.76480  0.87284  1.0000
  C   C88       1.0  0.37928  0.80092  0.86899  1.0000
  C   C89       1.0  0.18488  0.74801  0.74521  1.0000
  C   C90       1.0  0.01599  0.76584  0.79046  1.0000
  C   C91       1.0  0.24282  0.87281  0.76668  1.0000
  C   C92       1.0  0.35774  0.04149  0.77421  1.0000
  C   C93       1.0  0.16228  0.81289  0.87466  1.0000
  H   H74       1.0  0.29646  0.75118  0.80674  1.0000
  C   C94       1.0  0.35377  0.74703  0.84609  1.0000
  C   C95       1.0  0.04495  0.65945  0.69323  1.0000
  H   H75       1.0  0.32942  0.74546  0.70728  1.0000
  H   H76       1.0  0.34005  0.98732  0.70396  1.0000
  C   C96       1.0  0.15642  0.82206  0.90622  1.0000
  H   H77       1.0  0.40203  0.83134  0.67377  1.0000
  C   C97       1.0  0.97818  0.69191  0.69225  1.0000
  C   C98       1.0  0.12140  0.04059  0.79566  1.0000
  H   H78       1.0  0.32285  0.02968  0.84798  1.0000
  H   H79       1.0  0.20378  0.00960  0.86092  1.0000
  C   C99       1.0  0.16439  0.02764  0.84586  1.0000
  C   C100      1.0  0.32648  0.02254  0.68329  1.0000
  H   H80       1.0  0.97521  0.96862  0.75014  1.0000
  C   C101      1.0  0.44643  0.68398  0.66398  1.0000
  H   H81       1.0  0.34139  0.59426  0.90025  1.0000
  H   H82       1.0  0.14819  0.59480  0.93602  1.0000
  C   C102      1.0  0.23515  0.71362  0.06261  1.0000
  H   H83       1.0  0.23976  0.91102  0.02976  1.0000
  H   H84       1.0  0.42083  0.99727  0.05418  1.0000
  C   C103      1.0  0.10574  0.97145  0.03625  1.0000
  C   C104      1.0  0.41261  0.96372  0.00617  1.0000
  C   C105      1.0  0.30902  0.58435  0.91915  1.0000
  S   S2        1.0  0.96161  0.96263  0.94815  1.0000
  C   C106      1.0  0.36979  0.93877  0.98411  1.0000
  H   H85       1.0  0.39096  0.60886  0.07262  1.0000
  C   C107      1.0  0.05882  0.93895  0.08509  1.0000
  H   H86       1.0  0.44343  0.01811  0.11273  1.0000
  H   H87       1.0  0.00204  0.80503  0.02838  1.0000
  C   C108      1.0  0.95867  0.84492  0.14349  1.0000
  C   C109      1.0  0.17520  0.61160  0.03138  1.0000
  C   C110      1.0  0.03093  0.85425  0.03928  1.0000
  H   H88       1.0  0.12139  0.04837  0.07783  1.0000
  C   C111      1.0  0.44065  0.58142  0.06522  1.0000
  H   H89       1.0  0.19508  0.84606  0.91910  1.0000
  C   C112      1.0  0.13051  0.67919  0.08060  1.0000
  C   C113      1.0  0.10080  0.79985  0.92120  1.0000
  H   H90       1.0  0.07711  0.70694  0.99228  1.0000
  C   C114      1.0  0.02305  0.86344  0.14330  1.0000
  C   C115      1.0  0.02380  0.87257  0.07055  1.0000
  P   P5        1.0  0.04463  0.96852  0.12507  1.0000
  C   C116      1.0  0.12471  0.62513  0.05371  1.0000
  H   H91       1.0  0.07697  0.88989  0.99780  1.0000
  H   H92       1.0  0.31216  0.96329  0.06881  1.0000
  H   H93       1.0  0.09651  0.80698  0.94568  1.0000
  H   H94       1.0  0.19032  0.76307  0.10629  1.0000
  H   H95       1.0  0.96461  0.73556  0.97424  1.0000
  H   H96       1.0  0.25947  0.00889  0.92720  1.0000
  H   H97       1.0  0.28121  0.97011  0.13608  1.0000
  C   C117      1.0  0.30797  0.91886  0.99268  1.0000
  C   C118      1.0  0.07060  0.79820  0.15680  1.0000
  C   C119      1.0  0.24193  0.59979  0.91570  1.0000
  H   H98       1.0  0.98986  0.83582  0.08305  1.0000
  C   C120      1.0  0.19980  0.58440  0.93968  1.0000
  C   C121      1.0  0.18590  0.72259  0.08520  1.0000
  H   H99       1.0  0.26873  0.65277  0.01880  1.0000
  C   C122      1.0  0.05407  0.64575  0.98490  1.0000
  S   S3        1.0  0.13377  0.01791  0.95764  1.0000
  H   H100      1.0  0.39019  0.68874  0.14275  1.0000
  C   C123      1.0  0.22989  0.65848  0.03577  1.0000
  H   H101      1.0  0.08087  0.59295  0.05067  1.0000
  H   H102      1.0  0.18608  0.93656  0.10822  1.0000
  H   H103      1.0  0.27763  0.74877  0.06598  1.0000
  H   H104      1.0  0.09173  0.68702  0.09789  1.0000
  C   C124      1.0  0.17859  0.96988  0.13077  1.0000
  H   H105      1.0  0.27464  0.90147  0.97555  1.0000
  C   C125      1.0  0.07279  0.90225  0.02217  1.0000
  H   H106      1.0  0.00859  0.75059  0.91669  1.0000
  C   C126      1.0  0.40096  0.61812  0.15225  1.0000
  C   C127      1.0  0.28791  0.92521  0.02324  1.0000
  H   H107      1.0  0.38313  0.93750  0.96018  1.0000
  C   C128      1.0  0.32910  0.95312  0.04525  1.0000
  C   C129      1.0  0.39108  0.97244  0.03678  1.0000
  C   C130      1.0  0.45197  0.95707  0.12724  1.0000
  C   C131      1.0  0.96171  0.58361  0.96362  1.0000
  C   C132      1.0  0.23308  0.98669  0.14678  1.0000
  C   C133      1.0  0.99101  0.66212  0.97419  1.0000
  H   H108      1.0  0.13472  0.01336  0.02268  1.0000
  C   C134      1.0  0.11570  0.99713  0.14386  1.0000
  C   C135      1.0  0.09818  0.99082  0.06753  1.0000
  H   H109      1.0  0.12090  0.80940  0.15663  1.0000
  C   C136      1.0  0.43508  0.96959  0.15821  1.0000
  C   C137      1.0  0.06760  0.43374  0.32593  1.0000
  C   C138      1.0  0.07852  0.14805  0.40387  1.0000
  C   C139      1.0  0.12228  0.20917  0.39430  1.0000
  H   H110      1.0  0.26415  0.07310  0.33302  1.0000
  S   S4        1.0  0.34752  0.52411  0.38952  1.0000
  S   S5        1.0  0.20627  0.16748  0.39227  1.0000
  C   C140      1.0  0.00608  0.49002  0.32640  1.0000
  C   C141      1.0  0.02610  0.30216  0.29934  1.0000
  C   C142      1.0  0.26524  0.55823  0.29994  1.0000
  H   H111      1.0  0.18551  0.33111  0.25565  1.0000
  C   C143      1.0  0.96444  0.35791  0.29978  1.0000
  Fe  Fe1       1.0  0.08338  0.29691  0.18893  1.0000
  H   H112      1.0  0.13220  0.35201  0.37981  1.0000
  C   C144      1.0  0.03285  0.34155  0.39209  1.0000
  H   H113      1.0  0.15686  0.08503  0.21243  1.0000
  C   C145      1.0  0.28094  0.53615  0.26913  1.0000
  H   H114      1.0  0.12498  0.29580  0.31327  1.0000
  C   C146      1.0  0.32951  0.18546  0.26384  1.0000
  Fe  Fe2       1.0  0.18293  0.43390  0.18391  1.0000
  S   S6        1.0  0.28603  0.36117  0.34690  1.0000
  H   H115      1.0  0.01710  0.08427  0.34985  1.0000
  H   H116      1.0  0.38125  0.18824  0.26264  1.0000
  H   H117      1.0  0.42719  0.36720  0.18874  1.0000
  H   H118      1.0  0.03385  0.22990  0.28856  1.0000
  Fe  Fe3       1.0  0.38142  0.37665  0.36748  1.0000
  C   C147      1.0  0.98937  0.28212  0.40272  1.0000
  C   C148      1.0  0.07754  0.33964  0.31273  1.0000
  C   C149      1.0  0.09913  0.30539  0.38804  1.0000
  S   S7        1.0  0.36233  0.29211  0.40795  1.0000
  H   H119      1.0  0.09622  0.07324  0.40856  1.0000
  H   H120      1.0  0.14401  0.17835  0.26554  1.0000
  Fe  Fe4       1.0  0.26226  0.29399  0.39027  1.0000
  H   H121      1.0  0.01523  0.41632  0.38738  1.0000
  H   H122      1.0  0.33133  0.51682  0.26154  1.0000
  H   H123      1.0  0.30408  0.33557  0.25313  1.0000
  H   H124      1.0  0.42364  0.18872  0.33706  1.0000
  C   C150      1.0  0.42099  0.43661  0.17811  1.0000
  C   C151      1.0  0.23921  0.09507  0.27152  1.0000
  Fe  Fe5       1.0  0.25014  0.50215  0.37274  1.0000
  C   C152      1.0  0.28600  0.26886  0.25847  1.0000
  C   C153      1.0  0.23173  0.53619  0.24830  1.0000
  S   S8        1.0  0.02520  0.22380  0.22224  1.0000
  C   C154      1.0  0.19589  0.17913  0.26566  1.0000
  S   S9        1.0  0.07456  0.45932  0.19002  1.0000
  C   C155      1.0  0.01205  0.18488  0.40845  1.0000
  C   C156      1.0  0.30632  0.09928  0.27089  1.0000
  S   S10       1.0  0.25325  0.50990  0.20979  1.0000
  C   C157      1.0  0.21922  0.26607  0.25979  1.0000
  S   S11       1.0  0.19255  0.27265  0.18669  1.0000
  H   H125      1.0  0.10751  0.46208  0.33648  1.0000
  H   H126      1.0  0.30359  0.55526  0.31601  1.0000
  C   C158      1.0  0.16659  0.56057  0.25829  1.0000
  H   H127      1.0  0.99988  0.56220  0.33717  1.0000
  H   H128      1.0  0.12827  0.56086  0.24235  1.0000
  C   C159      1.0  0.45161  0.40547  0.65960  1.0000
  C   C160      1.0  0.14051  0.13410  0.55340  1.0000
  S   S12       1.0  0.41479  0.06840  0.60406  1.0000
  H   H129      1.0  0.09313  0.11372  0.55798  1.0000
  H   H130      1.0  0.41318  0.10771  0.53547  1.0000
  H   H131      1.0  0.20993  0.33771  0.54340  1.0000
  H   H132      1.0  0.42057  0.24441  0.57202  1.0000
  H   H133      1.0  0.16055  0.39692  0.47284  1.0000
  H   H134      1.0  0.07357  0.48182  0.57150  1.0000
  S   S13       1.0  0.22099  0.43438  0.41514  1.0000
  C   C161      1.0  0.25631  0.09252  0.54282  1.0000
  C   C162      1.0  0.06838  0.40014  0.49703  1.0000
  C   C163      1.0  0.97871  0.17146  0.58952  1.0000
  C   C164      1.0  0.14567  0.23283  0.55172  1.0000
  S   S14       1.0  0.34870  0.47844  0.47629  1.0000
  H   H135      1.0  0.04396  0.20624  0.62367  1.0000
  H   H136      1.0  0.27257  0.21400  0.46334  1.0000
  C   C165      1.0  0.18565  0.55995  0.52416  1.0000
  H   H137      1.0  0.36849  0.48117  0.63744  1.0000
  C   C166      1.0  0.45251  0.14996  0.53280  1.0000
  C   C167      1.0  0.12555  0.53531  0.53399  1.0000
  H   H138      1.0  0.97847  0.13813  0.41620  1.0000
  H   H139      1.0  0.97921  0.37550  0.51987  1.0000
  H   H140      1.0  0.04706  0.48320  0.44254  1.0000
  C   C168      1.0  0.20588  0.26142  0.54514  1.0000
  H   H141      1.0  0.16136  0.48661  0.60713  1.0000
  C   C169      1.0  0.02550  0.24666  0.49577  1.0000
  H   H142      1.0  0.26662  0.53516  0.58988  1.0000
  S   S15       1.0  0.02733  0.41557  0.62956  1.0000
  C   C170      1.0  0.99257  0.33565  0.60561  1.0000
  H   H143      1.0  0.10274  0.28702  0.55552  1.0000
  C   C171      1.0  0.30054  0.14238  0.46475  1.0000
  C   C172      1.0  0.12673  0.25861  0.46911  1.0000
  C   C173      1.0  0.35598  0.06977  0.63319  1.0000
  H   H144      1.0  0.27894  0.15153  0.60930  1.0000
  H   H145      1.0  0.29322  0.37034  0.65352  1.0000
  H   H146      1.0  0.16616  0.22691  0.45383  1.0000
  C   C174      1.0  0.24584  0.11652  0.65373  1.0000
  H   H147      1.0  0.08099  0.12960  0.46868  1.0000
  C   C175      1.0  0.29222  0.11571  0.62994  1.0000
  H   H148      1.0  0.38591  0.20097  0.47689  1.0000
  C   C176      1.0  0.36564  0.13467  0.47216  1.0000
  C   C177      1.0  0.12255  0.35568  0.47937  1.0000
  Fe  Fe6       1.0  0.32310  0.43886  0.42899  1.0000
  C   C178      1.0  0.26109  0.19143  0.54074  1.0000
  C   C179      1.0  0.16812  0.50889  0.58413  1.0000
  H   H149      1.0  0.22230  0.06463  0.45226  1.0000
  C   C180      1.0  0.11797  0.50702  0.56388  1.0000
  H   H150      1.0  0.30775  0.21419  0.53586  1.0000
  P   P6        1.0  0.06125  0.52799  0.50778  1.0000
  C   C181      1.0  0.43328  0.46336  0.48117  1.0000
  C   C182      1.0  0.38657  0.42069  0.65086  1.0000
  C   C183      1.0  0.22718  0.53600  0.57441  1.0000
  H   H151      1.0  0.19665  0.15260  0.65137  1.0000
  C   C184      1.0  0.07837  0.20403  0.47729  1.0000
  C   C185      1.0  0.02055  0.34430  0.50568  1.0000
  C   C186      1.0  0.00802  0.23512  0.60809  1.0000
  H   H152      1.0  0.42188  0.52811  0.52648  1.0000
  H   H153      1.0  0.98772  0.20458  0.50200  1.0000
  H   H154      1.0  0.99120  0.09354  0.59126  1.0000
  C   C187      1.0  0.34339  0.35846  0.66008  1.0000
  C   C188      1.0  0.06150  0.55469  0.44533  1.0000
  C   C189      1.0  0.23609  0.56069  0.54437  1.0000
  H   H155      1.0  0.44097  0.55818  0.59639  1.0000
  C   C190      1.0  0.99096  0.54928  0.81686  1.0000
  Fe  Fe7       1.0  0.36868  0.29892  0.87873  1.0000
  S   S16       1.0  0.14781  0.34328  0.69268  1.0000
  H   H156      1.0  0.00394  0.12430  0.84979  1.0000
  H   H157      1.0  0.20398  0.16511  0.78436  1.0000
  S   S17       1.0  0.99416  0.41819  0.71585  1.0000
  S   S18       1.0  0.42684  0.42515  0.77953  1.0000
  S   S19       1.0  0.08618  0.25702  0.75368  1.0000
  C   C191      1.0  0.20865  0.50168  0.76806  1.0000
  S   S20       1.0  0.37723  0.22957  0.83204  1.0000
  Fe  Fe8       1.0  0.04858  0.34783  0.67406  1.0000
  C   C192      1.0  0.25495  0.14916  0.77805  1.0000
  H   H158      1.0  0.99119  0.41576  0.79020  1.0000
  H   H159      1.0  0.33082  0.23447  0.68602  1.0000
  C   C193      1.0  0.26292  0.06843  0.68020  1.0000
  H   H160      1.0  0.37289  0.26191  0.74647  1.0000
  C   C194      1.0  0.42923  0.26460  0.68658  1.0000
  C   C195      1.0  0.38673  0.11439  0.76068  1.0000
  C   C196      1.0  0.25110  0.48498  0.74254  1.0000
  H   H161      1.0  0.07633  0.32122  0.81975  1.0000
  C   C197      1.0  0.01127  0.45042  0.80940  1.0000
  H   H162      1.0  0.02136  0.10695  0.79384  1.0000
  Fe  Fe9       1.0  0.99259  0.26501  0.72991  1.0000
  C   C198      1.0  0.34330  0.46034  0.77517  1.0000
  C   C199      1.0  0.05919  0.39710  0.82602  1.0000
  S   S21       1.0  0.03734  0.19565  0.68621  1.0000
  Fe  Fe10      1.0  0.09304  0.40286  0.73535  1.0000
  H   H163      1.0  0.31951  0.47128  0.82313  1.0000
  H   H164      1.0  0.12245  0.40023  0.86360  1.0000
  H   H165      1.0  0.96346  0.30641  0.85231  1.0000
  C   C200      1.0  0.28428  0.22213  0.76493  1.0000
  C   C201      1.0  0.08518  0.44169  0.85075  1.0000
  C   C202      1.0  0.36457  0.28129  0.67826  1.0000
  H   H166      1.0  0.20083  0.51185  0.81683  1.0000
  C   C203      1.0  0.06420  0.54012  0.85853  1.0000
  S   S22       1.0  0.20550  0.06546  0.70963  1.0000
  Fe  Fe11      1.0  0.43997  0.34309  0.82198  1.0000
  C   C204      1.0  0.31852  0.46667  0.74610  1.0000
  C   C205      1.0  0.05139  0.09414  0.83991  1.0000
  C   C206      1.0  0.23357  0.49960  0.79709  1.0000
  H   H167      1.0  0.23202  0.48609  0.72008  1.0000
  S   S23       1.0  0.42458  0.41920  0.86778  1.0000
  C   C207      1.0  0.06090  0.08280  0.80844  1.0000
  S   S24       1.0  0.12435  0.52325  0.76389  1.0000
  C   C208      1.0  0.30075  0.47684  0.80065  1.0000
  H   H168      1.0  0.31475  0.13809  0.90498  1.0000
  H   H169      1.0  0.09630  0.07724  0.88304  1.0000
  H   H170      1.0  0.25581  0.29217  0.76155  1.0000
  C   C209      1.0  0.35007  0.20472  0.75617  1.0000
  H   H171      1.0  0.43772  0.10148  0.75387  1.0000
  H   H172      1.0  0.35130  0.45320  0.72639  1.0000
  H   H173      1.0  0.44531  0.20475  0.70074  1.0000
  Fe  Fe12      1.0  0.13124  0.19805  0.70902  1.0000
  S   S25       1.0  0.27309  0.34667  0.90313  1.0000
  S   S26       1.0  0.45406  0.20163  0.89556  1.0000
  C   C210      1.0  0.10326  0.06712  0.85860  1.0000
  H   H174      1.0  0.09444  0.22304  0.95340  1.0000
  H   H175      1.0  0.14108  0.26023  0.06418  1.0000
  C   C211      1.0  0.20922  0.21256  0.02701  1.0000
  H   H176      1.0  0.14747  0.34989  0.92950  1.0000
  C   C212      1.0  0.37498  0.45484  0.15593  1.0000
  C   C213      1.0  0.23517  0.08331  0.92783  1.0000
  H   H177      1.0  0.08196  0.39804  0.97611  1.0000
  H   H178      1.0  0.45009  0.23926  0.05911  1.0000
  C   C214      1.0  0.05754  0.47219  0.97545  1.0000
  C   C215      1.0  0.99523  0.48888  0.96401  1.0000
  H   H179      1.0  0.27320  0.18591  0.98745  1.0000
  H   H180      1.0  0.43917  0.44020  0.08361  1.0000
  C   C216      1.0  0.35517  0.19689  0.13299  1.0000
  H   H181      1.0  0.31257  0.50578  0.99096  1.0000
  C   C217      1.0  0.45116  0.33065  0.98112  1.0000
  H   H182      1.0  0.44455  0.20981  0.15545  1.0000
  S   S27       1.0  0.97304  0.10343  0.00881  1.0000
  C   C218      1.0  0.42067  0.21052  0.13405  1.0000
  S   S28       1.0  0.07440  0.27829  0.13871  1.0000
  Fe  Fe13      1.0  0.18283  0.26945  0.13648  1.0000
  H   H183      1.0  0.38728  0.12460  0.96501  1.0000
  H   H184      1.0  0.32734  0.56005  0.12671  1.0000
  H   H185      1.0  0.33651  0.20690  0.05690  1.0000
  C   C219      1.0  0.32537  0.19326  0.10508  1.0000
  C   C220      1.0  0.16611  0.28165  0.04425  1.0000
  C   C221      1.0  0.18772  0.40722  0.01023  1.0000
  C   C222      1.0  0.23050  0.33689  0.99288  1.0000
  H   H186      1.0  0.44369  0.40733  0.97673  1.0000
  C   C223      1.0  0.98052  0.49508  0.07910  1.0000
  C   C224      1.0  0.26622  0.15599  0.91509  1.0000
  C   C225      1.0  0.41962  0.17051  0.97484  1.0000
  C   C226      1.0  0.99229  0.39543  0.07115  1.0000
  C   C227      1.0  0.24128  0.24010  0.00130  1.0000
  C   C228      1.0  0.15531  0.37840  0.03594  1.0000
  C   C229      1.0  0.23436  0.25214  0.91586  1.0000
  H   H187      1.0  0.02314  0.34642  0.08460  1.0000
  C   C230      1.0  0.35977  0.20812  0.07845  1.0000
  H   H188      1.0  0.12078  0.42956  0.04944  1.0000
  H   H189      1.0  0.97219  0.42780  0.95629  1.0000
  C   C231      1.0  0.17263  0.10737  0.94131  1.0000
  C   C232      1.0  0.17165  0.27536  0.92880  1.0000
  C   C233      1.0  0.42401  0.22620  0.07970  1.0000
  Fe  Fe14      1.0  0.07523  0.43920  0.13928  1.0000
  H   H190      1.0  0.25399  0.35547  0.97225  1.0000
  C   C234      1.0  0.14124  0.20337  0.94190  1.0000
  C   C235      1.0  0.08731  0.55064  0.98610  1.0000
  Fe  Fe15      1.0  0.02582  0.06888  0.96358  1.0000
  H   H191      1.0  0.32827  0.18645  0.15365  1.0000
  H   H192      1.0  0.36818  0.29995  0.95651  1.0000
  H   H193      1.0  0.99325  0.12535  0.08524  1.0000
  C   C236      1.0  0.40856  0.27023  0.96993  1.0000
  S   S29       1.0  0.24576  0.16810  0.10317  1.0000
  H   H194      1.0  0.21768  0.13778  0.03364  1.0000
  S   S30       1.0  0.18316  0.42957  0.13316  1.0000
  S   S31       1.0  0.97003  0.19347  0.94008  1.0000
  P   P7        1.0  0.16995  0.53124  0.99839  1.0000
  H   H195      1.0  0.34535  0.39991  0.14956  1.0000
  S   S32       1.0  0.01141  0.54330  0.11189  1.0000
  C   C237      1.0  0.36479  0.54556  0.14309  1.0000
  H   H196      1.0  0.38640  0.53641  0.94849  1.0000
  H   H197      1.0  0.97078  0.28161  0.04036  1.0000
  C   C238      1.0  0.29229  0.53468  0.97035  1.0000
  C   C239      1.0  0.96276  0.35867  0.04592  1.0000
  C   C240      1.0  0.96330  0.13163  0.10585  1.0000
  C   C241      1.0  0.22453  0.55274  0.96741  1.0000
  C   C242      1.0  0.97788  0.06824  0.12950  1.0000
  C   C243      1.0  0.33426  0.55152  0.94641  1.0000
  C   C244      1.0  0.45518  0.22418  0.10730  1.0000
  P   P8        1.0  0.61655  0.73931  0.34277  1.0000
  C   C245      1.0  0.65224  0.66194  0.37171  1.0000
  C   C246      1.0  0.65784  0.70137  0.40120  1.0000
  C   C247      1.0  0.84225  0.57491  0.37684  1.0000
  S   S33       1.0  0.53449  0.02582  0.24540  1.0000
  C   C248      1.0  0.63713  0.64576  0.28516  1.0000
  C   C249      1.0  0.81032  0.72905  0.25545  1.0000
  H   H198      1.0  0.64520  0.77894  0.40635  1.0000
  C   C250      1.0  0.86570  0.60342  0.34898  1.0000
  C   C251      1.0  0.72080  0.84535  0.34807  1.0000
  H   H199      1.0  0.90205  0.82564  0.37287  1.0000
  C   C252      1.0  0.88797  0.69405  0.34784  1.0000
  H   H200      1.0  0.94715  0.03216  0.17446  1.0000
  H   H201      1.0  0.68126  0.98550  0.27513  1.0000
  P   P9        1.0  0.49119  0.69602  0.18838  1.0000
  C   C253      1.0  0.71485  0.62019  0.17836  1.0000
  C   C254      1.0  0.50633  0.76746  0.38147  1.0000
  C   C255      1.0  0.75740  0.91726  0.33958  1.0000
  C   C256      1.0  0.49715  0.78875  0.24576  1.0000
  H   H202      1.0  0.65595  0.98097  0.39545  1.0000
  H   H203      1.0  0.59681  0.81294  0.19369  1.0000
  C   C257      1.0  0.87863  0.59765  0.22716  1.0000
  C   C258      1.0  0.54376  0.81004  0.36021  1.0000
  H   H204      1.0  0.71553  0.77254  0.18941  1.0000
  C   C259      1.0  0.86163  0.58879  0.28154  1.0000
  H   H205      1.0  0.79598  0.70972  0.30295  1.0000
  C   C260      1.0  0.47527  0.79928  0.16490  1.0000
  C   C261      1.0  0.47528  0.96578  0.37141  1.0000
  C   C262      1.0  0.46425  0.72820  0.22750  1.0000
  H   H206      1.0  0.61658  0.85962  0.28976  1.0000
  H   H207      1.0  0.83182  0.72778  0.20740  1.0000
  C   C263      1.0  0.66954  0.82345  0.33030  1.0000
  C   C264      1.0  0.68579  0.71538  0.18613  1.0000
  C   C265      1.0  0.83945  0.63682  0.40281  1.0000
  S   S34       1.0  0.60060  0.02546  0.16154  1.0000
  C   C266      1.0  0.60847  0.56983  0.17555  1.0000
  C   C267      1.0  0.83970  0.68877  0.22802  1.0000
  C   C268      1.0  0.65648  0.87359  0.30365  1.0000
  H   H208      1.0  0.79574  0.93543  0.35386  1.0000
  C   C269      1.0  0.61373  0.02794  0.40532  1.0000
  H   H209      1.0  0.90906  0.71612  0.32701  1.0000
  H   H210      1.0  0.76728  0.60243  0.17628  1.0000
  H   H211      1.0  0.49879  0.86700  0.28875  1.0000
  C   C270      1.0  0.74351  0.96743  0.31324  1.0000
  H   H212      1.0  0.53981  0.81575  0.23728  1.0000
  C   C271      1.0  0.85985  0.72783  0.40125  1.0000
  C   C272      1.0  0.57877  0.66440  0.18479  1.0000
  C   C273      1.0  0.88469  0.75604  0.37383  1.0000
  H   H213      1.0  0.77929  0.79897  0.25600  1.0000
  C   C274      1.0  0.61813  0.73772  0.18891  1.0000
  C   C275      1.0  0.82053  0.67875  0.28207  1.0000
  H   H214      1.0  0.68038  0.67971  0.28297  1.0000
  C   C276      1.0  0.59568  0.66407  0.31117  1.0000
  H   H215      1.0  0.73216  0.80876  0.36879  1.0000
  C   C277      1.0  0.47404  0.81808  0.27526  1.0000
  C   C278      1.0  0.52683  0.90953  0.35489  1.0000
  H   H216      1.0  0.51809  0.69093  0.38604  1.0000
  C   C279      1.0  0.54203  0.61386  0.31381  1.0000
  C   C280      1.0  0.69307  0.94548  0.29528  1.0000
  H   H217      1.0  0.55405  0.94555  0.33881  1.0000
  H   H218      1.0  0.51058  0.62304  0.33400  1.0000
  H   H219      1.0  0.77128  0.02412  0.30692  1.0000
  H   H220      1.0  0.46366  0.04299  0.36784  1.0000
  C   C281      1.0  0.62427  0.58037  0.26199  1.0000
  H   H221      1.0  0.65707  0.56515  0.24222  1.0000
  Fe  Fe16      1.0  0.70608  0.03799  0.16518  1.0000
  C   C282      1.0  0.58403  0.00306  0.43217  1.0000
  H   H222      1.0  0.60538  0.93824  0.44288  1.0000
  C   C283      1.0  0.56314  0.73022  0.51473  1.0000
  C   C284      1.0  0.55366  0.74129  0.48388  1.0000
  C   C285      1.0  0.72445  0.90389  0.47801  1.0000
  Fe  Fe17      1.0  0.64177  0.89420  0.60704  1.0000
  C   C286      1.0  0.54764  0.81012  0.53520  1.0000
  C   C287      1.0  0.67838  0.64053  0.42454  1.0000
  C   C288      1.0  0.82749  0.86524  0.61061  1.0000
  H   H223      1.0  0.56462  0.67836  0.46822  1.0000
  H   H224      1.0  0.77293  0.75931  0.46540  1.0000
  H   H225      1.0  0.66682  0.03514  0.49613  1.0000
  C   C289      1.0  0.85098  0.87067  0.64006  1.0000
  H   H226      1.0  0.58373  0.66016  0.52274  1.0000
  C   C290      1.0  0.74565  0.80582  0.48302  1.0000
  C   C291      1.0  0.53133  0.83334  0.47336  1.0000
  C   C292      1.0  0.81616  0.94855  0.59375  1.0000
  H   H227      1.0  0.65185  0.97390  0.54674  1.0000
  C   C293      1.0  0.77420  0.66603  0.63394  1.0000
  H   H228      1.0  0.93618  0.90682  0.50863  1.0000
  Fe  Fe18      1.0  0.51252  0.02064  0.62329  1.0000
  H   H229      1.0  0.68205  0.67092  0.44732  1.0000
  S   S35       1.0  0.68148  0.91961  0.65302  1.0000
  H   H230      1.0  0.51557  0.96312  0.54123  1.0000
  H   H231      1.0  0.56798  0.59439  0.60379  1.0000
  H   H232      1.0  0.82211  0.61346  0.42428  1.0000
  S   S36       1.0  0.69366  0.78569  0.57151  1.0000
  H   H233      1.0  0.52452  0.84060  0.44941  1.0000
  P   P10       1.0  0.48955  0.03484  0.48021  1.0000
  H   H234      1.0  0.55520  0.80128  0.55912  1.0000
  C   C294      1.0  0.83560  0.65810  0.64662  1.0000
  H   H235      1.0  0.90611  0.68123  0.58893  1.0000
  C   C295      1.0  0.85730  0.62062  0.55214  1.0000
  C   C296      1.0  0.73340  0.76885  0.51142  1.0000
  C   C297      1.0  0.67826  0.92664  0.52934  1.0000
  H   H236      1.0  0.79597  0.94460  0.57147  1.0000
  C   C298      1.0  0.51854  0.91526  0.49364  1.0000
  H   H237      1.0  0.74851  0.69307  0.51520  1.0000
  H   H238      1.0  0.80952  0.63662  0.56330  1.0000
  C   C299      1.0  0.91154  0.64640  0.56651  1.0000
  C   C300      1.0  0.68783  0.96221  0.50068  1.0000
  H   H239      1.0  0.81651  0.79808  0.60049  1.0000
  S   S37       1.0  0.54674  0.86138  0.62566  1.0000
  H   H240      1.0  0.70297  0.59195  0.61296  1.0000
  S   S38       1.0  0.74667  0.95625  0.44446  1.0000
  H   H241      1.0  0.74427  0.73593  0.63267  1.0000
  C   C301      1.0  0.85719  0.04230  0.63407  1.0000
  C   C302      1.0  0.74994  0.58344  0.62305  1.0000
  C   C303      1.0  0.86470  0.57399  0.52334  1.0000
  C   C304      1.0  0.70224  0.83034  0.53509  1.0000
  C   C305      1.0  0.52552  0.90230  0.52480  1.0000
  H   H242      1.0  0.85709  0.77603  0.42140  1.0000
  C   C306      1.0  0.86693  0.95988  0.65135  1.0000
  C   C307      1.0  0.83015  0.03730  0.60568  1.0000
  C   C308      1.0  0.45871  0.60653  0.64221  1.0000
  S   S39       1.0  0.60470  0.05193  0.60115  1.0000
  C   C309      1.0  0.87194  0.56494  0.64844  1.0000
  C   C310      1.0  0.52975  0.06396  0.44544  1.0000
  H   H243      1.0  0.88304  0.60796  0.85366  1.0000
  H   H244      1.0  0.46591  0.67794  0.68638  1.0000
  C   C311      1.0  0.95201  0.73511  0.66629  1.0000
  H   H245      1.0  0.92674  0.87915  0.89281  1.0000
  H   H246      1.0  0.64743  0.57106  0.75532  1.0000
  C   C312      1.0  0.81822  0.87720  0.74969  1.0000
  H   H247      1.0  0.59326  0.99843  0.89254  1.0000
  H   H248      1.0  0.83855  0.92194  0.76634  1.0000
  H   H249      1.0  0.57333  0.99482  0.73469  1.0000
  H   H250      1.0  0.68339  0.77112  0.73888  1.0000
  C   C313      1.0  0.51778  0.80188  0.76598  1.0000
  H   H251      1.0  0.48171  0.79933  0.81202  1.0000
  C   C314      1.0  0.55325  0.95231  0.75155  1.0000
  P   P11       1.0  0.86502  0.76478  0.66293  1.0000
  C   C315      1.0  0.53783  0.99238  0.78115  1.0000
  C   C316      1.0  0.94475  0.95312  0.79642  1.0000
  C   C317      1.0  0.76247  0.76809  0.70608  1.0000
  C   C318      1.0  0.94805  0.89259  0.82093  1.0000
  H   H252      1.0  0.86229  0.58746  0.71102  1.0000
  C   C319      1.0  0.85095  0.85147  0.72168  1.0000
  H   H253      1.0  0.58137  0.82787  0.87933  1.0000
  H   H254      1.0  0.89722  0.87577  0.71720  1.0000
  H   H255      1.0  0.77221  0.64518  0.87647  1.0000
  H   H256      1.0  0.61299  0.74682  0.82142  1.0000
  C   C320      1.0  0.78841  0.77893  0.89915  1.0000
  C   C321      1.0  0.56917  0.63898  0.84499  1.0000
  H   H257      1.0  0.91763  0.02625  0.79884  1.0000
  H   H258      1.0  0.88678  0.96667  0.67351  1.0000
  C   C322      1.0  0.51280  0.93665  0.80306  1.0000
  C   C323      1.0  0.80691  0.69430  0.88082  1.0000
  H   H259      1.0  0.50952  0.72839  0.76020  1.0000
  C   C324      1.0  0.83258  0.84369  0.90408  1.0000
  H   H260      1.0  0.92371  0.92150  0.84203  1.0000
  C   C325      1.0  0.75810  0.84791  0.75597  1.0000
  H   H261      1.0  0.73840  0.72830  0.68954  1.0000
  S   S40       1.0  0.49589  0.98158  0.84054  1.0000
  C   C326      1.0  0.85138  0.58837  0.75958  1.0000
  C   C327      1.0  0.91385  0.74055  0.87168  1.0000
  H   H262      1.0  0.70898  0.63332  0.80327  1.0000
  H   H263      1.0  0.94716  0.68078  0.71145  1.0000
  C   C328      1.0  0.86973  0.67419  0.86754  1.0000
  Fe  Fe19      1.0  0.58245  0.90125  0.67104  1.0000
  C   C329      1.0  0.67270  0.60608  0.81713  1.0000
  H   H264      1.0  0.83187  0.57264  0.80691  1.0000
  S   S41       1.0  0.56414  0.80195  0.70792  1.0000
  H   H265      1.0  0.52619  0.68923  0.85245  1.0000
  C   C330      1.0  0.73049  0.79286  0.73423  1.0000
  C   C331      1.0  0.50233  0.84184  0.79534  1.0000
  C   C332      1.0  0.61796  0.67129  0.82743  1.0000
  C   C333      1.0  0.56484  0.85931  0.90158  1.0000
  C   C334      1.0  0.89459  0.82526  0.89010  1.0000
  H   H266      1.0  0.73227  0.86930  0.77745  1.0000
  C   C335      1.0  0.57153  0.95588  0.90902  1.0000
  C   C336      1.0  0.82343  0.79639  0.69953  1.0000
  C   C337      1.0  0.54331  0.85676  0.74404  1.0000
  H   H267      1.0  0.87855  0.64830  0.76330  1.0000
  H   H268      1.0  0.73966  0.79554  0.90920  1.0000
  H   H269      1.0  0.75835  0.06278  0.81034  1.0000
  H   H270      1.0  0.66577  0.06157  0.77624  1.0000
  S   S42       1.0  0.54091  0.05909  0.67043  1.0000
  H   H271      1.0  0.69543  0.58267  0.70383  1.0000
  H   H272      1.0  0.59494  0.02540  0.09346  1.0000
  H   H273      1.0  0.71558  0.68392  0.11630  1.0000
  H   H274      1.0  0.79465  0.06125  0.10785  1.0000
  H   H275      1.0  0.51681  0.71765  0.12431  1.0000
  C   C338      1.0  0.48146  0.86627  0.11512  1.0000
  S   S43       1.0  0.86543  0.88055  0.01136  1.0000
  C   C339      1.0  0.49337  0.78768  0.13389  1.0000
  H   H276      1.0  0.70863  0.63777  0.92457  1.0000
  H   H277      1.0  0.89216  0.74823  0.15647  1.0000
  C   C340      1.0  0.80147  0.90581  0.11124  1.0000
  H   H278      1.0  0.49078  0.80412  0.96690  1.0000
  C   C341      1.0  0.51828  0.94510  0.95822  1.0000
  Fe  Fe20      1.0  0.90387  0.00664  0.99121  1.0000
  C   C342      1.0  0.60166  0.88587  0.01530  1.0000
  H   H279      1.0  0.68880  0.80029  0.03071  1.0000
  H   H280      1.0  0.92173  0.89313  0.13267  1.0000
  C   C343      1.0  0.72927  0.61602  0.10310  1.0000
  C   C344      1.0  0.51273  0.84734  0.95080  1.0000
  C   C345      1.0  0.84069  0.89368  0.04971  1.0000
  C   C346      1.0  0.53584  0.80475  0.92251  1.0000
  H   H281      1.0  0.78635  0.63516  0.96632  1.0000
  H   H282      1.0  0.45724  0.71454  0.04503  1.0000
  C   C347      1.0  0.47796  0.64068  0.04968  1.0000
  H   H283      1.0  0.49596  0.85723  0.09130  1.0000
  C   C348      1.0  0.69828  0.60556  0.94564  1.0000
  C   C349      1.0  0.68773  0.58709  0.08138  1.0000
  H   H284      1.0  0.93396  0.63541  0.06693  1.0000
  C   C350      1.0  0.59632  0.98536  0.07180  1.0000
  H   H285      1.0  0.57084  0.65199  0.02862  1.0000
  C   C351      1.0  0.54864  0.99867  0.93723  1.0000
  C   C352      1.0  0.55104  0.96362  0.02226  1.0000
  P   P12       1.0  0.48963  0.00021  0.99491  1.0000
  C   C353      1.0  0.83492  0.80945  0.06499  1.0000
  C   C354      1.0  0.81784  0.81537  0.09587  1.0000
  H   H286      1.0  0.60590  0.84687  0.99349  1.0000
  H   H287      1.0  0.81714  0.74969  0.10787  1.0000
  C   C355      1.0  0.74197  0.60372  0.96908  1.0000
  H   H288      1.0  0.88012  0.57073  0.02278  1.0000
  C   C356      1.0  0.80562  0.99108  0.09589  1.0000
  H   H289      1.0  0.84478  0.73920  0.05297  1.0000
  C   C357      1.0  0.82662  0.98493  0.06515  1.0000
  S   S44       1.0  0.77809  0.90829  0.14978  1.0000
  C   C358      1.0  0.54223  0.60478  0.04026  1.0000
  H   H290      1.0  0.81820  0.91019  0.91796  1.0000
  H   H291      1.0  0.68312  0.88783  0.08096  1.0000
  H   H292      1.0  0.91265  0.59586  0.95562  1.0000
  H   H293      1.0  0.64220  0.63337  0.07822  1.0000
  C   C359      1.0  0.54925  0.01317  0.05071  1.0000
  C   C360      1.0  0.64608  0.90807  0.06472  1.0000
  H   H294      1.0  0.82185  0.58102  0.12397  1.0000
  H   H295      1.0  0.70543  0.04927  0.02069  1.0000
  C   C361      1.0  0.64894  0.85856  0.03644  1.0000
  C   C362      1.0  0.94174  0.76303  0.15713  1.0000
  H   H296      1.0  0.83135  0.05040  0.05339  1.0000
  H   H297      1.0  0.53097  0.72974  0.91668  1.0000
  H   H298      1.0  0.69998  0.42225  0.38509  1.0000
  C   C363      1.0  0.49832  0.26551  0.31951  1.0000
  Fe  Fe21      1.0  0.67870  0.23790  0.19682  1.0000
  H   H299      1.0  0.85029  0.15726  0.17799  1.0000
  C   C364      1.0  0.83053  0.25428  0.23741  1.0000
  H   H300      1.0  0.91512  0.16823  0.25402  1.0000
  C   C365      1.0  0.52458  0.11211  0.27579  1.0000
  C   C366      1.0  0.54875  0.26446  0.29788  1.0000
  H   H301      1.0  0.67936  0.38187  0.28216  1.0000
  C   C367      1.0  0.59087  0.11502  0.39194  1.0000
  H   H302      1.0  0.92012  0.47743  0.25254  1.0000
  H   H303      1.0  0.61441  0.13490  0.37138  1.0000
  S   S45       1.0  0.57049  0.24398  0.19590  1.0000
  H   H304      1.0  0.83282  0.42623  0.18509  1.0000
  S   S46       1.0  0.72335  0.36355  0.21585  1.0000
  C   C368      1.0  0.77817  0.29422  0.33762  1.0000
  C   C369      1.0  0.71861  0.37701  0.29781  1.0000
  H   H305      1.0  0.86409  0.35090  0.35074  1.0000
  H   H306      1.0  0.59923  0.18991  0.25867  1.0000
  C   C370      1.0  0.91806  0.33836  0.20124  1.0000
  C   C371      1.0  0.80719  0.32777  0.21823  1.0000
  P   P13       1.0  0.87300  0.52157  0.31556  1.0000
  C   C372      1.0  0.76266  0.44390  0.29693  1.0000
  Fe  Fe22      1.0  0.59158  0.08826  0.20920  1.0000
  C   C373      1.0  0.68860  0.50031  0.38946  1.0000
  S   S47       1.0  0.90702  0.33178  0.40781  1.0000
  H   H307      1.0  0.78452  0.23649  0.35348  1.0000
  H   H308      1.0  0.52213  0.24713  0.39583  1.0000
  C   C374      1.0  0.81472  0.43681  0.31659  1.0000
  C   C375      1.0  0.56158  0.18824  0.27590  1.0000
  C   C376      1.0  0.89753  0.22358  0.23873  1.0000
  C   C377      1.0  0.94148  0.26498  0.22057  1.0000
  C   C378      1.0  0.82272  0.36020  0.33644  1.0000
  C   C379      1.0  0.85090  0.37038  0.20029  1.0000
  H   H309      1.0  0.49101  0.49449  0.20529  1.0000
  H   H310      1.0  0.69134  0.25165  0.31908  1.0000
  C   C380      1.0  0.46275  0.18763  0.32028  1.0000
  H   H311      1.0  0.82724  0.50429  0.37894  1.0000
  H   H312      1.0  0.95153  0.36971  0.18680  1.0000
  C   C381      1.0  0.72587  0.30286  0.31836  1.0000
  H   H313      1.0  0.66345  0.52777  0.34376  1.0000
  H   H314      1.0  0.79684  0.22149  0.25137  1.0000
  H   H315      1.0  0.56260  0.47729  0.24745  1.0000
  C   C382      1.0  0.95366  0.45190  0.31367  1.0000
  H   H316      1.0  0.57618  0.32468  0.29739  1.0000
  S   S48       1.0  0.69832  0.08770  0.21416  1.0000
  H   H317      1.0  0.92523  0.32737  0.28938  1.0000
  H   H318      1.0  0.58029  0.51228  0.17050  1.0000
  H   H319      1.0  0.75650  0.49924  0.28038  1.0000
  S   S49       1.0  0.47952  0.36681  0.34454  1.0000
  C   C383      1.0  0.45723  0.50892  0.18735  1.0000
  C   C384      1.0  0.47684  0.10962  0.29868  1.0000
  C   C385      1.0  0.57083  0.53095  0.26485  1.0000
  C   C386      1.0  0.53870  0.17800  0.40563  1.0000
  C   C387      1.0  0.89002  0.54815  0.25380  1.0000
  H   H320      1.0  0.48901  0.50770  0.29329  1.0000
  H   H321      1.0  0.93736  0.06680  0.31023  1.0000
  C   C388      1.0  0.52964  0.54788  0.29070  1.0000
  C   C389      1.0  0.67615  0.54837  0.17216  1.0000
  H   H322      1.0  0.69877  0.47546  0.16481  1.0000
  C   C390      1.0  0.66819  0.56081  0.36601  1.0000
  H   H323      1.0  0.89951  0.56424  0.20583  1.0000
  C   C391      1.0  0.55115  0.18058  0.50685  1.0000
  S   S50       1.0  0.83050  0.34075  0.48707  1.0000
  H   H324      1.0  0.76664  0.42677  0.61719  1.0000
  H   H325      1.0  0.87467  0.41047  0.64023  1.0000
  Fe  Fe23      1.0  0.84570  0.19180  0.50545  1.0000
  C   C392      1.0  0.49887  0.12776  0.50880  1.0000
  C   C393      1.0  0.56288  0.45029  0.62016  1.0000
  C   C394      1.0  0.63257  0.48494  0.57792  1.0000
  C   C395      1.0  0.84669  0.48204  0.63826  1.0000
  H   H326      1.0  0.93116  0.51489  0.48686  1.0000
  H   H327      1.0  0.86983  0.11072  0.64277  1.0000
  C   C396      1.0  0.94813  0.37248  0.58433  1.0000
  H   H328      1.0  0.57994  0.38100  0.44485  1.0000
  H   H329      1.0  0.47021  0.20473  0.44308  1.0000
  S   S51       1.0  0.74347  0.24843  0.43415  1.0000
  Fe  Fe24      1.0  0.63715  0.07489  0.64858  1.0000
  H   H330      1.0  0.51150  0.33979  0.56735  1.0000
  S   S52       1.0  0.68828  0.20386  0.65779  1.0000
  H   H331      1.0  0.69603  0.36197  0.55707  1.0000
  Fe  Fe25      1.0  0.84806  0.26277  0.44158  1.0000
  H   H332      1.0  0.79785  0.30176  0.66058  1.0000
  C   C397      1.0  0.47808  0.42164  0.45813  1.0000
  Fe  Fe26      1.0  0.76674  0.10743  0.45784  1.0000
  H   H333      1.0  0.63577  0.54584  0.65893  1.0000
  H   H334      1.0  0.93560  0.45017  0.58259  1.0000
  S   S53       1.0  0.65134  0.44743  0.49601  1.0000
  C   C398      1.0  0.54548  0.41277  0.46266  1.0000
  C   C399      1.0  0.91824  0.30877  0.56593  1.0000
  S   S54       1.0  0.90434  0.12678  0.54317  1.0000
  S   S55       1.0  0.74070  0.17662  0.50441  1.0000
  C   C400      1.0  0.50854  0.27969  0.55138  1.0000
  H   H335      1.0  0.57316  0.29858  0.63108  1.0000
  C   C401      1.0  0.45676  0.22693  0.55368  1.0000
  C   C402      1.0  0.50864  0.15292  0.43229  1.0000
  C   C403      1.0  0.65890  0.38659  0.57461  1.0000
  C   C404      1.0  0.58899  0.35148  0.61637  1.0000
  C   C405      1.0  0.93476  0.20826  0.56808  1.0000
  S   S56       1.0  0.87295  0.11594  0.46030  1.0000
  H   H336      1.0  0.65823  0.24375  0.59151  1.0000
  C   C406      1.0  0.56790  0.44843  0.48989  1.0000
  C   C407      1.0  0.55657  0.25473  0.52848  1.0000
  H   H337      1.0  0.59759  0.29405  0.52713  1.0000
  H   H338      1.0  0.53952  0.51688  0.53389  1.0000
  C   C408      1.0  0.52282  0.49038  0.51267  1.0000
  H   H339      1.0  0.82019  0.10232  0.59291  1.0000
  H   H340      1.0  0.91945  0.55510  0.65809  1.0000
  Fe  Fe27      1.0  0.72674  0.31816  0.48113  1.0000
  C   C409      1.0  0.78586  0.49115  0.62535  1.0000
  C   C410      1.0  0.63723  0.32000  0.59384  1.0000
  H   H341      1.0  0.58753  0.16568  0.48857  1.0000
  H   H342      1.0  0.88322  0.33741  0.54980  1.0000
  P   P14       1.0  0.50570  0.49245  0.65127  1.0000
  H   H343      1.0  0.70886  0.49293  0.43692  1.0000
  C   C411      1.0  0.58540  0.51709  0.60083  1.0000
  C   C412      1.0  0.69350  0.54005  0.41871  1.0000
  H   H344      1.0  0.46102  0.39703  0.43673  1.0000
  C   C413      1.0  0.92626  0.55218  0.50907  1.0000
  H   H345      1.0  0.82281  0.55306  0.51225  1.0000
  H   H346      1.0  0.64962  0.53652  0.56294  1.0000
  C   C414      1.0  0.45600  0.49645  0.50853  1.0000
  H   H347      1.0  0.52276  0.31195  0.68410  1.0000
  C   C415      1.0  0.77996  0.43530  0.74957  1.0000
  H   H348      1.0  0.88760  0.29729  0.69620  1.0000
  C   C416      1.0  0.85174  0.19266  0.72433  1.0000
  C   C417      1.0  0.73342  0.13046  0.80241  1.0000
  C   C418      1.0  0.78815  0.46945  0.77935  1.0000
  H   H349      1.0  0.60841  0.21705  0.75848  1.0000
  C   C419      1.0  0.47287  0.32563  0.67708  1.0000
  C   C420      1.0  0.80672  0.47823  0.72510  1.0000
  C   C421      1.0  0.75424  0.21840  0.81109  1.0000
  C   C422      1.0  0.63003  0.47598  0.84218  1.0000
  C   C423      1.0  0.57560  0.54163  0.85260  1.0000
  H   H350      1.0  0.54539  0.06607  0.78705  1.0000
  S   S57       1.0  0.91145  0.19819  0.75127  1.0000
  C   C424      1.0  0.79981  0.25403  0.67931  1.0000
  H   H351      1.0  0.71975  0.06940  0.86652  1.0000
  Fe  Fe28      1.0  0.51128  0.31582  0.88042  1.0000
  C   C425      1.0  0.66903  0.30563  0.78228  1.0000
  P   P15       1.0  0.74928  0.42135  0.81131  1.0000
  C   C426      1.0  0.78988  0.44365  0.87078  1.0000
  C   C427      1.0  0.64897  0.21742  0.77329  1.0000
  C   C428      1.0  0.62115  0.55354  0.73564  1.0000
  C   C429      1.0  0.89885  0.38666  0.88647  1.0000
  H   H352      1.0  0.74076  0.47739  0.87693  1.0000
  C   C430      1.0  0.67895  0.50747  0.82423  1.0000
  C   C431      1.0  0.80713  0.40720  0.84103  1.0000
  C   C432      1.0  0.71875  0.13555  0.88043  1.0000
  H   H353      1.0  0.93400  0.37738  0.90407  1.0000
  H   H354      1.0  0.53767  0.52329  0.76163  1.0000
  H   H355      1.0  0.80562  0.08588  0.74702  1.0000
  H   H356      1.0  0.61549  0.17741  0.87802  1.0000
  S   S58       1.0  0.84998  0.08170  0.88542  1.0000
  H   H357      1.0  0.71801  0.08472  0.70985  1.0000
  H   H358      1.0  0.79961  0.45238  0.70215  1.0000
  C   C433      1.0  0.68112  0.12984  0.78337  1.0000
  H   H359      1.0  0.63404  0.40055  0.84822  1.0000
  C   C434      1.0  0.75490  0.13121  0.70695  1.0000
  C   C435      1.0  0.91558  0.34706  0.85722  1.0000
  S   S59       1.0  0.53332  0.25128  0.83313  1.0000
  C   C436      1.0  0.85063  0.25126  0.69942  1.0000
  C   C437      1.0  0.83606  0.43515  0.89325  1.0000
  C   C438      1.0  0.77609  0.15898  0.89246  1.0000
  C   C439      1.0  0.75200  0.19412  0.68297  1.0000
  C   C440      1.0  0.87035  0.35856  0.83442  1.0000
  C   C441      1.0  0.80435  0.13178  0.72793  1.0000
  H   H360      1.0  0.64331  0.37278  0.77435  1.0000
  H   H361      1.0  0.88417  0.32768  0.81176  1.0000
  H   H362      1.0  0.75309  0.37575  0.74491  1.0000
  H   H363      1.0  0.79490  0.21639  0.82580  1.0000
  C   C442      1.0  0.72247  0.30677  0.80090  1.0000
  C   C443      1.0  0.65971  0.19701  0.88687  1.0000
  C   C444      1.0  0.55186  0.51244  0.68436  1.0000
  C   C445      1.0  0.52447  0.50723  0.71365  1.0000
  C   C446      1.0  0.61409  0.53901  0.68110  1.0000
  C   C447      1.0  0.55933  0.52693  0.73915  1.0000
  H   H364      1.0  0.53830  0.51640  0.86646  1.0000
  C   C448      1.0  0.82506  0.54524  0.78416  1.0000
  C   C449      1.0  0.65812  0.28268  0.90491  1.0000
  C   C450      1.0  0.84204  0.55475  0.73009  1.0000
  Fe  Fe29      1.0  0.46937  0.14368  0.84731  1.0000
  H   H365      1.0  0.47585  0.48947  0.71695  1.0000
  C   C451      1.0  0.64840  0.55964  0.70664  1.0000
  S   S60       1.0  0.58536  0.36350  0.91118  1.0000
  P   P16       1.0  0.65337  0.46389  0.03492  1.0000
  C   C452      1.0  0.91149  0.52153  0.03613  1.0000
  H   H366      1.0  0.71454  0.37051  0.93152  1.0000
  S   S61       1.0  0.87744  0.37618  0.99943  1.0000
  S   S62       1.0  0.83840  0.12620  0.97101  1.0000
  H   H367      1.0  0.55141  0.37686  0.06680  1.0000
  H   H368      1.0  0.67111  0.32685  0.98091  1.0000
  H   H369      1.0  0.82245  0.46220  0.91628  1.0000
  C   C453      1.0  0.56959  0.50904  0.04622  1.0000
  H   H370      1.0  0.78241  0.37782  0.05409  1.0000
  C   C454      1.0  0.69377  0.12792  0.02332  1.0000
  H   H371      1.0  0.58485  0.48663  0.97826  1.0000
  C   C455      1.0  0.93733  0.07959  0.15582  1.0000
  H   H372      1.0  0.69251  0.14893  0.97524  1.0000
  C   C456      1.0  0.67193  0.51834  0.99989  1.0000
  Fe  Fe30      1.0  0.59017  0.18092  0.14846  1.0000
  Fe  Fe31      1.0  0.90107  0.08986  0.92897  1.0000
  S   S63       1.0  0.53797  0.23418  0.10735  1.0000
  H   H373      1.0  0.82625  0.26993  0.13650  1.0000
  S   S64       1.0  0.69702  0.18823  0.14799  1.0000
  C   C457      1.0  0.70572  0.50018  0.06378  1.0000
  C   C458      1.0  0.66755  0.33219  0.03012  1.0000
  H   H374      1.0  0.85353  0.42797  0.09343  1.0000
  H   H375      1.0  0.89781  0.25195  0.08998  1.0000
  C   C459      1.0  0.76603  0.44319  0.06816  1.0000
  C   C460      1.0  0.94165  0.55821  0.06109  1.0000
  H   H376      1.0  0.69092  0.13027  0.07213  1.0000
  C   C461      1.0  0.68689  0.18398  0.99777  1.0000
  H   H377      1.0  0.55455  0.07375  0.94235  1.0000
  C   C462      1.0  0.51598  0.19184  0.00215  1.0000
  C   C463      1.0  0.62834  0.52055  0.97619  1.0000
  H   H378      1.0  0.53805  0.33826  0.00544  1.0000
  C   C464      1.0  0.92101  0.42139  0.02884  1.0000
  C   C465      1.0  0.47330  0.13049  0.99115  1.0000
  H   H379      1.0  0.76436  0.55717  0.01362  1.0000
  H   H380      1.0  0.66686  0.30888  0.07836  1.0000
  C   C466      1.0  0.68606  0.17351  0.05226  1.0000
  C   C467      1.0  0.67259  0.27505  0.05569  1.0000
  H   H381      1.0  0.81812  0.26021  0.92111  1.0000
  C   C468      1.0  0.53169  0.45045  0.06186  1.0000
  Fe  Fe32      1.0  0.91229  0.22049  0.98415  1.0000
  C   C469      1.0  0.90892  0.20411  0.10841  1.0000
  C   C470      1.0  0.50463  0.29153  0.99725  1.0000
  C   C471      1.0  0.78881  0.55814  0.10758  1.0000
  C   C472      1.0  0.71526  0.30479  0.91746  1.0000
  H   H382      1.0  0.55842  0.16321  0.01416  1.0000
  C   C473      1.0  0.86846  0.21385  0.13449  1.0000
  C   C474      1.0  0.80681  0.47152  0.09031  1.0000
  C   C475      1.0  0.67454  0.28560  0.00110  1.0000
  C   C476      1.0  0.46760  0.48641  0.07133  1.0000
  C   C477      1.0  0.72910  0.55974  0.99606  1.0000
  C   C478      1.0  0.64165  0.56380  0.94916  1.0000
  C   C479      1.0  0.88229  0.15087  0.15800  1.0000
  C   C480      1.0  0.77401  0.24255  0.91144  1.0000
  H   H383      1.0  0.60887  0.56224  0.93062  1.0000
  H   H384      1.0  0.51233  0.07480  0.05650  1.0000
