data_image0
_chemical_formula_structural       C4H3CSHSHC3FeCH3FeH3C2HC2SH4CHCHC3H3CH2C2SHCSC2HC3SCHCHPH2PHC2SCHSCHC2HC2H3FeCHCHCHC3HCH2C2HC3HC2HCH2C2H2CSHFeCFeCHC2HCFeC4SC3HCHCH3SCSCHC2SPC3PHCHCHPHFeC2HCHC3HCHCH4SC2SHCH2CHC2SH2PCH2C2H2C2H3C3H3CFeHC3HC5PH2CH2FeSH2FeSHCHC4H4CHCHC3H3CHFeSCH3CHCHC5HCFeH5CH4CSHC4FeCHC3HC6HC2HCH4CSCHC8HSHC2H3C4HC2HCSHC3H2CS2H2CH2SCHC3HC2HC4H2FeHCPHC4HC3SCSC3SH2C2H2C2H2S2FeC2HC3H2C5HC2PCHCHCH2CSCHCSHC6HCFeH2C2H2C2H2C2H2CFeCH2SC2HC2HCH2PC7H4C2HC3HCH3C3H4C2H3C4HCHSCHFeH2C2H3C3HCH6C2H4FeH3CH2CH2C2SC2H2C2H2C3HCSH2CHCHC3H2C2SCH2FePHCH2CHCHSC2SCSC2HPH3FeH4SC3HC3H2CHC2HC2SHCSCHC2HC3HC2HCHSC2H4C2HPCHCHC2SHFeCHSFeCH3C3H2CH4C4SHFeC3HC3HPHPHCH3C2HCH2C2H3C2HSC2HC4H2C3HC5H2CFeCHC2HCH2CHC7H2SHPHSCH2SC7HSC5H2C2HCHC3SH2C5HS2C2H2C2H3C2HC2SC2SHFeCHC2H2C3SCHFeCH2C2SHCH2CHS2CHFeC2HCH4SC2SHCH2CSCFeHC5HCH2C6HC2HC6H2CHSH2C4H2C3SC3HCH2CSHC2HCH2CHC4SFeHSHC2H2C2H4C3H3SCH2FeC2HFeCSFeCHFeH2SFeCHFeSC2SHCHC2HC2FeH2FeH2CH2SCH2CPSH2C4HC2HC2H4C2SH2C2HC2H2C2HFeCH2FeCHC3H3CHCHC2HCHC2H4C2FeC2H2CHC2HSC4HC2HC2HSC2HCHSCSHC2H5C3HCHFeH2CHC2FeC5HC2HFeC2HC3H3CH2C2HC4HCH3CHC3HC4HC2FeH2SCHC3HSH2CHSHC4HCH2SCHC6H4CS2HCFeC2HCHC2HC2HC2HC2HCH2CHPSC2HCH2C3H2CHCH2C2H3CSCHC3FeH2CH3C2H2C2H3PCHCSCH2C5HCHCH2PSCSC2PH2CH3CH2S2H2SC3SHC2HCHCFeCHC2HCHFePC2HFeHC2HC2SCHC2HC4HCSC2SHSH3CHC2HC2SHC3HCHC2H2C3H2PS2C2H2CH3C2H2CHC2HCHC7H5C8SHCHSCFeHCHC2HCHCHC2H4SFeH2CHCH2CH2CHC5SH2C2H4CHC2H3CHCHC2HCH3C2HCSCHC7H3C2H2CH3CHPCHC5HC8H3CH2C5HC5HPC2HCH2CH3CHC2H2C3HC2HCHCHC2HC3HCHSHSCPH2C2HCHC3SC2H2C4HCH2FeC3H2C2HC2SHCHC2HC2FeHPC2SH2C3HSCHFeCHFeC2S2C2HC2HFeHC2HCSH4CPHCHCHC3HSCH2CHFeHS2HCSH3CH3CHC4SCFeC4H2C2HCSHFeHC2H3C2SC5HCH2C2H4CHC5HC2HC3HC5HCH2C4H2CHC2SHC3H6SC4H3C2PCFeC2H2C2HC2H5C2SHCHC2HCPC5H2C2PHC2HCHCHCHC2H2CH2C3SHCHCH2SC2HC2H2CFeHCFeCH2C2HCHCHCH2C2H3C2H2CHC2HC2HC3HSFeCHCHCH2FeCHC3H3PHCH2CH2CHSC2FeC2HCHCH2C2SPHC4HC5HCSH3CH9CH2C4H2CHCHC4H2C3PC2HPC2H2C4SCH2C3SC2HCHCH5CH2C4H2C5HC2HSC2H2CFeCHCH2CHCH2C5HC3H2PH2CHCSCH2C3FeCHCHCHCH3SCHPCH2CH2C3HC5H2FeCHC2H2FeC3HC3HCHCHC2SH3CSCPC2HC2H4C3H2C3HC3SCHC2H3CHCFeCHCHCHC2HCHSCHCHFeH2C2HC3FeHC3H2CH2C3SHCSC2HCH3CSH2C3HPH2C2HC2HC3H2CSC2HCH2C2HCH2C2HC2HC2H2PC3HCFeCHCHSHFeC2HC2H4CHCH3SHCSC2HC2HCSHFeSC3SHC2HCHCH2SCHSHC2H6SHCHCPC4HC2HC4PCHSH4CH3PC2H2C2H2C2SH2C3SC2HPH3C3HCFeH2C4SC3HSHC9H3CH2C2HFeSCFeC2H3CH7CSCH2C3H2C4H2CFeH2C2H2C3HC2HC4HFeCH2SFeCH3SHFeC2HC4SC4HFeH3C3SHC3H4CHC2SC5HCHCH2C2HC2H2CH5CHSC2HCFeC2FeHCHPHC2H3C3H2CHCHC2H2C3HC7HSHCHFeH3C3HCFe2HC2HSC5H2SCHC2HPCH2C9HSHC7HCHC2H4CH2C2HC2H5CHC3H4CHC3HC2H2C6HFeH2SCH3CH4C2HCH3C4HSH2CHCHC3H3C3HC2H2C2PCSC3S2HFeCH2CHCHC6HSCPCH5CHC4FeCH3C2HC2H2C2SCSCH3CHC3H2CH3C3SC2H2CHCSCHC5HC6HC2H3C3H2C4HC2PHSHCH3C2HCHCP2H2C2HC2H2C4SH3CFeC5HC2SH2CHCH2C2HC2HPH6C9SC3SCPC4HC2PH2SH2SHCH2CHSCFePC3SC4H3FeHCFeHCFeC2HSH2CH4C4HCHC2H2CHSCHCSCFeC2PH3C2FeHCFeHCH3SH2CSH2FePSC2HSC2HCHCHCHC2HC3H2C3HSC2FeHCHCH2SH2C2HCH3CHCHSHCHCHC2PCHCHC2H2SFeCHC2HC3FeH4C2HCHCHCHC3H3CH2C3H3C3H5CHCH4C2SCH2CSHCHPHC4HCHCPHC2HSFeCHC2H2C6H2CSCHC2HC2H3SCHS2C2H2C3HSCHC4HSCPH2C2HC3S2HFeHC2HCFeHC4H5CHCH3C2H2CH2C3HCSC4HCH2C2HSHC3HC3HCH2C4SHSC4HC2H2C6H2CH2C3FeC5HC2H2CHCHC6HC3HCSCH2C5H2C2HC2HCH4CH2C2HC4HFeCHSC5HCHCH3CS2HC3SHC3SH5CHCHCHSH2CH3C3SHCFeHC2HFeC2H2CS2CH4CH7CHCHCHC2PSC3HCH4C5HSCHCHCH2C4H2C2HSC2H2CHCHC10SHCH2C4HCHCH2C3H2CFeCHCHC3HC2H2CH2CFeH5CFeSCH2SCHC3FeCH2SC3HC4HC2H5SCHCH6C2HFeHC4HCH3SH2FeHSFeC6S2CSH2CFeCHC2HCHCFeSC4HCHCSHCH4C3H2SCH2CH2C2HCHFeCH2C6SCH2CHCHCHCHC5H2CSC2HSC3HC4HCHCHC2H3C2SH2C3SH4FeCHSHCHCHCH3PC3HC3HC2H2C5H2CH3CHC3FeCSHC7HCHC2SCHCH3C3H2FeHC3HC2H5C2H2CHCH3CHPHCHCS2C3HCH3C2SHC3SHCHC2H4CHSC2HC2FeC2H6SCFeHCHCHFeC2HCHCH2PCHCPFeHC3HC2HCSC2HC4H2C4H2CHC2PCHSCH2C3HPHCSCHCH2CH2FeH5CFeH3SHC3HCHCSHC2H4CHC2HCHSHCH3C3HC3HC3HFeCH2CHCHSHCHCS2H2C2FeCH2CH4CHCHC2HSH2CH2C2HCSPC2H3CHSC5SHSH2CH6C3HCH2C5HFeCHCFeCSC3HCHCHCH4C6PHC2HC8PC3H5PHCHCSC2HSCH3CHPCHCHCSH3FeCH3CHCHSHFeCHCHC2HCHC2H3C2HC5H3C2HC2HC3H2C4HCH2CHCH2FeH2CHC3H3SCH2CHC5H2CHSHC2HC2HCH2C4HC5FeC2HCHCHCH2SC4H2CHC3H3C2HC2HCH6Fe2CH4FeC2H2C2HSC2H2CPC2H2CS2C4FeH2C3HSC3HSCHCHC4HC2HPC7HCHCHCH2CHC2H2CH3CHCSH2C2HCFeCHC3HC2HCHC3SHCHC2H2CSH3CSC2SC3HSC2H2SCHC2PHCFeHCHC2H4C2HCH2C2FeCHC2SC2H2C2H4C4SC5HCHSC2HC2SHCH2FeHC5H2C2HC3H4CHCSC2HCHCFeC2H2SH2C2SCH2C2H2FePH2C2FeH3C4HCH2C2SC3H2C3HCHCHCH2CHC4HCH5CH2C2HSHCH2CHCHFeCH2PC2H2CH2PCHC3HC6H3CH2CSCH6C2HC2HC4HC5HC2HSHC2HCPC6HCHC2H3C2SCHPC2HC3HC2H3C2HCHSHCHCSC2HPH2S2CH2C3H2C3HC4HCH3C2H2C2H4CHC2HC2H3FeC2SC5FeSHFeC3SHCHCHC2PCH2CHC2H2CH3C5HC5HC2H4C2H2C2S2CH2CHC2Fe2C4H2CS2CH2PC2SC5HC3H3SHC2HSHCHCFeH3C3FeHCHSC7HC3HC6HC2FeHCHCH2C2H2C4H4CSHC6H2SCH2SCPCH2CSHCH5CHC2FeHC8SC3HSH3C3HC2H2SCH3CSH2CHC2HFeHC10FeCSHFeHCHPCHCSC2Fe2H2CSH6CSCH2SCH2FeHC3HC2SC4PCH2CH2FeCH3C3FeCH2C2H2CHCHCPH3C2H2C3SHCHCHCFeCHCHCSCHC5HC2HC3SCH3CH2CHC2FeHPCSC3H3SCPC3HSC3S2CFeH2CH2CSHC2H2CHCHSCHCHFeCH2C4H4CHCHC2HC6HC8H2C2HC2HCPH4CHC2H3FeCH3CH2CHC3H3CHCH2SC2H2CHC2HC2HSH2SH3C2HCHC2HC15SC6SHCFeC5SC5H8C3HC5H2C2HC3HCH2CH3SH4C3HCHSCPH2FePHC2H3C2HFeHCH2PHCPHCHC3SC3HCH3SH2C3FeH3CH6CHCHCHC2HC6H2SC4H6C2HCHC2HC3HCFeCH2SC2HCHSH2CHCH2CH3C3SCHCHCHCHC2HCH2C4H4C2H2CHSCH2SCHFeH2C6H2C3HC3FeC3HCH3CHC2S2HCH3CH2C2SCHCSCH2CHCH2FeH2C5HCHCH3CH2CHCHC3SC3HC2HCSC3HC6SHC4HC2H2CHCFeH3CH2FePC2SH2C2H3C2H3C2HPCHCSH2CH2CHC3H2CSC2H2SH2C3HC2H3SH2SHCSCH2SHC2H2CPC2H2C2HC2HCHCFeHC3H3C2HCH2CHCHC4SHCH2C2HCH4CH3CH4C4HPC3H2CSC3PC2HCH2C3HCHC3FeHC2HC2HSHC2HC7FeCHC2FeC4SCSHC2H2Fe2H2C2H2C3HC2HC2H2CFe2C2H2CH2C2H2C8HC2H2FeC4SHCHS2H2SHCSHCHC3HC3HCHCHFeHC4SFe2SCHC2HCHSCSCHCH2SH2C2HCSHC3HCSHCHC3HCH2CHCH4PH4C4FeSHSC2PC2PC2HCH2CH2C2SCH3C7H4C4HCH2FePCH2C2H2C3HC2HCHCHCH3CSC2H9CHCH2CHC4FeC3SC3H2CHC4HC3H2C5HCFeC3H6C2H2CSC4HC4SHCH2C4H3C2H2CHC11SCSHC2H6CHC4HCH2SHC2HCH3C3HC3HC2HCHC2H2C3HC2H2C2HC3HCS2CHSCH3C5HPCHC2HSH2C2H3CHCHCFePCHS2CHCSC3HC2HC2Fe2CSHSHPCPCH2C2HC7HC2HC2HPCHCH2C2HCSFeCH2CHFeHC2HS2HCHFeHC5HFeC7SH2CHCHCHC2HCH2CH3C3HSHFeC2H3FeHSHCH2FeCHCHSH4CH2C2SC2H4CH2C2H2SCHSCSH2CH2C2H2C2HSPH2SH3CHCH3C4SHC6HFeC2PH2C6FeSH2C2HFeC7H3FeC3H2PCHC2HC2HCHC5FeCH3C4HCH3CHC3H2FeHCH2SPH2SHFeCHC3FeC2SCHPH2C3HCH3CH2C2HC4H2CSHC3FeCHC2HC2SC2SCHC2HCSC5HCSH2C3HCHC4H2CH3PH3CH5C3H3C2SCHC2HC9H2CSCH2CH4C4H2C4S2HC2HCHCH4CSC2HC3HCHC2SC2HCHSHCFeCSHC5H4CSC4HSHCS2C3HC3HC2HFeSHS2CH2C2S2CFeHC2FeCH4C3HC2HCHPCH7SHCHC2H5CHC2SHCHCH2SC2PCHFeC3HC2H2CFeHSCFeHCHC2H2C2SH2SH3C4HFeH3CHCH2CHC2H4CH2C2HCHCH3CH4SC2HPC4H3C2H2C7HCSFeC4HCH3C2PC2H4CH2CSCFeC2HC4HCH2C2H4C4H4CHCHSC2SC2H2CH4CHCH2C5H2C2SHCHC5H2C2H2CHC2HCH2C2FeHC3HCH4CFeCSHS2CH3CS2CHC3H2SHCH3CHC4SHCHC3HCH3CSCHC2HC4SC3HPCH2PHCH2SHC3HC5H3SHPCH2C2SPCFeC4HCH2C3H5CHCHSCH3CH2CHC6HCH2CH3CSC2HCH2SCH3CHCHC3SCH2C2H3PCHSCSCH2CHC2HC3HC2H5C2H4CHFeC2HFeC2S2C2HCH4CHCH2CH2C2SC4HCHCSCSC4HC5HC2H2C2H2C3H5C4HCH2CHSCHFeC4FeC7HCHC2H3PC2FeHC2H2SC2H2C2SCHCSCHC4HC2FeH2SCSHFeCFeC2FeSFeC2FeH3C4H2SFeC2H3C2HCH4FeH7CHCHC5HCH2CH3C3HPHC2SHCHCHCH2CHCSH2CHC2HSCH2C3FeC3H2CHC2HC2H3CHC4HC3H4SCHC5H3CSCHCSH2C3SH3FeCH3C3H2CSPH3PCH2CPCHCH2FeHCSHC2H2C5H3FeH2FeHCH4CHC2HC2H3CHCH2CH2C4FeHC3HC3HCHC4HC3PH3FeCSPHC4H3SCHCFeSC2HSHCSCH3FeHCH2CSC2H3FeHC3H3CH2FeHCH2FeCSHCH2CFeCSC2HC2SCH2C3SC2H3CHSC2SPC3H3C2HC3HSFeHSC3H2C3SCH2CHC3HC3H2C2S2C2HCHCHCH2CH2C4HCHC2HC2SC3SCH4C3H3C4HCH3CHCHCH4CHCHSHCHC4HSCFeCSCHFeHFeC2HC3SC4FeHC4HCHC2HCH2CHC4HC2SCFeCFeHCH2FeH3C2HCHSCSH3CH2
_chemical_formula_sum              "C3960 H3168 S528 Fe264 P132"
_cell_length_a       65.2626
_cell_length_b       61.5503
_cell_length_c       30.8298
_cell_angle_alpha    81.5334
_cell_angle_beta     77.8734
_cell_angle_gamma    115.066

_space_group_name_H-M_alt    "P 1"
_space_group_IT_number       1

loop_
  _space_group_symop_operation_xyz
  'x, y, z'

loop_
  _atom_site_type_symbol
  _atom_site_label
  _atom_site_symmetry_multiplicity
  _atom_site_fract_x
  _atom_site_fract_y
  _atom_site_fract_z
  _atom_site_occupancy
  C   C1        1.0  0.02078  0.12667  0.69416  1.0000
  C   C2        1.0  0.23801  0.11899  0.61134  1.0000
  C   C3        1.0  0.31057  0.05851  0.81173  1.0000
  C   C4        1.0  0.03893  0.04047  0.81067  1.0000
  H   H1        1.0  0.24298  0.13273  0.40525  1.0000
  H   H2        1.0  0.18590  0.22136  0.67846  1.0000
  H   H3        1.0  0.19237  0.22330  0.49010  1.0000
  C   C5        1.0  0.12609  0.19768  0.87091  1.0000
  S   S1        1.0  0.14002  0.17792  0.71647  1.0000
  H   H4        1.0  0.28506  0.08988  0.52096  1.0000
  S   S2        1.0  0.07880  0.18029  0.77181  1.0000
  H   H5        1.0  0.99697  0.16945  0.87403  1.0000
  C   C6        1.0  0.16336  0.25675  0.84079  1.0000
  C   C7        1.0  0.07341  0.08215  0.69636  1.0000
  C   C8        1.0  0.46200  0.05465  0.64622  1.0000
  Fe  Fe1       1.0  0.07390  0.19670  0.70721  1.0000
  C   C9        1.0  0.22018  0.11818  0.64722  1.0000
  H   H6        1.0  0.22228  0.01833  0.81083  1.0000
  H   H7        1.0  0.21552  0.25664  0.79649  1.0000
  H   H8        1.0  0.21194  0.25056  0.41135  1.0000
  Fe  Fe2       1.0  0.09596  0.12241  0.47166  1.0000
  H   H9        1.0  0.40489  0.11830  0.68199  1.0000
  H   H10       1.0  0.46528  0.16981  0.54100  1.0000
  H   H11       1.0  0.02374  0.13023  0.65735  1.0000
  C   C10       1.0  0.05506  0.02238  0.59013  1.0000
  C   C11       1.0  0.48610  0.20495  0.48823  1.0000
  H   H12       1.0  0.39785  0.04830  0.80944  1.0000
  C   C12       1.0  0.11677  0.07107  0.55642  1.0000
  C   C13       1.0  0.06965  0.09378  0.65842  1.0000
  S   S3        1.0  0.47587  0.17975  0.77762  1.0000
  H   H13       1.0  0.18586  0.15320  0.42996  1.0000
  H   H14       1.0  0.09676  0.17638  0.48119  1.0000
  H   H15       1.0  0.28672  0.13755  0.86278  1.0000
  H   H16       1.0  0.03037  0.20119  0.45418  1.0000
  C   C14       1.0  0.31943  0.10080  0.84460  1.0000
  H   H17       1.0  0.10898  0.16457  0.57949  1.0000
  C   C15       1.0  0.13930  0.15666  0.80340  1.0000
  H   H18       1.0  0.08196  0.21185  0.56272  1.0000
  C   C16       1.0  0.13693  0.04596  0.55444  1.0000
  C   C17       1.0  0.24554  0.12442  0.69629  1.0000
  C   C18       1.0  0.38979  0.09246  0.79682  1.0000
  H   H19       1.0  0.43835  0.12379  0.51864  1.0000
  H   H20       1.0  0.24194  0.16904  0.52541  1.0000
  H   H21       1.0  0.05176  0.23938  0.79106  1.0000
  C   C19       1.0  0.24163  0.18604  0.62216  1.0000
  H   H22       1.0  0.03021  0.15713  0.77722  1.0000
  H   H23       1.0  0.06352  0.08380  0.63378  1.0000
  C   C20       1.0  0.12876  0.09105  0.71636  1.0000
  C   C21       1.0  0.22157  0.08625  0.55043  1.0000
  S   S4        1.0  0.29672  0.08269  0.65229  1.0000
  H   H24       1.0  0.17689  0.12677  0.75142  1.0000
  C   C22       1.0  0.25434  0.10421  0.87512  1.0000
  S   S5        1.0  0.06507  0.11929  0.52584  1.0000
  C   C23       1.0  0.27834  0.20860  0.73626  1.0000
  C   C24       1.0  0.20799  0.16640  0.52723  1.0000
  H   H25       1.0  0.04487  0.25492  0.53488  1.0000
  C   C25       1.0  0.48690  0.11752  0.83724  1.0000
  C   C26       1.0  0.01540  0.23886  0.45605  1.0000
  C   C27       1.0  0.08510  0.10608  0.89353  1.0000
  S   S6        1.0  0.10336  0.03581  0.68764  1.0000
  C   C28       1.0  0.18803  0.25556  0.68948  1.0000
  H   H26       1.0  0.17038  0.23028  0.43669  1.0000
  C   C29       1.0  0.29036  0.20782  0.65687  1.0000
  H   H27       1.0  0.06900  0.06227  0.57356  1.0000
  P   P1        1.0  0.08526  0.07979  0.77818  1.0000
  H   H28       1.0  0.21516  0.18628  0.51351  1.0000
  H   H29       1.0  0.06979  0.02263  0.60135  1.0000
  P   P2        1.0  0.17377  0.21848  0.86964  1.0000
  H   H30       1.0  0.42986  0.19203  0.48510  1.0000
  C   C30       1.0  0.49053  0.09662  0.84354  1.0000
  C   C31       1.0  0.31011  0.09800  0.80773  1.0000
  S   S7        1.0  0.35879  0.11488  0.67274  1.0000
  C   C32       1.0  0.00445  0.03280  0.47457  1.0000
  H   H31       1.0  0.17254  0.15813  0.52682  1.0000
  S   S8        1.0  0.04428  0.17697  0.67904  1.0000
  C   C33       1.0  0.11476  0.08226  0.76279  1.0000
  H   H32       1.0  0.34959  0.03116  0.44169  1.0000
  C   C34       1.0  0.40678  0.16338  0.81129  1.0000
  C   C35       1.0  0.48030  0.11842  0.47545  1.0000
  H   H33       1.0  0.47351  0.10975  0.70128  1.0000
  C   C36       1.0  0.08189  0.25277  0.47508  1.0000
  C   C37       1.0  0.01056  0.04076  0.70758  1.0000
  H   H34       1.0  0.23569  0.14444  0.80000  1.0000
  H   H35       1.0  0.05710  0.21473  0.51424  1.0000
  H   H36       1.0  0.99881  0.16854  0.79283  1.0000
  Fe  Fe3       1.0  0.14779  0.15773  0.41539  1.0000
  C   C38       1.0  0.03045  0.24874  0.51995  1.0000
  H   H37       1.0  0.04959  0.09633  0.80576  1.0000
  C   C39       1.0  0.34475  0.05568  0.65431  1.0000
  H   H38       1.0  0.02224  0.06046  0.70069  1.0000
  C   C40       1.0  0.12842  0.03751  0.60265  1.0000
  H   H39       1.0  0.36861  0.19289  0.52988  1.0000
  C   C41       1.0  0.21957  0.25591  0.43842  1.0000
  C   C42       1.0  0.36686  0.05873  0.65697  1.0000
  C   C43       1.0  0.06321  0.04720  0.79625  1.0000
  H   H40       1.0  0.15609  0.11267  0.55818  1.0000
  C   C44       1.0  0.08201  0.13156  0.68336  1.0000
  H   H41       1.0  0.27604  0.16472  0.54747  1.0000
  H   H42       1.0  0.26069  0.03463  0.82697  1.0000
  C   C45       1.0  0.37913  0.10397  0.54019  1.0000
  C   C46       1.0  0.43859  0.17153  0.39887  1.0000
  H   H43       1.0  0.41162  0.20560  0.54659  1.0000
  C   C47       1.0  0.37701  0.22123  0.46934  1.0000
  C   C48       1.0  0.22305  0.16859  0.42392  1.0000
  C   C49       1.0  0.01983  0.02478  0.69723  1.0000
  H   H44       1.0  0.99383  0.03769  0.62241  1.0000
  C   C50       1.0  0.17961  0.24742  0.83280  1.0000
  C   C51       1.0  0.00802  0.20659  0.76447  1.0000
  H   H45       1.0  0.46180  0.23240  0.57998  1.0000
  C   C52       1.0  0.30998  0.05102  0.42264  1.0000
  H   H46       1.0  0.21025  0.03506  0.69591  1.0000
  H   H47       1.0  0.34240  0.06032  0.62105  1.0000
  C   C53       1.0  0.08818  0.22899  0.53648  1.0000
  C   C54       1.0  0.42954  0.11930  0.71922  1.0000
  H   H48       1.0  0.03115  0.17068  0.41148  1.0000
  H   H49       1.0  0.09331  0.13094  0.74378  1.0000
  C   C55       1.0  0.04525  0.18972  0.39899  1.0000
  S   S9        1.0  0.43260  0.05073  0.55475  1.0000
  H   H50       1.0  0.45522  0.22192  0.40910  1.0000
  Fe  Fe4       1.0  0.08844  0.21806  0.78426  1.0000
  C   C56       1.0  0.17252  0.20824  0.58197  1.0000
  Fe  Fe5       1.0  0.16355  0.02216  0.75297  1.0000
  C   C57       1.0  0.05979  0.09894  0.82984  1.0000
  H   H51       1.0  0.35959  0.25567  0.55398  1.0000
  C   C58       1.0  0.14250  0.19651  0.89300  1.0000
  C   C59       1.0  0.36314  0.22296  0.54780  1.0000
  H   H52       1.0  0.17391  0.17380  0.60378  1.0000
  C   C60       1.0  0.28250  0.18851  0.75085  1.0000
  Fe  Fe6       1.0  0.13076  0.10223  0.44774  1.0000
  C   C61       1.0  0.25772  0.07262  0.42291  1.0000
  C   C62       1.0  0.10572  0.21213  0.43858  1.0000
  C   C63       1.0  0.36474  0.24613  0.53071  1.0000
  C   C64       1.0  0.21488  0.04373  0.57365  1.0000
  S   S10       1.0  0.37124  0.15020  0.77177  1.0000
  C   C65       1.0  0.04212  0.11937  0.50438  1.0000
  C   C66       1.0  0.03427  0.24601  0.47490  1.0000
  C   C67       1.0  0.47806  0.18951  0.40782  1.0000
  H   H53       1.0  0.45905  0.05703  0.76112  1.0000
  C   C68       1.0  0.41250  0.09894  0.80123  1.0000
  H   H54       1.0  0.20342  0.11560  0.64258  1.0000
  C   C69       1.0  0.30276  0.17138  0.48595  1.0000
  H   H55       1.0  0.00395  0.14391  0.51524  1.0000
  H   H56       1.0  0.28923  0.22828  0.81540  1.0000
  H   H57       1.0  0.41661  0.21761  0.75202  1.0000
  S   S11       1.0  0.99512  0.06691  0.80213  1.0000
  C   C70       1.0  0.47133  0.07287  0.85411  1.0000
  S   S12       1.0  0.41108  0.14591  0.55713  1.0000
  C   C71       1.0  0.31056  0.18684  0.81536  1.0000
  H   H58       1.0  0.12302  0.09811  0.68969  1.0000
  C   C72       1.0  0.21436  0.13067  0.54841  1.0000
  C   C73       1.0  0.44294  0.05554  0.67502  1.0000
  S   S13       1.0  0.19253  0.04696  0.77862  1.0000
  P   P3        1.0  0.41540  0.08758  0.85600  1.0000
  C   C74       1.0  0.02474  0.14185  0.76162  1.0000
  C   C75       1.0  0.11083  0.19503  0.46278  1.0000
  C   C76       1.0  0.07406  0.23071  0.50910  1.0000
  P   P4        1.0  0.28109  0.17781  0.81008  1.0000
  H   H59       1.0  0.41934  0.21626  0.67146  1.0000
  C   C77       1.0  0.21964  0.18104  0.65081  1.0000
  H   H60       1.0  0.11205  0.25494  0.88852  1.0000
  C   C78       1.0  0.24085  0.07283  0.75510  1.0000
  H   H61       1.0  0.48473  0.09747  0.53209  1.0000
  P   P5        1.0  0.99401  0.02205  0.53675  1.0000
  H   H62       1.0  0.42750  0.08554  0.49194  1.0000
  Fe  Fe7       1.0  0.32746  0.11681  0.65698  1.0000
  C   C79       1.0  0.19069  0.20613  0.79140  1.0000
  C   C80       1.0  0.01243  0.13319  0.50341  1.0000
  H   H63       1.0  0.45381  0.20400  0.89225  1.0000
  C   C81       1.0  0.21030  0.08004  0.51656  1.0000
  H   H64       1.0  0.00491  0.24617  0.58044  1.0000
  C   C82       1.0  0.26361  0.14432  0.82754  1.0000
  C   C83       1.0  0.20452  0.19281  0.39892  1.0000
  C   C84       1.0  0.26122  0.01797  0.57748  1.0000
  H   H65       1.0  0.22144  0.15104  0.44093  1.0000
  C   C85       1.0  0.06990  0.02826  0.79707  1.0000
  H   H66       1.0  0.00501  0.08709  0.70573  1.0000
  C   C86       1.0  0.01648  0.10640  0.45587  1.0000
  H   H67       1.0  0.33077  0.05578  0.47007  1.0000
  H   H68       1.0  0.29187  0.05336  0.54557  1.0000
  H   H69       1.0  0.38378  0.11108  0.86819  1.0000
  H   H70       1.0  0.45054  0.18741  0.59879  1.0000
  S   S14       1.0  0.48600  0.04159  0.49224  1.0000
  C   C87       1.0  0.16025  0.13243  0.81343  1.0000
  C   C88       1.0  0.35129  0.04550  0.74027  1.0000
  S   S15       1.0  0.31996  0.25974  0.87068  1.0000
  H   H71       1.0  0.26960  0.20900  0.55875  1.0000
  C   C89       1.0  0.44696  0.07553  0.69447  1.0000
  H   H72       1.0  0.11166  0.08344  0.53880  1.0000
  H   H73       1.0  0.23270  0.07229  0.60480  1.0000
  C   C90       1.0  0.20282  0.16985  0.41810  1.0000
  H   H74       1.0  0.31139  0.12793  0.53846  1.0000
  C   C91       1.0  0.44262  0.17396  0.73107  1.0000
  C   C92       1.0  0.05358  0.10801  0.86664  1.0000
  S   S16       1.0  0.17123  0.11654  0.84631  1.0000
  H   H75       1.0  0.29988  0.18400  0.88854  1.0000
  H   H76       1.0  0.13347  0.14655  0.60439  1.0000
  P   P6        1.0  0.23422  0.11790  0.55514  1.0000
  C   C93       1.0  0.21868  0.21332  0.59634  1.0000
  H   H77       1.0  0.03545  0.14214  0.54622  1.0000
  H   H78       1.0  0.29206  0.16146  0.72832  1.0000
  C   C94       1.0  0.46644  0.04484  0.76929  1.0000
  C   C95       1.0  0.35181  0.19661  0.78315  1.0000
  H   H79       1.0  0.38757  0.05712  0.70191  1.0000
  H   H80       1.0  0.32565  0.17444  0.42166  1.0000
  C   C96       1.0  0.02845  0.14648  0.71407  1.0000
  C   C97       1.0  0.20252  0.19531  0.76685  1.0000
  H   H81       1.0  0.36110  0.25287  0.77446  1.0000
  H   H82       1.0  0.24664  0.06309  0.45812  1.0000
  H   H83       1.0  0.19209  0.05099  0.48614  1.0000
  C   C98       1.0  0.30345  0.10053  0.49984  1.0000
  C   C99       1.0  0.99571  0.03386  0.40164  1.0000
  C   C100      1.0  0.13420  0.20174  0.46199  1.0000
  H   H84       1.0  0.48740  0.25950  0.50192  1.0000
  H   H85       1.0  0.29446  0.21594  0.62044  1.0000
  H   H86       1.0  0.20996  0.11946  0.71775  1.0000
  C   C101      1.0  0.22320  0.15650  0.53364  1.0000
  Fe  Fe8       1.0  0.35336  0.17378  0.62869  1.0000
  H   H87       1.0  0.36562  0.10907  0.55373  1.0000
  C   C102      1.0  0.30604  0.07713  0.79088  1.0000
  C   C103      1.0  0.15238  0.22558  0.43746  1.0000
  C   C104      1.0  0.38709  0.09985  0.75429  1.0000
  H   H88       1.0  0.24979  0.23245  0.53547  1.0000
  C   C105      1.0  0.24466  0.26073  0.70982  1.0000
  C   C106      1.0  0.37294  0.08210  0.52549  1.0000
  C   C107      1.0  0.46223  0.19948  0.56506  1.0000
  C   C108      1.0  0.26666  0.18919  0.85094  1.0000
  C   C109      1.0  0.37203  0.25664  0.48327  1.0000
  P   P7        1.0  0.29351  0.06552  0.44851  1.0000
  H   H89       1.0  0.38159  0.06541  0.62572  1.0000
  H   H90       1.0  0.38244  0.26240  0.83166  1.0000
  C   C110      1.0  0.24143  0.13332  0.81975  1.0000
  H   H91       1.0  0.45880  0.03936  0.63081  1.0000
  H   H92       1.0  0.22994  0.07705  0.40170  1.0000
  Fe  Fe9       1.0  0.44721  0.02645  0.52920  1.0000
  S   S17       1.0  0.17925  0.19524  0.39541  1.0000
  H   H93       1.0  0.41524  0.16611  0.69768  1.0000
  H   H94       1.0  0.25019  0.17516  0.63162  1.0000
  Fe  Fe10      1.0  0.38049  0.14506  0.60727  1.0000
  S   S18       1.0  0.14186  0.07377  0.47124  1.0000
  H   H95       1.0  0.39299  0.15936  0.84236  1.0000
  C   C111      1.0  0.19149  0.24050  0.66198  1.0000
  H   H96       1.0  0.12901  0.16521  0.81767  1.0000
  C   C112      1.0  0.42654  0.24333  0.50558  1.0000
  C   C113      1.0  0.21822  0.24747  0.51876  1.0000
  C   C114      1.0  0.27627  0.03908  0.54085  1.0000
  C   C115      1.0  0.14574  0.15919  0.75590  1.0000
  H   H97       1.0  0.29960  0.07552  0.76128  1.0000
  H   H98       1.0  0.12453  0.21015  0.55776  1.0000
  H   H99       1.0  0.24862  0.02200  0.45981  1.0000
  H   H100      1.0  0.47182  0.10243  0.46265  1.0000
  C   C116      1.0  0.22401  0.06797  0.57865  1.0000
  H   H101      1.0  0.08764  0.20661  0.43845  1.0000
  C   C117      1.0  0.41397  0.09052  0.50568  1.0000
  H   H102      1.0  0.21113  0.16625  0.68254  1.0000
  C   C118      1.0  0.04189  0.23462  0.64142  1.0000
  C   C119      1.0  0.20085  0.24981  0.61386  1.0000
  C   C120      1.0  0.48935  0.09303  0.65816  1.0000
  H   H103      1.0  0.23793  0.07952  0.78504  1.0000
  H   H104      1.0  0.20846  0.09391  0.49394  1.0000
  H   H105      1.0  0.25138  0.04874  0.64765  1.0000
  C   C121      1.0  0.22520  0.04781  0.70480  1.0000
  H   H106      1.0  0.38823  0.06346  0.39744  1.0000
  Fe  Fe11      1.0  0.40117  0.02897  0.53218  1.0000
  S   S19       1.0  0.08122  0.23318  0.72196  1.0000
  C   C122      1.0  0.44772  0.17432  0.77300  1.0000
  H   H107      1.0  0.27220  0.21704  0.76045  1.0000
  H   H108      1.0  0.07045  0.06317  0.70076  1.0000
  H   H109      1.0  0.03069  0.21465  0.65412  1.0000
  C   C123      1.0  0.33591  0.10779  0.43480  1.0000
  H   H110      1.0  0.08525  0.15067  0.67860  1.0000
  C   C124      1.0  0.15755  0.07977  0.73653  1.0000
  H   H111      1.0  0.06991  0.12698  0.62375  1.0000
  C   C125      1.0  0.40119  0.16132  0.77022  1.0000
  C   C126      1.0  0.12661  0.17669  0.58044  1.0000
  C   C127      1.0  0.26280  0.22330  0.87602  1.0000
  C   C128      1.0  0.14666  0.14331  0.83228  1.0000
  C   C129      1.0  0.39389  0.05502  0.87713  1.0000
  H   H112      1.0  0.13195  0.21052  0.83755  1.0000
  C   C130      1.0  0.39034  0.07511  0.50926  1.0000
  Fe  Fe12      1.0  0.11931  0.24556  0.68542  1.0000
  H   H113      1.0  0.32983  0.02080  0.52693  1.0000
  H   H114      1.0  0.32328  0.11741  0.85659  1.0000
  H   H115      1.0  0.03617  0.06200  0.54660  1.0000
  H   H116      1.0  0.44623  0.16151  0.46089  1.0000
  H   H117      1.0  0.21943  0.17201  0.77075  1.0000
  C   C131      1.0  0.07348  0.11828  0.65246  1.0000
  H   H118      1.0  0.15986  0.09529  0.66725  1.0000
  H   H119      1.0  0.21969  0.07405  0.88415  1.0000
  H   H120      1.0  0.01092  0.09607  0.43134  1.0000
  H   H121      1.0  0.19104  0.19010  0.66023  1.0000
  C   C132      1.0  0.29328  0.18701  0.67122  1.0000
  S   S20       1.0  0.38647  0.17590  0.64134  1.0000
  H   H122      1.0  0.02577  0.21124  0.74421  1.0000
  C   C133      1.0  0.18983  0.11496  0.55905  1.0000
  C   C134      1.0  0.31825  0.12225  0.50958  1.0000
  C   C135      1.0  0.19637  0.18906  0.86118  1.0000
  C   C136      1.0  0.13545  0.20245  0.56801  1.0000
  Fe  Fe13      1.0  0.12321  0.01738  0.71333  1.0000
  C   C137      1.0  0.13112  0.06282  0.53132  1.0000
  H   H123      1.0  0.36958  0.09554  0.75166  1.0000
  C   C138      1.0  0.18395  0.15056  0.53489  1.0000
  C   C139      1.0  0.31240  0.09289  0.46289  1.0000
  C   C140      1.0  0.29123  0.14237  0.43969  1.0000
  H   H124      1.0  0.37411  0.08166  0.82625  1.0000
  C   C141      1.0  0.22586  0.10798  0.83957  1.0000
  C   C142      1.0  0.44708  0.22796  0.43563  1.0000
  C   C143      1.0  0.16630  0.13490  0.76616  1.0000
  C   C144      1.0  0.06248  0.23220  0.40587  1.0000
  C   C145      1.0  0.21131  0.18141  0.78931  1.0000
  C   C146      1.0  0.42016  0.11235  0.52006  1.0000
  H   H125      1.0  0.36882  0.14096  0.42241  1.0000
  C   C147      1.0  0.24106  0.21845  0.56810  1.0000
  C   C148      1.0  0.10882  0.06320  0.60451  1.0000
  H   H126      1.0  0.24697  0.23583  0.76328  1.0000
  C   C149      1.0  0.28915  0.17725  0.71797  1.0000
  H   H127      1.0  0.20388  0.19677  0.73094  1.0000
  H   H128      1.0  0.01824  0.23740  0.42087  1.0000
  H   H129      1.0  0.29959  0.17900  0.64583  1.0000
  H   H130      1.0  0.12054  0.24846  0.55315  1.0000
  C   C150      1.0  0.44854  0.06996  0.85761  1.0000
  S   S21       1.0  0.31853  0.23648  0.46674  1.0000
  C   C151      1.0  0.01407  0.11737  0.78916  1.0000
  H   H131      1.0  0.35442  0.04241  0.77320  1.0000
  C   C152      1.0  0.16345  0.18226  0.59436  1.0000
  C   C153      1.0  0.17478  0.12491  0.55175  1.0000
  C   C154      1.0  0.20114  0.05579  0.51177  1.0000
  C   C155      1.0  0.28008  0.15805  0.51789  1.0000
  C   C156      1.0  0.20835  0.19475  0.63817  1.0000
  C   C157      1.0  0.35061  0.12964  0.44422  1.0000
  C   C158      1.0  0.06304  0.25726  0.88607  1.0000
  C   C159      1.0  0.27008  0.12950  0.85499  1.0000
  H   H132      1.0  0.17368  0.07815  0.72662  1.0000
  S   S22       1.0  0.16212  0.03125  0.68095  1.0000
  H   H133      1.0  0.03312  0.05450  0.80970  1.0000
  C   C160      1.0  0.28234  0.21825  0.68946  1.0000
  C   C161      1.0  0.48347  0.14170  0.45341  1.0000
  H   H134      1.0  0.04178  0.05390  0.46847  1.0000
  H   H135      1.0  0.27991  0.12748  0.66620  1.0000
  H   H136      1.0  0.08908  0.18382  0.87562  1.0000
  C   C162      1.0  0.35516  0.19706  0.82635  1.0000
  C   C163      1.0  0.49101  0.05435  0.75819  1.0000
  C   C164      1.0  0.14416  0.07162  0.78283  1.0000
  C   C165      1.0  0.42268  0.21878  0.51351  1.0000
  H   H137      1.0  0.30935  0.04655  0.69138  1.0000
  C   C166      1.0  0.30823  0.16373  0.44663  1.0000
  C   C167      1.0  0.38894  0.04029  0.84613  1.0000
  H   H138      1.0  0.01276  0.24286  0.65636  1.0000
  C   C168      1.0  0.33713  0.03386  0.42610  1.0000
  S   S23       1.0  0.12744  0.23292  0.74874  1.0000
  H   H139      1.0  0.35463  0.07021  0.52831  1.0000
  C   C169      1.0  0.20347  0.03766  0.54024  1.0000
  C   C170      1.0  0.43284  0.21107  0.47853  1.0000
  C   C171      1.0  0.47024  0.09450  0.68564  1.0000
  H   H140      1.0  0.01149  0.11388  0.82575  1.0000
  H   H141      1.0  0.41982  0.15854  0.41310  1.0000
  C   C172      1.0  0.45133  0.01980  0.79231  1.0000
  S   S24       1.0  0.34925  0.14530  0.58922  1.0000
  S   S25       1.0  0.07474  0.22401  0.85254  1.0000
  H   H142      1.0  0.07429  0.23204  0.62674  1.0000
  H   H143      1.0  0.03881  0.11211  0.87084  1.0000
  C   C173      1.0  0.44054  0.26016  0.46254  1.0000
  H   H144      1.0  0.32771  0.19116  0.74376  1.0000
  H   H145      1.0  0.32536  0.04834  0.86333  1.0000
  S   S26       1.0  0.41419  0.03150  0.68659  1.0000
  C   C174      1.0  0.00736  0.09758  0.76895  1.0000
  H   H146      1.0  0.45640  0.17796  0.70000  1.0000
  C   C175      1.0  0.07883  0.09332  0.82440  1.0000
  C   C176      1.0  0.41962  0.23241  0.68193  1.0000
  C   C177      1.0  0.27413  0.21478  0.84423  1.0000
  H   H147      1.0  0.21622  0.02944  0.59620  1.0000
  C   C178      1.0  0.24847  0.05552  0.67760  1.0000
  C   C179      1.0  0.25930  0.12164  0.61908  1.0000
  H   H148      1.0  0.46453  0.05631  0.40918  1.0000
  C   C180      1.0  0.08126  0.09511  0.72829  1.0000
  C   C181      1.0  0.23219  0.09349  0.86765  1.0000
  C   C182      1.0  0.27158  0.04113  0.49836  1.0000
  C   C183      1.0  0.22139  0.05653  0.74356  1.0000
  H   H149      1.0  0.29553  0.13641  0.40922  1.0000
  H   H150      1.0  0.41678  0.25430  0.77671  1.0000
  Fe  Fe14      1.0  0.11709  0.19652  0.73073  1.0000
  H   H151      1.0  0.47741  0.14336  0.42353  1.0000
  C   C184      1.0  0.35259  0.26466  0.63871  1.0000
  P   P8        1.0  0.20279  0.22932  0.57809  1.0000
  H   H152      1.0  0.13250  0.02404  0.62026  1.0000
  C   C185      1.0  0.14049  0.16659  0.59413  1.0000
  C   C186      1.0  0.40278  0.11897  0.53777  1.0000
  C   C187      1.0  0.32591  0.04758  0.69452  1.0000
  C   C188      1.0  0.14747  0.24294  0.41308  1.0000
  H   H153      1.0  0.18300  0.21582  0.77397  1.0000
  C   C189      1.0  0.40692  0.11282  0.71525  1.0000
  C   C190      1.0  0.47091  0.18957  0.53213  1.0000
  C   C191      1.0  0.05306  0.24954  0.81677  1.0000
  S   S27       1.0  0.38247  0.04613  0.49750  1.0000
  C   C192      1.0  0.27612  0.01927  0.77915  1.0000
  S   S28       1.0  0.32911  0.14552  0.69558  1.0000
  C   C193      1.0  0.49144  0.23009  0.47721  1.0000
  C   C194      1.0  0.20793  0.17801  0.83656  1.0000
  C   C195      1.0  0.32645  0.04783  0.44207  1.0000
  S   S29       1.0  0.26894  0.18983  0.42621  1.0000
  H   H154      1.0  0.30658  0.11235  0.79159  1.0000
  H   H155      1.0  0.04454  0.09678  0.45858  1.0000
  C   C196      1.0  0.28115  0.07644  0.40874  1.0000
  C   C197      1.0  0.32053  0.06174  0.84808  1.0000
  H   H156      1.0  0.30536  0.01936  0.60143  1.0000
  H   H157      1.0  0.27891  0.09445  0.73535  1.0000
  C   C198      1.0  0.14988  0.08955  0.70330  1.0000
  C   C199      1.0  0.03533  0.10660  0.47157  1.0000
  H   H158      1.0  0.35320  0.15383  0.48894  1.0000
  H   H159      1.0  0.27973  0.23417  0.67818  1.0000
  S   S30       1.0  0.11133  0.21035  0.66513  1.0000
  S   S31       1.0  0.28835  0.26074  0.42673  1.0000
  Fe  Fe15      1.0  0.29576  0.22875  0.42040  1.0000
  C   C200      1.0  0.46835  0.22472  0.55428  1.0000
  C   C201      1.0  0.15813  0.21817  0.56946  1.0000
  H   H160      1.0  0.44488  0.12959  0.68893  1.0000
  C   C202      1.0  0.37780  0.24405  0.45256  1.0000
  C   C203      1.0  0.42987  0.16965  0.81280  1.0000
  C   C204      1.0  0.10173  0.18231  0.89212  1.0000
  H   H161      1.0  0.08831  0.03255  0.78512  1.0000
  H   H162      1.0  0.16461  0.23808  0.56023  1.0000
  C   C205      1.0  0.12390  0.23606  0.41415  1.0000
  C   C206      1.0  0.41814  0.23321  0.72745  1.0000
  C   C207      1.0  0.48523  0.07320  0.63831  1.0000
  C   C208      1.0  0.37017  0.05388  0.69996  1.0000
  C   C209      1.0  0.48282  0.24000  0.51026  1.0000
  H   H163      1.0  0.03875  0.03211  0.68170  1.0000
  C   C210      1.0  0.20844  0.24056  0.48340  1.0000
  C   C211      1.0  0.26327  0.12507  0.66088  1.0000
  P   P9        1.0  0.30454  0.03140  0.79015  1.0000
  C   C212      1.0  0.22390  0.12068  0.68969  1.0000
  H   H164      1.0  0.13841  0.18822  0.47919  1.0000
  C   C213      1.0  0.12261  0.07227  0.79583  1.0000
  H   H165      1.0  0.43210  0.07601  0.71675  1.0000
  C   C214      1.0  0.25247  0.20496  0.58112  1.0000
  H   H166      1.0  0.24828  0.12599  0.72933  1.0000
  H   H167      1.0  0.25599  0.11212  0.46610  1.0000
  C   C215      1.0  0.45366  0.17303  0.42579  1.0000
  S   S32       1.0  0.13074  0.13092  0.48517  1.0000
  C   C216      1.0  0.36957  0.21064  0.51706  1.0000
  H   H168      1.0  0.19623  0.01880  0.53675  1.0000
  C   C217      1.0  0.26408  0.08101  0.72732  1.0000
  S   S33       1.0  0.09494  0.09213  0.43824  1.0000
  H   H169      1.0  0.09805  0.06998  0.62366  1.0000
  C   C218      1.0  0.06650  0.24446  0.62538  1.0000
  C   C219      1.0  0.05468  0.04467  0.57447  1.0000
  C   C220      1.0  0.48764  0.11563  0.51447  1.0000
  C   C221      1.0  0.32880  0.04170  0.73789  1.0000
  C   C222      1.0  0.04470  0.20725  0.42275  1.0000
  C   C223      1.0  0.41835  0.25393  0.74124  1.0000
  H   H170      1.0  0.18225  0.09499  0.57222  1.0000
  C   C224      1.0  0.41931  0.16740  0.72970  1.0000
  Fe  Fe16      1.0  0.36245  0.14599  0.70573  1.0000
  H   H171      1.0  0.38111  0.21126  0.44568  1.0000
  H   H172      1.0  0.20853  0.09964  0.83420  1.0000
  C   C225      1.0  0.34181  0.13685  0.48170  1.0000
  C   C226      1.0  0.26292  0.13630  0.51166  1.0000
  H   H173      1.0  0.45018  0.11821  0.76417  1.0000
  H   H174      1.0  0.23131  0.24594  0.70069  1.0000
  C   C227      1.0  0.26872  0.12862  0.47216  1.0000
  C   C228      1.0  0.43243  0.11273  0.76212  1.0000
  H   H175      1.0  0.42176  0.25101  0.61526  1.0000
  H   H176      1.0  0.31607  0.18784  0.49136  1.0000
  C   C229      1.0  0.08632  0.12019  0.72066  1.0000
  C   C230      1.0  0.26791  0.07240  0.68845  1.0000
  H   H177      1.0  0.41814  0.24913  0.53244  1.0000
  H   H178      1.0  0.14790  0.03941  0.53509  1.0000
  C   C231      1.0  0.03598  0.04445  0.55904  1.0000
  Fe  Fe17      1.0  0.41376  0.02051  0.62064  1.0000
  C   C232      1.0  0.10998  0.24947  0.53081  1.0000
  H   H179      1.0  0.16315  0.14894  0.70137  1.0000
  H   H180      1.0  0.11167  0.06384  0.83135  1.0000
  S   S34       1.0  0.35237  0.20956  0.60749  1.0000
  C   C233      1.0  0.11449  0.04631  0.62766  1.0000
  C   C234      1.0  0.45089  0.25257  0.42714  1.0000
  H   H181      1.0  0.21313  0.16570  0.85455  1.0000
  C   C235      1.0  0.01043  0.10224  0.72155  1.0000
  C   C236      1.0  0.15876  0.14778  0.73774  1.0000
  H   H182      1.0  0.43370  0.17010  0.84522  1.0000
  C   C237      1.0  0.00787  0.24386  0.54592  1.0000
  H   H183      1.0  0.14651  0.24613  0.86743  1.0000
  H   H184      1.0  0.27295  0.12125  0.59282  1.0000
  P   P10       1.0  0.06356  0.25419  0.43939  1.0000
  C   C238      1.0  0.32968  0.19163  0.77754  1.0000
  C   C239      1.0  0.00538  0.12024  0.47102  1.0000
  C   C240      1.0  0.42126  0.25226  0.65012  1.0000
  C   C241      1.0  0.33643  0.19281  0.86395  1.0000
  C   C242      1.0  0.02866  0.04809  0.45051  1.0000
  C   C243      1.0  0.25355  0.25502  0.74491  1.0000
  C   C244      1.0  0.03032  0.13228  0.52082  1.0000
  H   H185      1.0  0.36619  0.19939  0.75415  1.0000
  H   H186      1.0  0.47741  0.24933  0.88282  1.0000
  H   H187      1.0  0.22292  0.23985  0.87102  1.0000
  H   H188      1.0  0.26847  0.24298  0.87045  1.0000
  C   C245      1.0  0.06288  0.24501  0.85126  1.0000
  C   C246      1.0  0.46414  0.11471  0.84078  1.0000
  H   H189      1.0  0.46156  0.13106  0.83581  1.0000
  C   C247      1.0  0.25795  0.02371  0.80243  1.0000
  C   C248      1.0  0.44481  0.09093  0.85052  1.0000
  C   C249      1.0  0.03180  0.25054  0.64252  1.0000
  H   H190      1.0  0.18001  0.24797  0.72635  1.0000
  C   C250      1.0  0.09169  0.09743  0.85627  1.0000
  H   H191      1.0  0.33788  0.24599  0.65288  1.0000
  H   H192      1.0  0.37213  0.20022  0.83085  1.0000
  H   H193      1.0  0.15020  0.06410  0.80858  1.0000
  C   C251      1.0  0.18808  0.20361  0.83846  1.0000
  C   C252      1.0  0.24471  0.19035  0.41150  1.0000
  C   C253      1.0  0.31424  0.18777  0.85855  1.0000
  H   H194      1.0  0.10690  0.09431  0.85276  1.0000
  H   H195      1.0  0.37735  0.25379  0.65709  1.0000
  H   H196      1.0  0.49182  0.03687  0.58793  1.0000
  H   H197      1.0  0.47420  0.05670  0.85952  1.0000
  C   C254      1.0  0.00052  0.22476  0.76323  1.0000
  C   C255      1.0  0.01754  0.02188  0.55872  1.0000
  H   H198      1.0  0.14217  0.14182  0.86872  1.0000
  H   H199      1.0  0.01239  0.24360  0.74201  1.0000
  H   H200      1.0  0.43399  0.05134  0.86624  1.0000
  C   C256      1.0  0.32481  0.08277  0.86456  1.0000
  C   C257      1.0  0.25201  0.02140  0.49281  1.0000
  C   C258      1.0  0.20214  0.26271  0.80073  1.0000
  C   C259      1.0  0.39246  0.11306  0.89459  1.0000
  H   H201      1.0  0.26110  0.05471  0.88586  1.0000
  C   C260      1.0  0.24922  0.17263  0.89223  1.0000
  H   H202      1.0  0.16265  0.26108  0.48129  1.0000
  S   S35       1.0  0.11316  0.15219  0.40533  1.0000
  C   C261      1.0  0.03622  0.05658  0.40245  1.0000
  H   H203      1.0  0.34274  0.10256  0.40529  1.0000
  Fe  Fe18      1.0  0.34893  0.26036  0.40271  1.0000
  H   H204      1.0  0.33263  0.08540  0.89234  1.0000
  H   H205      1.0  0.43089  0.24327  0.87269  1.0000
  C   C262      1.0  0.49097  0.01867  0.47136  1.0000
  C   C263      1.0  0.42140  0.25165  0.89083  1.0000
  H   H206      1.0  0.42075  0.11775  0.39671  1.0000
  H   H207      1.0  0.11949  0.24899  0.39600  1.0000
  H   H208      1.0  0.48215  0.26540  0.95104  1.0000
  C   C264      1.0  0.01971  0.04953  0.37811  1.0000
  C   C265      1.0  0.40110  0.06291  0.28495  1.0000
  C   C266      1.0  0.17349  0.22753  0.95595  1.0000
  H   H209      1.0  0.36817  0.06712  0.10946  1.0000
  C   C267      1.0  0.42001  0.10763  0.93112  1.0000
  H   H210      1.0  0.48934  0.10329  0.03568  1.0000
  H   H211      1.0  0.29074  0.21316  0.32072  1.0000
  H   H212      1.0  0.45080  0.14299  0.24975  1.0000
  H   H213      1.0  0.12552  0.08248  0.33962  1.0000
  H   H214      1.0  0.30787  0.13945  0.14261  1.0000
  H   H215      1.0  0.17398  0.08712  0.11149  1.0000
  C   C268      1.0  0.35373  0.17071  0.99255  1.0000
  C   C269      1.0  0.38714  0.12511  0.92697  1.0000
  H   H216      1.0  0.43252  0.10067  0.93387  1.0000
  H   H217      1.0  0.99819  0.22642  0.13412  1.0000
  H   H218      1.0  0.30912  0.22226  0.17375  1.0000
  H   H219      1.0  0.47917  0.21466  0.30036  1.0000
  Fe  Fe19      1.0  0.05024  0.20244  0.17564  1.0000
  H   H220      1.0  0.11669  0.26002  0.04530  1.0000
  H   H221      1.0  0.38181  0.11103  0.38894  1.0000
  H   H222      1.0  0.03320  0.02641  0.03297  1.0000
  C   C270      1.0  0.22309  0.04170  0.15764  1.0000
  H   H223      1.0  0.21392  0.18051  0.31772  1.0000
  H   H224      1.0  0.43618  0.18456  0.33230  1.0000
  C   C271      1.0  0.31595  0.15707  0.15093  1.0000
  H   H225      1.0  0.09772  0.11224  0.21041  1.0000
  H   H226      1.0  0.34132  0.04574  0.95312  1.0000
  C   C272      1.0  0.30132  0.21527  0.24822  1.0000
  C   C273      1.0  0.28980  0.03778  0.02496  1.0000
  S   S36       1.0  0.49238  0.08101  0.95973  1.0000
  C   C274      1.0  0.30437  0.04008  0.38697  1.0000
  C   C275      1.0  0.22655  0.21416  0.38318  1.0000
  H   H227      1.0  0.13213  0.04537  0.34751  1.0000
  H   H228      1.0  0.37067  0.19124  0.35405  1.0000
  C   C276      1.0  0.40291  0.04685  0.04934  1.0000
  C   C277      1.0  0.24656  0.21295  0.38996  1.0000
  H   H229      1.0  0.35892  0.18602  0.96323  1.0000
  H   H230      1.0  0.41158  0.13542  0.24156  1.0000
  C   C278      1.0  0.22974  0.26281  0.28492  1.0000
  C   C279      1.0  0.01750  0.12677  0.30569  1.0000
  C   C280      1.0  0.08885  0.05944  0.15012  1.0000
  H   H231      1.0  0.39223  0.07461  0.03086  1.0000
  C   C281      1.0  0.17288  0.05355  0.09800  1.0000
  S   S37       1.0  0.03528  0.22797  0.19189  1.0000
  H   H232      1.0  0.25494  0.09895  0.32067  1.0000
  H   H233      1.0  0.28819  0.06011  0.07283  1.0000
  C   C282      1.0  0.35832  0.19068  0.33506  1.0000
  H   H234      1.0  0.44850  0.14108  0.16742  1.0000
  C   C283      1.0  0.21323  0.15844  0.22266  1.0000
  H   H235      1.0  0.08099  0.22181  0.95653  1.0000
  C   C284      1.0  0.47203  0.20309  0.33547  1.0000
  C   C285      1.0  0.00289  0.23135  0.33090  1.0000
  C   C286      1.0  0.48710  0.20483  0.36256  1.0000
  H   H236      1.0  0.36820  0.22961  0.32500  1.0000
  H   H237      1.0  0.02546  0.05647  0.34113  1.0000
  C   C287      1.0  0.09445  0.13785  0.09336  1.0000
  C   C288      1.0  0.06615  0.12161  0.17024  1.0000
  S   S38       1.0  0.28182  0.08582  0.21033  1.0000
  C   C289      1.0  0.32299  0.13368  0.05087  1.0000
  H   H238      1.0  0.01056  0.16062  0.93947  1.0000
  H   H239      1.0  0.41341  0.20918  0.07802  1.0000
  Fe  Fe20      1.0  0.35147  0.06574  0.19910  1.0000
  P   P11       1.0  0.43544  0.05595  0.22720  1.0000
  H   H240      1.0  0.23902  0.17881  0.15545  1.0000
  C   C290      1.0  0.03360  0.08243  0.02003  1.0000
  H   H241      1.0  0.00472  0.22694  0.90518  1.0000
  H   H242      1.0  0.15126  0.06748  0.19461  1.0000
  C   C291      1.0  0.06377  0.04240  0.27578  1.0000
  H   H243      1.0  0.28660  0.26453  0.94207  1.0000
  C   C292      1.0  0.03931  0.04583  0.03180  1.0000
  H   H244      1.0  0.03568  0.08499  0.13579  1.0000
  S   S39       1.0  0.03362  0.17445  0.13803  1.0000
  C   C293      1.0  0.17576  0.10539  0.24875  1.0000
  C   C294      1.0  0.06375  0.19678  0.35879  1.0000
  S   S40       1.0  0.32640  0.25016  0.35647  1.0000
  C   C295      1.0  0.14331  0.13206  0.14555  1.0000
  S   S41       1.0  0.13054  0.11371  0.96435  1.0000
  C   C296      1.0  0.20918  0.24828  0.97750  1.0000
  C   C297      1.0  0.01298  0.24968  0.02440  1.0000
  H   H245      1.0  0.18873  0.22136  0.20281  1.0000
  P   P12       1.0  0.30407  0.18705  0.25792  1.0000
  H   H246      1.0  0.43954  0.19024  0.03849  1.0000
  H   H247      1.0  0.15564  0.24931  0.12216  1.0000
  H   H248      1.0  0.09755  0.18540  0.20828  1.0000
  Fe  Fe21      1.0  0.15492  0.12843  0.00628  1.0000
  H   H249      1.0  0.34506  0.15161  0.33902  1.0000
  H   H250      1.0  0.44086  0.19146  0.21093  1.0000
  H   H251      1.0  0.29797  0.01929  0.97460  1.0000
  H   H252      1.0  0.10472  0.13489  0.06456  1.0000
  S   S42       1.0  0.01783  0.09710  0.00223  1.0000
  C   C298      1.0  0.02537  0.05707  0.02330  1.0000
  C   C299      1.0  0.25011  0.04075  0.91822  1.0000
  C   C300      1.0  0.41462  0.11965  0.96345  1.0000
  H   H253      1.0  0.26240  0.11621  0.14818  1.0000
  C   C301      1.0  0.23491  0.13179  0.30010  1.0000
  C   C302      1.0  0.22326  0.20331  0.06982  1.0000
  C   C303      1.0  0.26242  0.09338  0.34566  1.0000
  H   H254      1.0  0.08657  0.09595  0.03943  1.0000
  H   H255      1.0  0.05461  0.12150  0.36421  1.0000
  C   C304      1.0  0.18452  0.23756  0.98769  1.0000
  H   H256      1.0  0.05503  0.05502  0.14486  1.0000
  C   C305      1.0  0.16357  0.06278  0.28894  1.0000
  C   C306      1.0  0.38961  0.06502  0.32653  1.0000
  H   H257      1.0  0.09598  0.22686  0.31100  1.0000
  C   C307      1.0  0.20015  0.24133  0.19186  1.0000
  C   C308      1.0  0.23882  0.18142  0.92472  1.0000
  S   S43       1.0  0.34543  0.12555  0.20103  1.0000
  H   H258      1.0  0.22134  0.06631  0.10287  1.0000
  C   C309      1.0  0.05181  0.01810  0.94510  1.0000
  S   S44       1.0  0.35708  0.03232  0.19544  1.0000
  C   C310      1.0  0.42546  0.05114  0.32229  1.0000
  H   H259      1.0  0.20120  0.22720  0.28918  1.0000
  C   C311      1.0  0.22075  0.18348  0.05058  1.0000
  C   C312      1.0  0.29947  0.05668  0.04654  1.0000
  H   H260      1.0  0.06999  0.25356  0.91349  1.0000
  C   C313      1.0  0.09366  0.16513  0.93475  1.0000
  C   C314      1.0  0.15617  0.10445  0.28009  1.0000
  C   C315      1.0  0.02029  0.07327  0.16531  1.0000
  H   H261      1.0  0.16577  0.04622  0.29139  1.0000
  C   C316      1.0  0.09603  0.23703  0.96109  1.0000
  C   C317      1.0  0.05015  0.10862  0.30389  1.0000
  H   H262      1.0  0.09673  0.07926  0.14543  1.0000
  C   C318      1.0  0.39796  0.25281  0.96167  1.0000
  H   H263      1.0  0.38914  0.24520  0.99842  1.0000
  S   S45       1.0  0.18481  0.12484  0.96215  1.0000
  C   C319      1.0  0.09664  0.16151  0.09189  1.0000
  C   C320      1.0  0.10999  0.16248  0.95505  1.0000
  H   H264      1.0  0.09478  0.10881  0.91844  1.0000
  H   H265      1.0  0.15440  0.21981  0.96427  1.0000
  H   H266      1.0  0.06069  0.11747  0.92797  1.0000
  H   H267      1.0  0.00746  0.12709  0.12236  1.0000
  C   C321      1.0  0.23956  0.20035  0.25072  1.0000
  C   C322      1.0  0.06343  0.07938  0.23589  1.0000
  H   H268      1.0  0.09133  0.14288  0.23822  1.0000
  P   P13       1.0  0.25825  0.01718  0.04212  1.0000
  C   C323      1.0  0.24885  0.11992  0.13876  1.0000
  H   H269      1.0  0.14676  0.17581  0.95024  1.0000
  C   C324      1.0  0.22570  0.02656  0.92599  1.0000
  H   H270      1.0  0.43932  0.04588  0.32152  1.0000
  C   C325      1.0  0.46913  0.23656  0.91690  1.0000
  C   C326      1.0  0.14150  0.15306  0.15325  1.0000
  S   S46       1.0  0.15067  0.13000  0.37890  1.0000
  H   H271      1.0  0.13196  0.12037  0.12842  1.0000
  Fe  Fe22      1.0  0.07290  0.25797  0.16210  1.0000
  C   C327      1.0  0.35683  0.21225  0.31890  1.0000
  H   H272      1.0  0.23752  0.21318  0.94274  1.0000
  S   S47       1.0  0.08757  0.23296  0.14153  1.0000
  Fe  Fe23      1.0  0.45493  0.05051  0.99474  1.0000
  C   C328      1.0  0.15206  0.01708  0.16383  1.0000
  H   H273      1.0  0.15508  0.18488  0.18002  1.0000
  H   H274      1.0  0.09815  0.04646  0.27725  1.0000
  H   H275      1.0  0.12869  0.15753  0.14246  1.0000
  C   C329      1.0  0.46068  0.22917  0.99995  1.0000
  C   C330      1.0  0.32967  0.04869  0.97932  1.0000
  C   C331      1.0  0.47611  0.08582  0.34814  1.0000
  H   H276      1.0  0.37435  0.13188  0.92557  1.0000
  H   H277      1.0  0.25896  0.09317  0.89799  1.0000
  C   C332      1.0  0.41990  0.02597  0.21707  1.0000
  H   H278      1.0  0.45036  0.02195  0.26946  1.0000
  H   H279      1.0  0.22817  0.23173  0.36652  1.0000
  H   H280      1.0  0.43873  0.13366  0.09591  1.0000
  H   H281      1.0  0.49208  0.11460  0.28517  1.0000
  C   C333      1.0  0.45150  0.21344  0.14105  1.0000
  C   C334      1.0  0.43863  0.11895  0.12019  1.0000
  C   C335      1.0  0.29538  0.08961  0.36317  1.0000
  C   C336      1.0  0.43701  0.24332  0.33461  1.0000
  S   S48       1.0  0.46664  0.13920  0.32957  1.0000
  H   H282      1.0  0.48439  0.09713  0.18240  1.0000
  Fe  Fe24      1.0  0.11834  0.07631  0.01133  1.0000
  C   C337      1.0  0.41976  0.20560  0.10667  1.0000
  C   C338      1.0  0.06949  0.08513  0.03506  1.0000
  C   C339      1.0  0.21942  0.18009  0.28235  1.0000
  H   H283      1.0  0.19355  0.08382  0.22896  1.0000
  C   C340      1.0  0.47857  0.06813  0.37739  1.0000
  C   C341      1.0  0.44404  0.21815  0.10270  1.0000
  C   C342      1.0  0.44780  0.18633  0.35353  1.0000
  H   H284      1.0  0.21774  0.02920  0.89946  1.0000
  P   P14       1.0  0.46463  0.24110  0.04941  1.0000
  H   H285      1.0  0.99944  0.05606  0.12272  1.0000
  P   P15       1.0  0.19507  0.13323  0.20218  1.0000
  H   H286      1.0  0.33433  0.11800  0.10121  1.0000
  C   C343      1.0  0.43171  0.01902  0.18267  1.0000
  H   H287      1.0  0.27846  0.05078  0.28890  1.0000
  H   H288      1.0  0.06417  0.18321  0.34033  1.0000
  H   H289      1.0  0.34620  0.21975  0.18097  1.0000
  C   C344      1.0  0.10715  0.18221  0.23093  1.0000
  C   C345      1.0  0.07917  0.11803  0.13210  1.0000
  H   H290      1.0  0.14748  0.21302  0.28312  1.0000
  C   C346      1.0  0.39034  0.06008  0.05814  1.0000
  H   H291      1.0  0.41145  0.21990  0.30544  1.0000
  H   H292      1.0  0.43475  0.17482  0.97051  1.0000
  C   C347      1.0  0.12286  0.20207  0.24371  1.0000
  C   C348      1.0  0.22951  0.02314  0.16896  1.0000
  H   H293      1.0  0.26333  0.22959  0.37919  1.0000
  H   H294      1.0  0.22836  0.12616  0.04745  1.0000
  H   H295      1.0  0.03226  0.04366  0.26847  1.0000
  C   C349      1.0  0.17352  0.16328  0.18709  1.0000
  C   C350      1.0  0.31651  0.18241  0.20432  1.0000
  H   H296      1.0  0.05487  0.06890  0.38407  1.0000
  S   S49       1.0  0.05622  0.19520  0.24419  1.0000
  C   C351      1.0  0.02063  0.07488  0.21023  1.0000
  C   C352      1.0  0.26967  0.15567  0.34076  1.0000
  H   H297      1.0  0.00245  0.21186  0.02122  1.0000
  C   C353      1.0  0.10051  0.08061  0.24161  1.0000
  C   C354      1.0  0.22287  0.24902  0.93543  1.0000
  C   C355      1.0  0.39411  0.12326  0.31466  1.0000
  C   C356      1.0  0.14433  0.06215  0.32024  1.0000
  H   H298      1.0  0.16034  0.10945  0.15505  1.0000
  H   H299      1.0  0.31164  0.01883  0.34203  1.0000
  C   C357      1.0  0.30544  0.22889  0.20356  1.0000
  C   C358      1.0  0.40341  0.18787  0.14740  1.0000
  C   C359      1.0  0.48518  0.08125  0.20090  1.0000
  H   H300      1.0  0.18479  0.17563  0.20341  1.0000
  C   C360      1.0  0.39629  0.06062  0.36575  1.0000
  C   C361      1.0  0.14060  0.08298  0.31575  1.0000
  C   C362      1.0  0.99678  0.22444  0.03446  1.0000
  C   C363      1.0  0.09361  0.02235  0.15803  1.0000
  C   C364      1.0  0.99990  0.05963  0.24722  1.0000
  H   H301      1.0  0.41084  0.22604  0.95685  1.0000
  H   H302      1.0  0.27902  0.04939  0.94643  1.0000
  C   C365      1.0  0.34010  0.13199  0.06985  1.0000
  Fe  Fe25      1.0  0.35874  0.10687  0.24732  1.0000
  C   C366      1.0  0.43577  0.13612  0.28003  1.0000
  H   H303      1.0  0.01392  0.11478  0.24425  1.0000
  C   C367      1.0  0.11369  0.25563  0.92265  1.0000
  C   C368      1.0  0.08809  0.09255  0.22718  1.0000
  H   H304      1.0  0.31362  0.09303  0.35165  1.0000
  C   C369      1.0  0.17537  0.14204  0.17984  1.0000
  H   H305      1.0  0.05632  0.03748  0.93257  1.0000
  H   H306      1.0  0.38762  0.05450  0.94921  1.0000
  C   C370      1.0  0.15654  0.16860  0.17412  1.0000
  H   H307      1.0  0.17378  0.24960  0.22911  1.0000
  C   C371      1.0  0.25828  0.06525  0.25903  1.0000
  C   C372      1.0  0.30510  0.03390  0.99128  1.0000
  C   C373      1.0  0.29905  0.26023  0.23443  1.0000
  C   C374      1.0  0.34053  0.21143  0.29521  1.0000
  C   C375      1.0  0.13432  0.17799  0.93407  1.0000
  C   C376      1.0  0.14661  0.03112  0.19159  1.0000
  C   C377      1.0  0.05629  0.02039  0.15354  1.0000
  H   H308      1.0  0.00492  0.13394  0.30660  1.0000
  H   H309      1.0  0.19049  0.14406  0.29345  1.0000
  S   S50       1.0  0.48687  0.19238  0.21615  1.0000
  H   H310      1.0  0.43733  0.25822  0.00138  1.0000
  P   P16       1.0  0.04738  0.09572  0.22102  1.0000
  H   H311      1.0  0.39375  0.13728  0.98682  1.0000
  S   S51       1.0  0.15657  0.16167  0.03017  1.0000
  C   C378      1.0  0.99891  0.12656  0.15694  1.0000
  H   H312      1.0  0.99950  0.06078  0.28207  1.0000
  H   H313      1.0  0.44943  0.03215  0.16040  1.0000
  S   S52       1.0  0.08023  0.25567  0.23011  1.0000
  C   C379      1.0  0.06553  0.04579  0.15010  1.0000
  C   C380      1.0  0.05526  0.09628  0.02766  1.0000
  C   C381      1.0  0.08840  0.05554  0.26582  1.0000
  C   C382      1.0  0.34368  0.16829  0.32715  1.0000
  C   C383      1.0  0.21702  0.04813  0.30308  1.0000
  C   C384      1.0  0.34693  0.19975  0.13006  1.0000
  C   C385      1.0  0.38505  0.02251  0.12938  1.0000
  H   H314      1.0  0.17393  0.23666  0.02060  1.0000
  S   S53       1.0  0.10874  0.12315  0.30428  1.0000
  C   C386      1.0  0.43785  0.08076  0.18374  1.0000
  C   C387      1.0  0.08166  0.22145  0.34214  1.0000
  C   C388      1.0  0.24530  0.20663  0.91652  1.0000
  C   C389      1.0  0.33590  0.17739  0.11879  1.0000
  C   C390      1.0  0.32526  0.18885  0.28845  1.0000
  H   H315      1.0  0.22992  0.23896  0.15135  1.0000
  H   H316      1.0  0.14198  0.17068  0.31133  1.0000
  C   C391      1.0  0.24229  0.03414  0.33217  1.0000
  C   C392      1.0  0.33920  0.06707  0.00160  1.0000
  H   H317      1.0  0.05833  0.14905  0.19647  1.0000
  C   C393      1.0  0.99695  0.14684  0.21812  1.0000
  H   H318      1.0  0.08318  0.22466  0.03521  1.0000
  C   C394      1.0  0.40003  0.02780  0.08490  1.0000
  C   C395      1.0  0.38327  0.04378  0.92456  1.0000
  C   C396      1.0  0.22961  0.12543  0.34794  1.0000
  S   S54       1.0  0.14037  0.09148  0.05667  1.0000
  H   H319      1.0  0.42973  0.09293  0.07902  1.0000
  H   H320      1.0  0.07724  0.09982  0.13192  1.0000
  C   C397      1.0  0.05132  0.05411  0.26027  1.0000
  C   C398      1.0  0.44536  0.24323  0.25421  1.0000
  C   C399      1.0  0.24731  0.12107  0.09404  1.0000
  C   C400      1.0  0.08109  0.23908  0.36556  1.0000
  C   C401      1.0  0.36704  0.01840  0.94067  1.0000
  H   H321      1.0  0.21512  0.04779  0.18451  1.0000
  S   S55       1.0  0.08043  0.04675  0.03903  1.0000
  S   S56       1.0  0.28246  0.20359  0.97825  1.0000
  C   C402      1.0  0.19172  0.25719  0.20682  1.0000
  C   C403      1.0  0.24656  0.19974  0.20504  1.0000
  H   H322      1.0  0.38482  0.17788  0.14956  1.0000
  H   H323      1.0  0.02552  0.13774  0.36562  1.0000
  C   C404      1.0  0.15982  0.12627  0.15964  1.0000
  C   C405      1.0  0.43302  0.07690  0.14248  1.0000
  H   H324      1.0  0.08424  0.02666  0.96198  1.0000
  H   H325      1.0  0.17029  0.23329  0.33799  1.0000
  H   H326      1.0  0.15183  0.25669  0.04406  1.0000
  C   C406      1.0  0.44382  0.10414  0.19217  1.0000
  C   C407      1.0  0.15544  0.05662  0.17316  1.0000
  H   H327      1.0  0.42427  0.23630  0.36868  1.0000
  C   C408      1.0  0.32966  0.15335  0.01295  1.0000
  C   C409      1.0  0.08347  0.16527  0.12926  1.0000
  S   S57       1.0  0.34004  0.22829  0.96214  1.0000
  C   C410      1.0  0.46620  0.03904  0.24953  1.0000
  C   C411      1.0  0.06599  0.11119  0.89880  1.0000
  S   S58       1.0  0.46096  0.02264  0.96259  1.0000
  H   H328      1.0  0.44797  0.10754  0.22349  1.0000
  Fe  Fe26      1.0  0.30774  0.19236  0.00136  1.0000
  C   C412      1.0  0.20605  0.24447  0.29915  1.0000
  H   H329      1.0  0.06140  0.11578  0.02598  1.0000
  C   C413      1.0  0.29390  0.24629  0.27889  1.0000
  C   C414      1.0  0.42955  0.23409  0.29875  1.0000
  H   H330      1.0  0.20660  0.22476  0.09388  1.0000
  H   H331      1.0  0.29128  0.14327  0.21853  1.0000
  C   C415      1.0  0.18198  0.17709  0.04652  1.0000
  C   C416      1.0  0.22968  0.12551  0.08205  1.0000
  C   C417      1.0  0.37647  0.05569  0.10292  1.0000
  S   S59       1.0  0.31082  0.25608  0.00297  1.0000
  C   C418      1.0  0.44406  0.12310  0.16064  1.0000
  H   H332      1.0  0.19749  0.15412  0.02675  1.0000
  Fe  Fe27      1.0  0.04386  0.22312  0.25820  1.0000
  C   C419      1.0  0.41105  0.18265  0.18482  1.0000
  H   H333      1.0  0.19982  0.04715  0.30682  1.0000
  H   H334      1.0  0.10851  0.17687  0.06179  1.0000
  C   C420      1.0  0.16816  0.06771  0.12626  1.0000
  C   C421      1.0  0.37102  0.16826  0.01045  1.0000
  S   S60       1.0  0.46213  0.03870  0.05975  1.0000
  H   H335      1.0  0.30441  0.12049  0.06723  1.0000
  C   C422      1.0  0.29478  0.22376  0.28591  1.0000
  H   H336      1.0  0.43955  0.23598  0.22656  1.0000
  H   H337      1.0  0.49114  0.21557  0.07366  1.0000
  C   C423      1.0  0.28594  0.09783  0.33167  1.0000
  H   H338      1.0  0.07477  0.15368  0.95181  1.0000
  S   S61       1.0  0.32839  0.06879  0.26057  1.0000
  S   S62       1.0  0.33669  0.08054  0.15009  1.0000
  C   C424      1.0  0.46859  0.26189  0.24532  1.0000
  H   H339      1.0  0.28966  0.25329  0.30786  1.0000
  Fe  Fe28      1.0  0.09231  0.22830  0.21152  1.0000
  C   C425      1.0  0.32725  0.16741  0.30386  1.0000
  C   C426      1.0  0.02916  0.12894  0.33915  1.0000
  H   H340      1.0  0.09538  0.25798  0.35237  1.0000
  C   C427      1.0  0.99960  0.05675  0.15764  1.0000
  H   H341      1.0  0.36249  0.21539  0.10514  1.0000
  H   H342      1.0  0.39834  0.16861  0.21618  1.0000
  H   H343      1.0  0.29122  0.04163  0.37220  1.0000
  H   H344      1.0  0.28260  0.16520  0.35744  1.0000
  S   S63       1.0  0.12608  0.23192  0.22473  1.0000
  C   C428      1.0  0.06828  0.14545  0.16827  1.0000
  C   C429      1.0  0.18715  0.22802  0.91370  1.0000
  S   S64       1.0  0.30750  0.15662  0.99350  1.0000
  H   H345      1.0  0.47998  0.17734  0.01395  1.0000
  C   C430      1.0  0.23688  0.04431  0.07691  1.0000
  H   H346      1.0  0.48966  0.02431  0.26190  1.0000
  H   H347      1.0  0.00847  0.04617  0.01828  1.0000
  C   C431      1.0  0.21502  0.12789  0.15965  1.0000
  S   S65       1.0  0.24919  0.22029  0.08331  1.0000
  C   C432      1.0  0.43347  0.09599  0.11080  1.0000
  Fe  Fe29      1.0  0.33339  0.24082  0.02625  1.0000
  H   H348      1.0  0.23972  0.05302  0.04149  1.0000
  C   C433      1.0  0.04540  0.11973  0.33842  1.0000
  C   C434      1.0  0.20615  0.15930  0.26838  1.0000
  C   C435      1.0  0.09738  0.23858  0.00526  1.0000
  C   C436      1.0  0.27524  0.16207  0.29259  1.0000
  C   C437      1.0  0.41354  0.13173  0.27541  1.0000
  H   H349      1.0  0.16909  0.01726  0.09550  1.0000
  C   C438      1.0  0.23615  0.06440  0.26433  1.0000
  H   H350      1.0  0.08477  0.18349  0.12794  1.0000
  H   H351      1.0  0.22129  0.12246  0.28469  1.0000
  C   C439      1.0  0.37383  0.03702  0.13885  1.0000
  C   C440      1.0  0.00806  0.14760  0.17342  1.0000
  C   C441      1.0  0.13559  0.19790  0.27237  1.0000
  C   C442      1.0  0.03926  0.10728  0.26899  1.0000
  C   C443      1.0  0.10369  0.15810  0.24778  1.0000
  C   C444      1.0  0.32410  0.07120  0.03486  1.0000
  H   H352      1.0  0.26181  0.21559  0.17990  1.0000
  C   C445      1.0  0.36415  0.14905  0.04971  1.0000
  C   C446      1.0  0.41376  0.05309  0.36395  1.0000
  H   H353      1.0  0.15278  0.12029  0.27679  1.0000
  C   C447      1.0  0.46437  0.05941  0.22693  1.0000
  C   C448      1.0  0.41014  0.24195  0.93821  1.0000
  C   C449      1.0  0.30459  0.25144  0.19673  1.0000
  C   C450      1.0  0.39677  0.11818  0.35838  1.0000
  C   C451      1.0  0.22333  0.25127  0.16285  1.0000
  C   C452      1.0  0.45579  0.21106  0.92219  1.0000
  H   H354      1.0  0.05443  0.02326  0.29621  1.0000
  H   H355      1.0  0.37589  0.07067  0.32805  1.0000
  C   C453      1.0  0.48842  0.04029  0.24538  1.0000
  H   H356      1.0  0.34289  0.17601  0.08503  1.0000
  S   S66       1.0  0.42275  0.05528  0.99417  1.0000
  H   H357      1.0  0.33992  0.22839  0.28230  1.0000
  H   H358      1.0  0.46024  0.08800  0.35702  1.0000
  C   C454      1.0  0.41957  0.05659  0.28221  1.0000
  C   C455      1.0  0.25744  0.15053  0.27249  1.0000
  C   C456      1.0  0.26027  0.03760  0.95277  1.0000
  C   C457      1.0  0.11560  0.15371  0.27805  1.0000
  H   H359      1.0  0.35826  0.07802  0.99341  1.0000
  H   H360      1.0  0.24380  0.15292  0.90047  1.0000
  C   C458      1.0  0.16541  0.02832  0.11713  1.0000
  C   C459      1.0  0.19987  0.17006  0.03979  1.0000
  C   C460      1.0  0.21372  0.12908  0.11457  1.0000
  S   S67       1.0  0.38539  0.14687  0.07457  1.0000
  C   C461      1.0  0.26141  0.05016  0.29290  1.0000
  C   C462      1.0  0.23356  0.17881  0.19116  1.0000
  C   C463      1.0  0.44508  0.19459  0.96619  1.0000
  H   H361      1.0  0.06275  0.10165  0.30403  1.0000
  C   C464      1.0  0.24602  0.02016  0.99549  1.0000
  H   H362      1.0  0.22620  0.16872  0.95700  1.0000
  H   H363      1.0  0.23373  0.07612  0.23825  1.0000
  C   C465      1.0  0.18850  0.24794  0.32734  1.0000
  S   S68       1.0  0.36654  0.11917  0.30968  1.0000
  H   H364      1.0  0.29655  0.10680  0.29590  1.0000
  C   C466      1.0  0.43847  0.13143  0.32372  1.0000
  C   C467      1.0  0.00709  0.24990  0.29303  1.0000
  H   H365      1.0  0.38957  0.18155  0.99479  1.0000
  C   C468      1.0  0.22000  0.03282  0.33665  1.0000
  H   H366      1.0  0.31615  0.15004  0.29758  1.0000
  H   H367      1.0  0.23441  0.12257  0.20564  1.0000
  C   C469      1.0  0.22667  0.05218  0.11164  1.0000
  H   H368      1.0  0.00737  0.26273  0.93552  1.0000
  C   C470      1.0  0.11673  0.25837  0.01087  1.0000
  C   C471      1.0  0.48656  0.16984  0.94766  1.0000
  C   C472      1.0  0.02252  0.11593  0.27076  1.0000
  C   C473      1.0  0.17932  0.08429  0.25339  1.0000
  S   S69       1.0  0.18714  0.06721  0.03855  1.0000
  Fe  Fe30      1.0  0.11511  0.12280  0.37257  1.0000
  H   H369      1.0  0.42277  0.12168  0.99085  1.0000
  S   S70       1.0  0.14524  0.06891  0.96725  1.0000
  H   H370      1.0  0.17006  0.20141  0.07348  1.0000
  C   C474      1.0  0.24833  0.08087  0.39127  1.0000
  C   C475      1.0  0.20488  0.20964  0.07847  1.0000
  H   H371      1.0  0.24958  0.21651  0.26165  1.0000
  H   H372      1.0  0.21765  0.25572  0.00246  1.0000
  C   C476      1.0  0.24317  0.02543  0.08796  1.0000
  C   C477      1.0  0.44767  0.20352  0.00491  1.0000
  H   H373      1.0  0.10382  0.14852  0.98718  1.0000
  H   H374      1.0  0.23465  0.17811  0.04506  1.0000
  H   H375      1.0  0.26090  0.15615  0.23563  1.0000
  H   H376      1.0  0.33151  0.08557  0.05192  1.0000
  C   C478      1.0  0.10265  0.04771  0.15465  1.0000
  C   C479      1.0  0.39816  0.12832  0.96140  1.0000
  C   C480      1.0  0.13209  0.17378  0.28921  1.0000
  H   H377      1.0  0.02108  0.25466  0.26188  1.0000
  H   H378      1.0  0.11947  0.09106  0.23533  1.0000
  H   H379      1.0  0.24198  0.25738  0.92759  1.0000
  S   S71       1.0  0.38265  0.10286  0.18874  1.0000
  C   C481      1.0  0.30638  0.15943  0.19390  1.0000
  H   H380      1.0  0.46988  0.22348  0.13992  1.0000
  H   H381      1.0  0.39581  0.06665  0.25476  1.0000
  Fe  Fe31      1.0  0.31667  0.08736  0.20997  1.0000
  C   C482      1.0  0.23289  0.12348  0.17129  1.0000
  C   C483      1.0  0.47168  0.24560  0.95559  1.0000
  H   H382      1.0  0.42864  0.05920  0.13477  1.0000
  Fe  Fe32      1.0  0.31448  0.24025  0.94279  1.0000
  C   C484      1.0  0.24704  0.13736  0.36819  1.0000
  S   S72       1.0  0.36184  0.26111  0.05767  1.0000
  Fe  Fe33      1.0  0.36637  0.11807  0.14325  1.0000
  C   C485      1.0  0.46052  0.26168  0.32615  1.0000
  H   H383      1.0  0.00390  0.16310  0.23095  1.0000
  Fe  Fe34      1.0  0.15930  0.10768  0.92345  1.0000
  H   H384      1.0  0.46826  0.15621  0.95383  1.0000
  H   H385      1.0  0.12066  0.05870  0.15384  1.0000
  S   S73       1.0  0.01997  0.21576  0.32851  1.0000
  Fe  Fe35      1.0  0.16833  0.08647  0.00977  1.0000
  C   C486      1.0  0.41881  0.12177  0.36286  1.0000
  H   H386      1.0  0.20055  0.13286  0.10408  1.0000
  Fe  Fe36      1.0  0.28039  0.21849  0.04027  1.0000
  S   S74       1.0  0.30270  0.20380  0.06724  1.0000
  C   C487      1.0  0.33750  0.20215  0.17293  1.0000
  C   C488      1.0  0.31559  0.02670  0.37028  1.0000
  S   S75       1.0  0.00506  0.05078  0.92224  1.0000
  H   H387      1.0  0.03080  0.25612  0.00246  1.0000
  C   C489      1.0  0.06174  0.06008  0.03583  1.0000
  H   H388      1.0  0.48008  0.13721  0.04833  1.0000
  C   C490      1.0  0.43505  0.19551  0.18172  1.0000
  C   C491      1.0  0.18434  0.19665  0.06648  1.0000
  H   H389      1.0  0.25980  0.11853  0.06863  1.0000
  C   C492      1.0  0.00595  0.26608  0.04215  1.0000
  C   C493      1.0  0.49315  0.18174  0.98144  1.0000
  Fe  Fe37      1.0  0.49352  0.16706  0.26485  1.0000
  H   H390      1.0  0.41854  0.04941  0.39482  1.0000
  H   H391      1.0  0.24453  0.02214  0.35802  1.0000
  Fe  Fe38      1.0  0.99441  0.07201  0.96790  1.0000
  H   H392      1.0  0.21196  0.11138  0.36931  1.0000
  H   H393      1.0  0.24327  0.25991  0.26340  1.0000
  C   C494      1.0  0.40898  0.10419  0.89634  1.0000
  H   H394      1.0  0.19344  0.18575  0.89803  1.0000
  H   H395      1.0  0.30829  0.26206  0.16211  1.0000
  S   S76       1.0  0.38102  0.25461  0.39453  1.0000
  C   C495      1.0  0.33186  0.02347  0.38999  1.0000
  H   H396      1.0  0.40929  0.01716  0.07823  1.0000
  H   H397      1.0  0.33883  0.19283  0.89770  1.0000
  C   C496      1.0  0.21195  0.23883  0.90370  1.0000
  P   P17       1.0  0.01460  0.45022  0.77306  1.0000
  S   S77       1.0  0.01075  0.33968  0.79114  1.0000
  H   H398      1.0  0.99486  0.46213  0.54399  1.0000
  H   H399      1.0  0.17442  0.34820  0.44628  1.0000
  C   C497      1.0  0.17596  0.28028  0.46642  1.0000
  C   C498      1.0  0.48307  0.39978  0.41715  1.0000
  C   C499      1.0  0.33354  0.35286  0.53576  1.0000
  C   C500      1.0  0.11798  0.27139  0.49677  1.0000
  H   H400      1.0  0.31611  0.38995  0.64689  1.0000
  C   C501      1.0  0.30758  0.41513  0.41408  1.0000
  C   C502      1.0  0.46116  0.41067  0.81123  1.0000
  H   H401      1.0  0.12501  0.34683  0.73885  1.0000
  C   C503      1.0  0.48483  0.36938  0.79568  1.0000
  C   C504      1.0  0.13549  0.43965  0.49053  1.0000
  H   H402      1.0  0.36175  0.34277  0.64501  1.0000
  H   H403      1.0  0.49059  0.32718  0.44699  1.0000
  H   H404      1.0  0.41868  0.47760  0.75366  1.0000
  H   H405      1.0  0.12758  0.44139  0.59925  1.0000
  C   C505      1.0  0.20355  0.31865  0.47796  1.0000
  C   C506      1.0  0.43921  0.31379  0.52618  1.0000
  S   S78       1.0  0.35824  0.45975  0.87083  1.0000
  H   H406      1.0  0.38254  0.38860  0.62880  1.0000
  H   H407      1.0  0.06306  0.49149  0.73670  1.0000
  C   C507      1.0  0.23098  0.32229  0.87134  1.0000
  C   C508      1.0  0.28562  0.41405  0.41558  1.0000
  H   H408      1.0  0.35666  0.28577  0.72670  1.0000
  C   C509      1.0  0.20288  0.28950  0.62167  1.0000
  C   C510      1.0  0.18583  0.29395  0.49583  1.0000
  H   H409      1.0  0.31726  0.49325  0.49901  1.0000
  H   H410      1.0  0.04967  0.47273  0.81921  1.0000
  C   C511      1.0  0.46452  0.47121  0.77868  1.0000
  C   C512      1.0  0.42435  0.40046  0.77110  1.0000
  H   H411      1.0  0.12958  0.29742  0.78843  1.0000
  Fe  Fe39      1.0  0.02061  0.34211  0.71596  1.0000
  C   C513      1.0  0.36936  0.27176  0.77756  1.0000
  H   H412      1.0  0.30642  0.31179  0.45832  1.0000
  H   H413      1.0  0.48676  0.36295  0.86492  1.0000
  Fe  Fe40      1.0  0.37209  0.40182  0.77664  1.0000
  C   C514      1.0  0.17553  0.33859  0.69416  1.0000
  H   H414      1.0  0.21458  0.28425  0.86942  1.0000
  C   C515      1.0  0.27348  0.32672  0.58564  1.0000
  C   C516      1.0  0.17545  0.46399  0.43813  1.0000
  C   C517      1.0  0.20089  0.48992  0.87917  1.0000
  H   H415      1.0  0.23579  0.46489  0.82445  1.0000
  H   H416      1.0  0.11117  0.28981  0.44143  1.0000
  H   H417      1.0  0.27495  0.30997  0.59561  1.0000
  C   C518      1.0  0.20617  0.27445  0.59402  1.0000
  H   H418      1.0  0.31867  0.45502  0.61048  1.0000
  C   C519      1.0  0.31950  0.34844  0.46928  1.0000
  H   H419      1.0  0.34345  0.43780  0.41291  1.0000
  C   C520      1.0  0.10422  0.27295  0.46846  1.0000
  C   C521      1.0  0.01344  0.41643  0.62368  1.0000
  H   H420      1.0  0.11606  0.41162  0.78767  1.0000
  C   C522      1.0  0.01011  0.43200  0.64988  1.0000
  H   H421      1.0  0.48791  0.47840  0.54587  1.0000
  C   C523      1.0  0.11310  0.46445  0.41399  1.0000
  C   C524      1.0  0.15643  0.33349  0.51919  1.0000
  H   H422      1.0  0.48409  0.42101  0.74214  1.0000
  H   H423      1.0  0.03948  0.42780  0.40669  1.0000
  H   H424      1.0  0.27120  0.39713  0.41427  1.0000
  H   H425      1.0  0.26601  0.43477  0.41580  1.0000
  C   C525      1.0  0.47671  0.31927  0.47961  1.0000
  C   C526      1.0  0.38169  0.27732  0.80986  1.0000
  Fe  Fe41      1.0  0.37709  0.41675  0.46992  1.0000
  C   C527      1.0  0.99868  0.40729  0.59675  1.0000
  C   C528      1.0  0.32578  0.37934  0.64675  1.0000
  H   H426      1.0  0.00132  0.39526  0.57631  1.0000
  H   H427      1.0  0.03801  0.28829  0.62959  1.0000
  C   C529      1.0  0.09939  0.32941  0.63855  1.0000
  H   H428      1.0  0.09295  0.34489  0.41286  1.0000
  C   C530      1.0  0.21222  0.29820  0.88405  1.0000
  C   C531      1.0  0.06519  0.42993  0.72474  1.0000
  H   H429      1.0  0.04053  0.39157  0.83316  1.0000
  S   S79       1.0  0.44556  0.45095  0.43931  1.0000
  C   C532      1.0  0.11534  0.49993  0.58602  1.0000
  C   C533      1.0  0.09510  0.44015  0.43648  1.0000
  C   C534      1.0  0.03296  0.48254  0.87459  1.0000
  C   C535      1.0  0.39469  0.29306  0.62089  1.0000
  H   H430      1.0  0.06904  0.36398  0.72056  1.0000
  C   C536      1.0  0.03519  0.43785  0.76980  1.0000
  C   C537      1.0  0.08107  0.27020  0.60921  1.0000
  H   H431      1.0  0.27653  0.39040  0.53870  1.0000
  C   C538      1.0  0.45216  0.33878  0.86122  1.0000
  C   C539      1.0  0.47488  0.36378  0.63533  1.0000
  H   H432      1.0  0.24312  0.35901  0.88114  1.0000
  S   S80       1.0  0.33793  0.39512  0.48215  1.0000
  C   C540      1.0  0.32976  0.36337  0.49677  1.0000
  C   C541      1.0  0.41714  0.45882  0.81963  1.0000
  H   H433      1.0  0.28302  0.34154  0.40328  1.0000
  C   C542      1.0  0.11607  0.32751  0.54421  1.0000
  H   H434      1.0  0.15556  0.40189  0.44902  1.0000
  S   S81       1.0  0.04447  0.37854  0.66261  1.0000
  C   C543      1.0  0.08309  0.37901  0.82612  1.0000
  S   S82       1.0  0.30780  0.28061  0.53449  1.0000
  H   H435      1.0  0.19567  0.31354  0.76339  1.0000
  C   C544      1.0  0.07201  0.46972  0.57253  1.0000
  C   C545      1.0  0.06128  0.41167  0.76278  1.0000
  H   H436      1.0  0.22441  0.34921  0.41715  1.0000
  H   H437      1.0  0.33461  0.43903  0.49340  1.0000
  H   H438      1.0  0.21174  0.32900  0.50056  1.0000
  H   H439      1.0  0.35954  0.41206  0.62993  1.0000
  H   H440      1.0  0.26859  0.35953  0.49285  1.0000
  C   C546      1.0  0.36135  0.48875  0.79109  1.0000
  C   C547      1.0  0.17470  0.50703  0.54320  1.0000
  C   C548      1.0  0.12184  0.48238  0.68355  1.0000
  H   H441      1.0  0.14010  0.35069  0.42758  1.0000
  C   C549      1.0  0.08049  0.40568  0.89175  1.0000
  H   H442      1.0  0.29410  0.42547  0.75724  1.0000
  Fe  Fe42      1.0  0.01595  0.30570  0.80000  1.0000
  H   H443      1.0  0.14522  0.37551  0.66027  1.0000
  H   H444      1.0  0.07178  0.29616  0.69103  1.0000
  C   C550      1.0  0.41008  0.46139  0.61866  1.0000
  H   H445      1.0  0.27579  0.48215  0.76821  1.0000
  C   C551      1.0  0.08032  0.30527  0.42407  1.0000
  C   C552      1.0  0.42836  0.47194  0.77324  1.0000
  Fe  Fe43      1.0  0.41963  0.41349  0.48772  1.0000
  C   C553      1.0  0.44253  0.30311  0.56587  1.0000
  C   C554      1.0  0.18311  0.29148  0.41891  1.0000
  C   C555      1.0  0.13881  0.34361  0.46291  1.0000
  C   C556      1.0  0.22288  0.45213  0.42680  1.0000
  C   C557      1.0  0.48986  0.47068  0.65095  1.0000
  H   H446      1.0  0.07919  0.30225  0.46015  1.0000
  C   C558      1.0  0.27041  0.30487  0.69764  1.0000
  C   C559      1.0  0.48633  0.37750  0.48453  1.0000
  H   H447      1.0  0.09553  0.34466  0.88935  1.0000
  Fe  Fe44      1.0  0.31398  0.27038  0.46774  1.0000
  C   C560      1.0  0.09103  0.41314  0.62681  1.0000
  C   C561      1.0  0.39104  0.31228  0.59905  1.0000
  H   H448      1.0  0.37216  0.27406  0.47047  1.0000
  C   C562      1.0  0.25860  0.48162  0.43983  1.0000
  C   C563      1.0  0.44462  0.48205  0.66244  1.0000
  C   C564      1.0  0.35413  0.47939  0.47674  1.0000
  H   H449      1.0  0.02746  0.41140  0.62431  1.0000
  H   H450      1.0  0.37345  0.32850  0.73742  1.0000
  H   H451      1.0  0.28667  0.46676  0.61514  1.0000
  C   C565      1.0  0.24350  0.47528  0.41249  1.0000
  H   H452      1.0  0.45236  0.46909  0.51997  1.0000
  H   H453      1.0  0.29131  0.31353  0.74485  1.0000
  C   C566      1.0  0.40752  0.28265  0.89006  1.0000
  C   C567      1.0  0.48414  0.50027  0.87410  1.0000
  H   H454      1.0  0.99459  0.47599  0.72060  1.0000
  C   C568      1.0  0.42537  0.33843  0.65943  1.0000
  C   C569      1.0  0.24006  0.26907  0.50768  1.0000
  C   C570      1.0  0.20792  0.28645  0.77569  1.0000
  C   C571      1.0  0.05927  0.32423  0.54305  1.0000
  H   H455      1.0  0.00275  0.40126  0.75317  1.0000
  C   C572      1.0  0.35853  0.50509  0.85736  1.0000
  H   H456      1.0  0.46315  0.45337  0.84512  1.0000
  H   H457      1.0  0.39526  0.33851  0.79378  1.0000
  H   H458      1.0  0.17976  0.28533  0.53256  1.0000
  C   C573      1.0  0.44686  0.34422  0.78555  1.0000
  H   H459      1.0  0.47327  0.45819  0.64665  1.0000
  C   C574      1.0  0.24755  0.37079  0.76577  1.0000
  C   C575      1.0  0.43864  0.32781  0.63818  1.0000
  C   C576      1.0  0.46152  0.37460  0.65472  1.0000
  H   H460      1.0  0.27462  0.49939  0.42802  1.0000
  C   C577      1.0  0.03304  0.47129  0.83852  1.0000
  C   C578      1.0  0.07403  0.33484  0.56959  1.0000
  C   C579      1.0  0.36545  0.47086  0.55847  1.0000
  C   C580      1.0  0.44087  0.49757  0.63040  1.0000
  H   H461      1.0  0.32848  0.31892  0.57890  1.0000
  C   C581      1.0  0.48388  0.49321  0.53466  1.0000
  C   C582      1.0  0.01348  0.48762  0.71122  1.0000
  Fe  Fe45      1.0  0.17791  0.38140  0.76437  1.0000
  H   H462      1.0  0.45910  0.36751  0.54810  1.0000
  H   H463      1.0  0.20654  0.30824  0.60610  1.0000
  S   S83       1.0  0.31814  0.41417  0.81653  1.0000
  C   C583      1.0  0.14385  0.46873  0.72487  1.0000
  H   H464      1.0  0.15997  0.37574  0.88980  1.0000
  C   C584      1.0  0.46265  0.29943  0.56133  1.0000
  C   C585      1.0  0.03140  0.41952  0.80783  1.0000
  C   C586      1.0  0.39181  0.30160  0.81508  1.0000
  H   H465      1.0  0.11984  0.43867  0.51320  1.0000
  S   S84       1.0  0.14356  0.28336  0.63656  1.0000
  H   H466      1.0  0.45289  0.40681  0.42868  1.0000
  H   H467      1.0  0.04396  0.36966  0.51526  1.0000
  C   C587      1.0  0.27479  0.37226  0.55255  1.0000
  H   H468      1.0  0.11879  0.27510  0.73057  1.0000
  S   S85       1.0  0.28862  0.34321  0.87796  1.0000
  H   H469      1.0  0.42056  0.28996  0.72055  1.0000
  C   C588      1.0  0.28261  0.43513  0.41693  1.0000
  C   C589      1.0  0.06702  0.37062  0.55648  1.0000
  C   C590      1.0  0.25102  0.28437  0.46270  1.0000
  C   C591      1.0  0.27354  0.43991  0.72868  1.0000
  H   H470      1.0  0.34523  0.43188  0.56357  1.0000
  C   C592      1.0  0.23255  0.44211  0.49657  1.0000
  H   H471      1.0  0.13486  0.28721  0.49242  1.0000
  H   H472      1.0  0.12909  0.36469  0.59649  1.0000
  S   S86       1.0  0.03502  0.30185  0.85092  1.0000
  C   C593      1.0  0.33747  0.50917  0.42672  1.0000
  H   H473      1.0  0.19145  0.35628  0.68425  1.0000
  C   C594      1.0  0.42046  0.27406  0.70933  1.0000
  C   C595      1.0  0.09680  0.32013  0.71959  1.0000
  C   C596      1.0  0.46607  0.41413  0.76359  1.0000
  C   C597      1.0  0.07780  0.35812  0.57624  1.0000
  C   C598      1.0  0.27021  0.27414  0.75761  1.0000
  C   C599      1.0  0.11769  0.34221  0.71104  1.0000
  H   H474      1.0  0.43410  0.39991  0.87529  1.0000
  H   H475      1.0  0.42091  0.44178  0.88151  1.0000
  H   H476      1.0  0.08907  0.36673  0.59650  1.0000
  H   H477      1.0  0.02158  0.43908  0.67058  1.0000
  C   C600      1.0  0.35165  0.45079  0.54354  1.0000
  S   S87       1.0  0.40163  0.39361  0.74521  1.0000
  S   S88       1.0  0.33397  0.43532  0.67906  1.0000
  H   H478      1.0  0.05480  0.45622  0.69758  1.0000
  C   C601      1.0  0.11484  0.42456  0.62584  1.0000
  Fe  Fe46      1.0  0.35327  0.43145  0.82966  1.0000
  C   C602      1.0  0.36855  0.30751  0.59600  1.0000
  C   C603      1.0  0.21054  0.33008  0.43101  1.0000
  H   H479      1.0  0.30480  0.47417  0.87856  1.0000
  C   C604      1.0  0.09621  0.42000  0.42212  1.0000
  H   H480      1.0  0.15496  0.47970  0.47219  1.0000
  C   C605      1.0  0.26947  0.33207  0.54347  1.0000
  C   C606      1.0  0.24750  0.35123  0.70308  1.0000
  H   H481      1.0  0.27549  0.37577  0.79637  1.0000
  C   C607      1.0  0.19125  0.29513  0.78257  1.0000
  C   C608      1.0  0.09266  0.46905  0.55064  1.0000
  H   H482      1.0  0.07817  0.43378  0.69248  1.0000
  C   C609      1.0  0.27810  0.36668  0.59537  1.0000
  C   C610      1.0  0.13043  0.50599  0.88185  1.0000
  H   H483      1.0  0.31022  0.48690  0.79572  1.0000
  C   C611      1.0  0.27329  0.47634  0.80473  1.0000
  C   C612      1.0  0.17561  0.44220  0.42992  1.0000
  H   H484      1.0  0.42931  0.27968  0.83028  1.0000
  C   C613      1.0  0.30892  0.43995  0.68360  1.0000
  H   H485      1.0  0.10013  0.27738  0.59824  1.0000
  H   H486      1.0  0.36779  0.51319  0.72690  1.0000
  C   C614      1.0  0.31651  0.31248  0.52005  1.0000
  H   H487      1.0  0.40570  0.33094  0.58341  1.0000
  P   P18       1.0  0.34688  0.48553  0.42421  1.0000
  S   S89       1.0  0.35367  0.39513  0.85133  1.0000
  C   C615      1.0  0.04544  0.27978  0.85019  1.0000
  C   C616      1.0  0.13902  0.48909  0.89092  1.0000
  H   H488      1.0  0.40305  0.42586  0.65882  1.0000
  C   C617      1.0  0.36500  0.51094  0.76327  1.0000
  H   H489      1.0  0.38422  0.51058  0.54462  1.0000
  H   H490      1.0  0.22365  0.49912  0.69918  1.0000
  C   C618      1.0  0.19367  0.28001  0.66937  1.0000
  C   C619      1.0  0.31695  0.30069  0.83247  1.0000
  C   C620      1.0  0.47960  0.30740  0.51830  1.0000
  H   H491      1.0  0.07115  0.40139  0.75979  1.0000
  H   H492      1.0  0.10505  0.48121  0.68198  1.0000
  C   C621      1.0  0.46351  0.34039  0.62741  1.0000
  H   H493      1.0  0.04598  0.42656  0.88883  1.0000
  C   C622      1.0  0.26767  0.36898  0.77027  1.0000
  H   H494      1.0  0.39716  0.45340  0.60101  1.0000
  H   H495      1.0  0.22545  0.29838  0.75176  1.0000
  C   C623      1.0  0.05234  0.35994  0.53026  1.0000
  C   C624      1.0  0.06349  0.36841  0.86553  1.0000
  H   H496      1.0  0.05551  0.45847  0.56627  1.0000
  H   H497      1.0  0.32870  0.30159  0.80105  1.0000
  H   H498      1.0  0.29866  0.47317  0.41862  1.0000
  C   C625      1.0  0.36338  0.37878  0.63665  1.0000
  S   S90       1.0  0.17027  0.34190  0.78342  1.0000
  C   C626      1.0  0.25260  0.28556  0.68703  1.0000
  H   H499      1.0  0.42416  0.31713  0.52788  1.0000
  C   C627      1.0  0.07102  0.28634  0.60894  1.0000
  C   C628      1.0  0.38856  0.31991  0.78886  1.0000
  C   C629      1.0  0.47576  0.35732  0.84265  1.0000
  Fe  Fe47      1.0  0.21429  0.43557  0.72859  1.0000
  H   H500      1.0  0.23923  0.34419  0.67767  1.0000
  H   H501      1.0  0.10359  0.33839  0.48905  1.0000
  C   C630      1.0  0.45625  0.32188  0.48341  1.0000
  H   H502      1.0  0.29331  0.35710  0.74519  1.0000
  H   H503      1.0  0.00550  0.49505  0.47506  1.0000
  H   H504      1.0  0.26075  0.50888  0.71817  1.0000
  C   C631      1.0  0.32640  0.43714  0.41482  1.0000
  C   C632      1.0  0.04624  0.27631  0.62681  1.0000
  H   H505      1.0  0.20020  0.49830  0.50360  1.0000
  H   H506      1.0  0.24450  0.28947  0.66181  1.0000
  C   C633      1.0  0.18754  0.46954  0.86395  1.0000
  C   C634      1.0  0.10629  0.49741  0.88739  1.0000
  H   H507      1.0  0.43612  0.33960  0.76270  1.0000
  H   H508      1.0  0.15931  0.51167  0.75375  1.0000
  H   H509      1.0  0.26481  0.47004  0.50311  1.0000
  P   P19       1.0  0.42419  0.29908  0.62244  1.0000
  C   C635      1.0  0.07290  0.48559  0.60092  1.0000
  H   H510      1.0  0.14426  0.45715  0.75437  1.0000
  C   C636      1.0  0.43786  0.40219  0.83866  1.0000
  S   S91       1.0  0.19488  0.40753  0.69373  1.0000
  C   C637      1.0  0.41948  0.39736  0.81857  1.0000
  H   H511      1.0  0.03713  0.32847  0.50309  1.0000
  H   H512      1.0  0.46603  0.29171  0.59132  1.0000
  C   C638      1.0  0.13478  0.29259  0.72012  1.0000
  C   C639      1.0  0.43736  0.33252  0.83298  1.0000
  C   C640      1.0  0.05458  0.27470  0.88528  1.0000
  C   C641      1.0  0.37614  0.31427  0.75683  1.0000
  C   C642      1.0  0.27782  0.35847  0.74105  1.0000
  H   H513      1.0  0.26731  0.31924  0.52230  1.0000
  C   C643      1.0  0.08796  0.32932  0.39763  1.0000
  H   H514      1.0  0.08542  0.42139  0.60139  1.0000
  C   C644      1.0  0.12232  0.46716  0.72144  1.0000
  H   H515      1.0  0.23979  0.37916  0.78810  1.0000
  H   H516      1.0  0.19083  0.48202  0.42130  1.0000
  P   P20       1.0  0.08978  0.31966  0.59053  1.0000
  S   S92       1.0  0.11143  0.48942  0.43237  1.0000
  C   C645      1.0  0.14940  0.30219  0.67450  1.0000
  S   S93       1.0  0.19966  0.40852  0.79806  1.0000
  C   C646      1.0  0.09445  0.50059  0.60768  1.0000
  C   C647      1.0  0.11793  0.33641  0.49810  1.0000
  P   P21       1.0  0.28189  0.33725  0.66794  1.0000
  H   H517      1.0  0.31656  0.35651  0.43908  1.0000
  H   H518      1.0  0.47770  0.37209  0.73087  1.0000
  C   C648      1.0  0.15812  0.34225  0.47344  1.0000
  H   H519      1.0  0.24770  0.32676  0.84689  1.0000
  H   H520      1.0  0.04942  0.34981  0.87065  1.0000
  H   H521      1.0  0.08799  0.30775  0.75408  1.0000
  C   C649      1.0  0.16899  0.28027  0.81504  1.0000
  H   H522      1.0  0.36955  0.46752  0.59024  1.0000
  H   H523      1.0  0.09205  0.45716  0.52779  1.0000
  S   S94       1.0  0.14726  0.38950  0.78012  1.0000
  S   S95       1.0  0.48435  0.41805  0.83606  1.0000
  H   H524      1.0  0.01763  0.41461  0.83952  1.0000
  H   H525      1.0  0.05700  0.48654  0.61723  1.0000
  S   S96       1.0  0.02830  0.30984  0.72431  1.0000
  C   C650      1.0  0.15531  0.46273  0.46769  1.0000
  C   C651      1.0  0.27844  0.29894  0.73438  1.0000
  C   C652      1.0  0.02765  0.47967  0.73023  1.0000
  S   S97       1.0  0.39526  0.42665  0.52357  1.0000
  H   H526      1.0  0.05637  0.30644  0.53685  1.0000
  C   C653      1.0  0.16949  0.32558  0.66108  1.0000
  C   C654      1.0  0.13571  0.41783  0.48348  1.0000
  H   H527      1.0  0.36080  0.47396  0.77590  1.0000
  C   C655      1.0  0.12917  0.35822  0.66666  1.0000
  H   H528      1.0  0.18078  0.33317  0.62576  1.0000
  C   C656      1.0  0.37347  0.49515  0.53296  1.0000
  Fe  Fe48      1.0  0.33913  0.42013  0.74439  1.0000
  C   C657      1.0  0.45196  0.47768  0.75219  1.0000
  H   H529      1.0  0.47034  0.39296  0.65982  1.0000
  C   C658      1.0  0.32627  0.32724  0.54812  1.0000
  C   C659      1.0  0.42347  0.48719  0.60900  1.0000
  H   H530      1.0  0.42086  0.49913  0.58370  1.0000
  C   C660      1.0  0.46382  0.48797  0.51971  1.0000
  H   H531      1.0  0.11122  0.38512  0.72006  1.0000
  Fe  Fe49      1.0  0.16605  0.41829  0.71215  1.0000
  P   P22       1.0  0.46613  0.49467  0.69239  1.0000
  C   C661      1.0  0.30125  0.45698  0.41866  1.0000
  C   C662      1.0  0.15571  0.41905  0.45344  1.0000
  H   H532      1.0  0.40757  0.51473  0.68768  1.0000
  Fe  Fe50      1.0  0.32004  0.37851  0.83215  1.0000
  H   H533      1.0  0.10614  0.45454  0.74881  1.0000
  C   C663      1.0  0.45832  0.50699  0.50566  1.0000
  C   C664      1.0  0.42210  0.27342  0.66344  1.0000
  H   H534      1.0  0.04062  0.50062  0.50881  1.0000
  C   C665      1.0  0.25073  0.46647  0.83642  1.0000
  C   C666      1.0  0.14088  0.30532  0.75304  1.0000
  S   S98       1.0  0.37437  0.43945  0.75617  1.0000
  C   C667      1.0  0.13551  0.32608  0.55432  1.0000
  H   H535      1.0  0.22817  0.42943  0.52946  1.0000
  C   C668      1.0  0.46226  0.39868  0.44431  1.0000
  C   C669      1.0  0.14297  0.49900  0.64839  1.0000
  H   H536      1.0  0.45144  0.41151  0.70687  1.0000
  C   C670      1.0  0.05187  0.49641  0.72046  1.0000
  C   C671      1.0  0.32307  0.45790  0.41913  1.0000
  C   C672      1.0  0.42971  0.45231  0.84575  1.0000
  C   C673      1.0  0.35046  0.39198  0.63702  1.0000
  H   H537      1.0  0.22174  0.36317  0.72912  1.0000
  C   C674      1.0  0.27028  0.35486  0.52675  1.0000
  S   S99       1.0  0.43342  0.50086  0.48633  1.0000
  C   C675      1.0  0.12218  0.41454  0.65949  1.0000
  C   C676      1.0  0.35906  0.48610  0.83785  1.0000
  S   S100      1.0  0.18659  0.44804  0.74302  1.0000
  H   H538      1.0  0.45408  0.33140  0.45372  1.0000
  S   S101      1.0  0.39985  0.40107  0.43773  1.0000
  H   H539      1.0  0.08036  0.43691  0.46502  1.0000
  H   H540      1.0  0.40152  0.39099  0.83982  1.0000
  H   H541      1.0  0.40624  0.32910  0.66871  1.0000
  C   C677      1.0  0.11988  0.35207  0.63066  1.0000
  H   H542      1.0  0.18768  0.47220  0.82839  1.0000
  C   C678      1.0  0.16495  0.48566  0.69064  1.0000
  C   C679      1.0  0.41361  0.44589  0.65071  1.0000
  H   H543      1.0  0.11451  0.43480  0.84564  1.0000
  C   C680      1.0  0.21746  0.43565  0.46916  1.0000
  C   C681      1.0  0.16457  0.50082  0.65282  1.0000
  S   S102      1.0  0.39935  0.45467  0.42071  1.0000
  H   H544      1.0  0.27681  0.26984  0.78546  1.0000
  C   C682      1.0  0.29231  0.43407  0.72620  1.0000
  C   C683      1.0  0.19996  0.31678  0.40177  1.0000
  C   C684      1.0  0.05206  0.44286  0.72799  1.0000
  H   H545      1.0  0.19004  0.29130  0.69056  1.0000
  C   C685      1.0  0.27195  0.45236  0.68870  1.0000
  H   H546      1.0  0.28209  0.38068  0.61433  1.0000
  C   C686      1.0  0.34930  0.28372  0.61582  1.0000
  C   C687      1.0  0.30619  0.45078  0.64351  1.0000
  H   H547      1.0  0.42636  0.37009  0.68286  1.0000
  H   H548      1.0  0.20137  0.41796  0.48127  1.0000
  C   C688      1.0  0.36788  0.49943  0.49222  1.0000
  C   C689      1.0  0.43065  0.45618  0.67277  1.0000
  C   C690      1.0  0.10108  0.40319  0.81873  1.0000
  H   H549      1.0  0.08093  0.50420  0.49140  1.0000
  H   H550      1.0  0.03683  0.27039  0.78951  1.0000
  P   P23       1.0  0.40672  0.30916  0.85820  1.0000
  S   S103      1.0  0.25179  0.46426  0.69147  1.0000
  S   S104      1.0  0.33844  0.38316  0.75878  1.0000
  C   C691      1.0  0.25313  0.46508  0.48189  1.0000
  C   C692      1.0  0.32274  0.50803  0.46840  1.0000
  H   H551      1.0  0.04934  0.49257  0.88243  1.0000
  H   H552      1.0  0.26773  0.30102  0.45455  1.0000
  C   C693      1.0  0.04846  0.33673  0.52354  1.0000
  H   H553      1.0  0.31841  0.32023  0.66055  1.0000
  H   H554      1.0  0.39888  0.50718  0.40941  1.0000
  H   H555      1.0  0.48268  0.47525  0.76357  1.0000
  C   C694      1.0  0.47055  0.36255  0.76710  1.0000
  C   C695      1.0  0.45346  0.45882  0.82533  1.0000
  H   H556      1.0  0.12026  0.39999  0.50089  1.0000
  H   H557      1.0  0.33613  0.50248  0.61418  1.0000
  C   C696      1.0  0.43676  0.36175  0.66752  1.0000
  H   H558      1.0  0.17133  0.33257  0.52791  1.0000
  C   C697      1.0  0.45402  0.38762  0.49184  1.0000
  C   C698      1.0  0.27695  0.34360  0.61283  1.0000
  H   H559      1.0  0.12991  0.48330  0.53950  1.0000
  C   C699      1.0  0.42028  0.27208  0.86690  1.0000
  H   H560      1.0  0.24853  0.27412  0.53396  1.0000
  C   C700      1.0  0.31377  0.35331  0.65631  1.0000
  C   C701      1.0  0.16151  0.32802  0.74040  1.0000
  C   C702      1.0  0.44763  0.40874  0.74367  1.0000
  C   C703      1.0  0.46578  0.37658  0.51164  1.0000
  C   C704      1.0  0.49176  0.49038  0.67064  1.0000
  C   C705      1.0  0.26814  0.35001  0.70660  1.0000
  C   C706      1.0  0.07442  0.39137  0.66102  1.0000
  H   H561      1.0  0.06982  0.38850  0.56194  1.0000
  H   H562      1.0  0.15627  0.28727  0.82085  1.0000
  H   H563      1.0  0.21215  0.28208  0.55724  1.0000
  H   H564      1.0  0.08236  0.40122  0.43949  1.0000
  H   H565      1.0  0.13468  0.31967  0.58961  1.0000
  C   C707      1.0  0.35163  0.35289  0.64583  1.0000
  C   C708      1.0  0.11426  0.48411  0.55719  1.0000
  C   C709      1.0  0.36668  0.29025  0.75091  1.0000
  C   C710      1.0  0.08766  0.31368  0.68356  1.0000
  C   C711      1.0  0.29267  0.47902  0.82018  1.0000
  C   C712      1.0  0.31359  0.32318  0.48019  1.0000
  C   C713      1.0  0.10560  0.39283  0.69397  1.0000
  C   C714      1.0  0.07391  0.28518  0.40417  1.0000
  S   S105      1.0  0.42967  0.38818  0.52739  1.0000
  H   H566      1.0  0.43296  0.44394  0.69797  1.0000
  C   C715      1.0  0.24747  0.45903  0.88356  1.0000
  H   H567      1.0  0.31621  0.33407  0.80355  1.0000
  S   S106      1.0  0.15229  0.42967  0.65642  1.0000
  C   C716      1.0  0.01230  0.45964  0.82592  1.0000
  Fe  Fe51      1.0  0.17006  0.41854  0.80947  1.0000
  H   H568      1.0  0.47430  0.33261  0.61170  1.0000
  C   C717      1.0  0.19588  0.51294  0.51010  1.0000
  H   H569      1.0  0.36628  0.32226  0.57725  1.0000
  C   C718      1.0  0.34577  0.45499  0.50320  1.0000
  C   C719      1.0  0.33222  0.51366  0.67693  1.0000
  H   H570      1.0  0.08416  0.36853  0.80113  1.0000
  C   C720      1.0  0.08179  0.38088  0.69412  1.0000
  H   H571      1.0  0.33200  0.27988  0.61223  1.0000
  C   C721      1.0  0.23741  0.36182  0.73233  1.0000
  H   H572      1.0  0.09479  0.51259  0.63012  1.0000
  C   C722      1.0  0.31001  0.31925  0.83401  1.0000
  C   C723      1.0  0.32971  0.51293  0.63330  1.0000
  H   H573      1.0  0.16325  0.48782  0.56298  1.0000
  H   H574      1.0  0.18121  0.51369  0.62696  1.0000
  H   H575      1.0  0.34008  0.50327  0.69159  1.0000
  H   H576      1.0  0.44290  0.27886  0.45715  1.0000
  S   S107      1.0  0.34606  0.29512  0.40638  1.0000
  Fe  Fe52      1.0  0.41977  0.46340  0.47142  1.0000
  H   H577      1.0  0.34165  0.36449  0.55670  1.0000
  H   H578      1.0  0.26096  0.43578  0.76167  1.0000
  C   C724      1.0  0.28800  0.45733  0.64609  1.0000
  H   H579      1.0  0.43043  0.50353  0.83922  1.0000
  C   C725      1.0  0.24075  0.27787  0.42807  1.0000
  H   H580      1.0  0.35932  0.37848  0.39938  1.0000
  H   H581      1.0  0.11624  0.49868  0.76821  1.0000
  C   C726      1.0  0.32696  0.34018  0.65519  1.0000
  H   H582      1.0  0.39870  0.45370  0.83537  1.0000
  H   H583      1.0  0.18168  0.48705  0.69329  1.0000
  C   C727      1.0  0.37521  0.26919  0.64081  1.0000
  H   H584      1.0  0.35571  0.50281  0.89381  1.0000
  C   C728      1.0  0.04430  0.40638  0.80425  1.0000
  C   C729      1.0  0.28948  0.47157  0.86724  1.0000
  C   C730      1.0  0.09995  0.41643  0.85155  1.0000
  C   C731      1.0  0.02347  0.51152  0.68189  1.0000
  C   C732      1.0  0.30938  0.28153  0.87193  1.0000
  S   S108      1.0  0.15367  0.42129  0.87853  1.0000
  H   H585      1.0  0.21140  0.50817  0.85519  1.0000
  H   H586      1.0  0.25300  0.51219  0.88085  1.0000
  C   C733      1.0  0.22832  0.34041  0.89071  1.0000
  C   C734      1.0  0.29527  0.31860  0.87483  1.0000
  H   H587      1.0  0.00305  0.51640  0.78981  1.0000
  H   H588      1.0  0.15783  0.49567  0.88572  1.0000
  H   H589      1.0  0.39272  0.51320  0.62015  1.0000
  H   H590      1.0  0.09982  0.51059  0.87922  1.0000
  C   C735      1.0  0.12804  0.51648  0.77177  1.0000
  H   H591      1.0  0.31020  0.39902  0.41173  1.0000
  C   C736      1.0  0.04429  0.26689  0.81625  1.0000
  C   C737      1.0  0.39023  0.32062  0.89432  1.0000
  H   H592      1.0  0.13396  0.31777  0.04360  1.0000
  H   H593      1.0  0.16128  0.42490  0.96598  1.0000
  H   H594      1.0  0.05754  0.48700  0.11926  1.0000
  C   C738      1.0  0.09063  0.47195  0.90226  1.0000
  H   H595      1.0  0.14894  0.46263  0.08871  1.0000
  C   C739      1.0  0.19064  0.29210  0.91588  1.0000
  H   H596      1.0  0.10888  0.38933  0.08177  1.0000
  C   C740      1.0  0.20681  0.33436  0.92292  1.0000
  C   C741      1.0  0.17081  0.28801  0.12133  1.0000
  H   H597      1.0  0.18627  0.46043  0.99199  1.0000
  C   C742      1.0  0.21968  0.40906  0.97260  1.0000
  H   H598      1.0  0.02702  0.27857  0.19160  1.0000
  H   H599      1.0  0.04510  0.40480  0.02900  1.0000
  H   H600      1.0  0.16158  0.37454  0.33008  1.0000
  C   C743      1.0  0.02518  0.45968  0.11179  1.0000
  C   C744      1.0  0.13533  0.27624  0.97225  1.0000
  H   H601      1.0  0.05540  0.47350  0.97897  1.0000
  C   C745      1.0  0.37043  0.30114  0.24168  1.0000
  S   S109      1.0  0.37789  0.46424  0.19672  1.0000
  C   C746      1.0  0.14238  0.36684  0.96220  1.0000
  H   H602      1.0  0.02246  0.44071  0.28070  1.0000
  C   C747      1.0  0.29345  0.27997  0.91209  1.0000
  C   C748      1.0  0.17297  0.44614  0.89537  1.0000
  C   C749      1.0  0.19453  0.26962  0.34259  1.0000
  C   C750      1.0  0.28643  0.29855  0.91357  1.0000
  C   C751      1.0  0.36534  0.30795  0.90778  1.0000
  C   C752      1.0  0.35213  0.31853  0.92880  1.0000
  C   C753      1.0  0.38834  0.35374  0.92636  1.0000
  H   H603      1.0  0.30915  0.40595  0.92418  1.0000
  H   H604      1.0  0.22712  0.40912  0.93767  1.0000
  H   H605      1.0  0.35343  0.34995  0.95324  1.0000
  C   C754      1.0  0.28927  0.42581  0.93914  1.0000
  C   C755      1.0  0.36365  0.34163  0.93732  1.0000
  H   H606      1.0  0.27475  0.29776  0.94510  1.0000
  H   H607      1.0  0.35273  0.38512  0.26376  1.0000
  C   C756      1.0  0.30215  0.41355  0.94950  1.0000
  H   H608      1.0  0.33296  0.30896  0.93801  1.0000
  H   H609      1.0  0.23996  0.32055  0.98622  1.0000
  H   H610      1.0  0.24156  0.36185  0.96537  1.0000
  C   C757      1.0  0.28069  0.43629  0.97133  1.0000
  H   H611      1.0  0.38070  0.43829  0.96455  1.0000
  P   P24       1.0  0.26274  0.45080  0.95992  1.0000
  C   C758      1.0  0.13520  0.35052  0.00543  1.0000
  H   H612      1.0  0.20509  0.34849  0.93818  1.0000
  C   C759      1.0  0.29598  0.35194  0.09147  1.0000
  C   C760      1.0  0.23261  0.42772  0.99182  1.0000
  C   C761      1.0  0.29695  0.42078  0.02512  1.0000
  C   C762      1.0  0.30612  0.41118  0.99232  1.0000
  C   C763      1.0  0.05845  0.38976  0.18881  1.0000
  H   H613      1.0  0.31622  0.40178  0.00003  1.0000
  C   C764      1.0  0.28429  0.43331  0.01471  1.0000
  C   C765      1.0  0.24078  0.33134  0.01127  1.0000
  C   C766      1.0  0.24160  0.35456  0.99944  1.0000
  C   C767      1.0  0.19702  0.39009  0.99847  1.0000
  C   C768      1.0  0.12376  0.35427  0.14951  1.0000
  C   C769      1.0  0.13793  0.32411  0.16359  1.0000
  C   C770      1.0  0.00925  0.51262  0.10185  1.0000
  C   C771      1.0  0.18776  0.31017  0.93540  1.0000
  H   H614      1.0  0.16253  0.48580  0.00663  1.0000
  H   H615      1.0  0.18702  0.37612  0.98305  1.0000
  H   H616      1.0  0.27703  0.44037  0.04079  1.0000
  C   C772      1.0  0.24168  0.32235  0.05489  1.0000
  H   H617      1.0  0.24386  0.38672  0.02199  1.0000
  H   H618      1.0  0.18208  0.33541  0.03281  1.0000
  C   C773      1.0  0.24319  0.36874  0.03114  1.0000
  C   C774      1.0  0.17260  0.44290  0.94149  1.0000
  C   C775      1.0  0.38059  0.34279  0.04225  1.0000
  C   C776      1.0  0.18670  0.46301  0.95625  1.0000
  C   C777      1.0  0.22297  0.42635  0.03804  1.0000
  H   H619      1.0  0.34520  0.33190  0.03807  1.0000
  C   C778      1.0  0.18731  0.38916  0.04410  1.0000
  C   C779      1.0  0.35786  0.32563  0.04341  1.0000
  C   C780      1.0  0.15919  0.27235  0.05814  1.0000
  C   C781      1.0  0.17616  0.31652  0.05183  1.0000
  C   C782      1.0  0.16532  0.29645  0.03363  1.0000
  H   H620      1.0  0.29954  0.41850  0.05880  1.0000
  P   P25       1.0  0.16045  0.30209  0.97842  1.0000
  C   C783      1.0  0.10745  0.33847  0.13078  1.0000
  C   C784      1.0  0.36832  0.29221  0.05393  1.0000
  H   H621      1.0  0.23295  0.43992  0.05434  1.0000
  C   C785      1.0  0.35176  0.30041  0.04914  1.0000
  H   H622      1.0  0.16975  0.37442  0.06429  1.0000
  H   H623      1.0  0.33327  0.37089  0.05273  1.0000
  C   C786      1.0  0.20035  0.40722  0.06393  1.0000
  H   H624      1.0  0.33422  0.28741  0.05003  1.0000
  H   H625      1.0  0.03303  0.46229  0.07574  1.0000
  H   H626      1.0  0.24145  0.30453  0.06304  1.0000
  C   C787      1.0  0.24479  0.36019  0.07419  1.0000
  H   H627      1.0  0.29139  0.36169  0.06620  1.0000
  C   C788      1.0  0.16025  0.34357  0.92794  1.0000
  C   C789      1.0  0.15340  0.32741  0.97157  1.0000
  H   H628      1.0  0.32232  0.46595  0.05084  1.0000
  H   H629      1.0  0.34470  0.46635  0.97411  1.0000
  C   C790      1.0  0.05432  0.41225  0.30776  1.0000
  C   C791      1.0  0.31972  0.35725  0.08366  1.0000
  C   C792      1.0  0.24359  0.33667  0.08684  1.0000
  H   H630      1.0  0.24743  0.37228  0.09702  1.0000
  C   C793      1.0  0.30294  0.33735  0.27859  1.0000
  C   C794      1.0  0.15481  0.36330  0.92343  1.0000
  H   H631      1.0  0.19294  0.40630  0.09956  1.0000
  C   C795      1.0  0.17866  0.31227  0.09569  1.0000
  H   H632      1.0  0.18600  0.32781  0.11017  1.0000
  C   C796      1.0  0.16156  0.26811  0.10220  1.0000
  H   H633      1.0  0.34457  0.34922  0.10966  1.0000
  C   C797      1.0  0.32613  0.34488  0.11564  1.0000
  C   C798      1.0  0.14030  0.33064  0.01001  1.0000
  H   H634      1.0  0.22980  0.41663  0.38771  1.0000
  C   C799      1.0  0.27846  0.33406  0.13137  1.0000
  C   C800      1.0  0.07374  0.28929  0.35818  1.0000
  C   C801      1.0  0.27048  0.47863  0.97946  1.0000
  H   H635      1.0  0.35746  0.43026  0.11085  1.0000
  C   C802      1.0  0.36431  0.41961  0.12859  1.0000
  H   H636      1.0  0.13814  0.38209  0.95864  1.0000
  S   S110      1.0  0.27846  0.43319  0.13840  1.0000
  H   H637      1.0  0.25547  0.28437  0.12404  1.0000
  S   S111      1.0  0.21554  0.51224  0.94564  1.0000
  C   C803      1.0  0.26877  0.47186  0.14715  1.0000
  P   P26       1.0  0.24762  0.32648  0.14107  1.0000
  H   H638      1.0  0.17150  0.28448  0.15626  1.0000
  H   H639      1.0  0.12056  0.29038  0.14398  1.0000
  C   C804      1.0  0.25996  0.44723  0.14410  1.0000
  C   C805      1.0  0.12149  0.30824  0.14532  1.0000
  H   H640      1.0  0.12563  0.35312  0.03560  1.0000
  C   C806      1.0  0.22076  0.44401  0.15496  1.0000
  H   H641      1.0  0.36122  0.30902  0.13753  1.0000
  C   C807      1.0  0.23605  0.43347  0.14727  1.0000
  C   C808      1.0  0.22939  0.29313  0.16268  1.0000
  C   C809      1.0  0.23783  0.27707  0.14780  1.0000
  S   S112      1.0  0.15566  0.42849  0.15421  1.0000
  C   C810      1.0  0.23892  0.34194  0.18140  1.0000
  C   C811      1.0  0.28513  0.32184  0.16353  1.0000
  H   H642      1.0  0.35658  0.27603  0.20099  1.0000
  H   H643      1.0  0.22913  0.41438  0.14526  1.0000
  C   C812      1.0  0.10600  0.31526  0.12970  1.0000
  C   C813      1.0  0.13873  0.34685  0.16642  1.0000
  C   C814      1.0  0.22942  0.46853  0.15850  1.0000
  C   C815      1.0  0.30890  0.32723  0.15550  1.0000
  H   H644      1.0  0.12445  0.37194  0.15166  1.0000
  C   C816      1.0  0.37908  0.32569  0.24496  1.0000
  H   H645      1.0  0.20682  0.33628  0.16418  1.0000
  H   H646      1.0  0.20222  0.43303  0.15845  1.0000
  Fe  Fe53      1.0  0.12162  0.42537  0.19747  1.0000
  C   C817      1.0  0.10236  0.41794  0.04836  1.0000
  C   C818      1.0  0.34939  0.39469  0.15275  1.0000
  C   C819      1.0  0.09899  0.45484  0.91283  1.0000
  H   H647      1.0  0.03321  0.41343  0.10037  1.0000
  H   H648      1.0  0.23653  0.47793  0.98462  1.0000
  C   C820      1.0  0.33971  0.48143  0.03212  1.0000
  C   C821      1.0  0.36660  0.31380  0.16712  1.0000
  H   H649      1.0  0.14948  0.31842  0.17684  1.0000
  C   C822      1.0  0.37589  0.33850  0.16962  1.0000
  C   C823      1.0  0.35233  0.48160  0.98928  1.0000
  S   S113      1.0  0.20989  0.48115  0.17106  1.0000
  H   H650      1.0  0.14851  0.48445  0.14950  1.0000
  C   C824      1.0  0.21831  0.34453  0.18423  1.0000
  H   H651      1.0  0.31415  0.31792  0.18019  1.0000
  C   C825      1.0  0.15459  0.48240  0.07951  1.0000
  C   C826      1.0  0.20033  0.48668  0.92542  1.0000
  H   H652      1.0  0.10752  0.42928  0.07184  1.0000
  C   C827      1.0  0.25359  0.48265  0.15347  1.0000
  C   C828      1.0  0.10320  0.39544  0.05387  1.0000
  Fe  Fe54      1.0  0.29384  0.43661  0.19703  1.0000
  H   H653      1.0  0.09544  0.34378  0.11871  1.0000
  P   P27       1.0  0.02657  0.29868  0.03083  1.0000
  C   C829      1.0  0.09650  0.38080  0.02368  1.0000
  C   C830      1.0  0.09949  0.31734  0.93405  1.0000
  S   S114      1.0  0.32230  0.47226  0.20060  1.0000
  H   H654      1.0  0.33094  0.38600  0.15363  1.0000
  H   H655      1.0  0.09646  0.36302  0.02859  1.0000
  C   C831      1.0  0.38157  0.39274  0.17806  1.0000
  C   C832      1.0  0.35802  0.38127  0.17715  1.0000
  C   C833      1.0  0.20635  0.28290  0.19304  1.0000
  H   H656      1.0  0.09924  0.29014  0.98695  1.0000
  S   S115      1.0  0.09760  0.43642  0.16769  1.0000
  C   C834      1.0  0.25340  0.35293  0.20796  1.0000
  H   H657      1.0  0.27195  0.30816  0.19471  1.0000
  Fe  Fe55      1.0  0.17279  0.44944  0.20101  1.0000
  C   C835      1.0  0.09470  0.42573  0.01288  1.0000
  H   H658      1.0  0.09405  0.44318  0.00934  1.0000
  Fe  Fe56      1.0  0.33855  0.44928  0.22624  1.0000
  C   C836      1.0  0.23594  0.28462  0.29921  1.0000
  C   C837      1.0  0.08930  0.38875  0.98758  1.0000
  S   S116      1.0  0.31157  0.41419  0.21681  1.0000
  S   S117      1.0  0.15782  0.36538  0.19288  1.0000
  C   C838      1.0  0.08816  0.41120  0.98211  1.0000
  C   C839      1.0  0.08991  0.29985  0.97676  1.0000
  H   H659      1.0  0.07548  0.47267  0.21745  1.0000
  C   C840      1.0  0.08782  0.33066  0.92205  1.0000
  C   C841      1.0  0.06820  0.29484  0.00661  1.0000
  H   H660      1.0  0.19931  0.29457  0.20567  1.0000
  Fe  Fe57      1.0  0.14785  0.39468  0.20709  1.0000
  H   H661      1.0  0.30661  0.48615  0.97447  1.0000
  C   C842      1.0  0.34948  0.50124  0.05126  1.0000
  C   C843      1.0  0.21292  0.35879  0.21147  1.0000
  H   H662      1.0  0.19753  0.36155  0.21205  1.0000
  C   C844      1.0  0.36395  0.29515  0.20299  1.0000
  S   S118      1.0  0.08372  0.29401  0.11246  1.0000
  H   H663      1.0  0.29874  0.27784  0.22954  1.0000
  H   H664      1.0  0.30815  0.33597  0.24400  1.0000
  H   H665      1.0  0.08471  0.37731  0.96419  1.0000
  H   H666      1.0  0.26941  0.35140  0.20638  1.0000
  C   C845      1.0  0.06599  0.32552  0.95180  1.0000
  P   P28       1.0  0.07900  0.42193  0.93557  1.0000
  H   H667      1.0  0.34621  0.36216  0.19659  1.0000
  C   C846      1.0  0.38755  0.50042  0.29238  1.0000
  H   H668      1.0  0.02172  0.50570  0.09175  1.0000
  C   C847      1.0  0.09202  0.48351  0.22392  1.0000
  H   H669      1.0  0.28726  0.48255  0.14473  1.0000
  C   C848      1.0  0.07038  0.41482  0.16343  1.0000
  C   C849      1.0  0.22787  0.37032  0.23656  1.0000
  C   C850      1.0  0.38409  0.44638  0.27818  1.0000
  H   H670      1.0  0.36794  0.28665  0.27000  1.0000
  S   S119      1.0  0.13944  0.44891  0.24094  1.0000
  C   C851      1.0  0.24776  0.36689  0.23568  1.0000
  H   H671      1.0  0.04702  0.37303  0.92911  1.0000
  H   H672      1.0  0.06946  0.44275  0.11409  1.0000
  C   C852      1.0  0.06057  0.42334  0.13306  1.0000
  H   H673      1.0  0.05921  0.35623  0.12286  1.0000
  Fe  Fe58      1.0  0.30090  0.46164  0.27458  1.0000
  H   H674      1.0  0.04774  0.32269  0.19275  1.0000
  S   S120      1.0  0.11203  0.38919  0.24575  1.0000
  S   S121      1.0  0.16657  0.41565  0.25182  1.0000
  H   H675      1.0  0.22439  0.38241  0.25577  1.0000
  C   C853      1.0  0.25400  0.48765  0.98866  1.0000
  S   S122      1.0  0.27089  0.42784  0.26903  1.0000
  H   H676      1.0  0.28943  0.36248  0.26033  1.0000
  H   H677      1.0  0.14176  0.28467  0.24808  1.0000
  H   H678      1.0  0.25920  0.37574  0.25545  1.0000
  C   C854      1.0  0.29333  0.49226  0.98297  1.0000
  H   H679      1.0  0.06574  0.38316  0.21297  1.0000
  H   H680      1.0  0.05729  0.33594  0.94202  1.0000
  H   H681      1.0  0.28599  0.42687  0.90611  1.0000
  C   C855      1.0  0.04317  0.42165  0.28219  1.0000
  H   H682      1.0  0.25438  0.29876  0.28873  1.0000
  C   C856      1.0  0.09371  0.47977  0.26856  1.0000
  C   C857      1.0  0.05555  0.30689  0.99347  1.0000
  C   C858      1.0  0.24631  0.48916  0.26678  1.0000
  C   C859      1.0  0.05141  0.48868  0.98217  1.0000
  S   S123      1.0  0.31913  0.44129  0.30031  1.0000
  C   C860      1.0  0.29219  0.35224  0.28791  1.0000
  Fe  Fe59      1.0  0.29060  0.40793  0.28942  1.0000
  C   C861      1.0  0.14525  0.29085  0.27822  1.0000
  C   C862      1.0  0.36140  0.38104  0.28762  1.0000
  C   C863      1.0  0.16205  0.49537  0.03333  1.0000
  C   C864      1.0  0.15431  0.49487  0.11387  1.0000
  H   H683      1.0  0.36523  0.43904  0.29393  1.0000
  H   H684      1.0  0.99836  0.44829  0.24238  1.0000
  C   C865      1.0  0.04960  0.33694  0.12306  1.0000
  C   C866      1.0  0.04877  0.41659  0.95675  1.0000
  H   H685      1.0  0.04898  0.34580  0.05368  1.0000
  C   C867      1.0  0.11527  0.49302  0.27665  1.0000
  S   S124      1.0  0.32047  0.30583  0.30156  1.0000
  H   H686      1.0  0.13028  0.45077  0.91400  1.0000
  Fe  Fe60      1.0  0.13161  0.41274  0.28714  1.0000
  H   H687      1.0  0.13078  0.31631  0.27046  1.0000
  C   C868      1.0  0.30686  0.32419  0.31405  1.0000
  C   C869      1.0  0.03196  0.30605  0.08311  1.0000
  H   H688      1.0  0.07847  0.46648  0.29694  1.0000
  H   H689      1.0  0.33945  0.50045  0.08479  1.0000
  H   H690      1.0  0.11602  0.32073  0.91040  1.0000
  C   C870      1.0  0.03686  0.40887  0.00412  1.0000
  C   C871      1.0  0.03720  0.37314  0.18208  1.0000
  S   S125      1.0  0.29460  0.48849  0.30965  1.0000
  C   C872      1.0  0.13882  0.30845  0.29113  1.0000
  C   C873      1.0  0.04005  0.40668  0.12515  1.0000
  C   C874      1.0  0.04313  0.31807  0.16235  1.0000
  C   C875      1.0  0.04399  0.33098  0.08367  1.0000
  C   C876      1.0  0.03910  0.47348  0.13645  1.0000
  H   H691      1.0  0.03987  0.48077  0.20244  1.0000
  C   C877      1.0  0.03706  0.42061  0.92550  1.0000
  H   H692      1.0  0.04443  0.42003  0.24729  1.0000
  H   H693      1.0  0.06438  0.40357  0.29250  1.0000
  C   C878      1.0  0.15569  0.28077  0.30463  1.0000
  C   C879      1.0  0.23593  0.47114  0.30888  1.0000
  H   H694      1.0  0.26041  0.50162  0.15590  1.0000
  H   H695      1.0  0.11658  0.48990  0.31124  1.0000
  H   H696      1.0  0.34213  0.50087  0.25950  1.0000
  H   H697      1.0  0.03373  0.49371  0.28798  1.0000
  C   C880      1.0  0.14251  0.31572  0.33089  1.0000
  H   H698      1.0  0.02825  0.35368  0.20077  1.0000
  C   C881      1.0  0.21309  0.49792  0.28265  1.0000
  C   C882      1.0  0.02922  0.46979  0.18335  1.0000
  C   C883      1.0  0.03078  0.43350  0.30123  1.0000
  C   C884      1.0  0.11192  0.50081  0.18730  1.0000
  C   C885      1.0  0.21848  0.28807  0.32780  1.0000
  H   H699      1.0  0.24489  0.46070  0.31824  1.0000
  C   C886      1.0  0.23502  0.50274  0.25391  1.0000
  C   C887      1.0  0.02873  0.38142  0.14838  1.0000
  H   H700      1.0  0.08157  0.31654  0.29614  1.0000
  C   C888      1.0  0.02253  0.50338  0.00413  1.0000
  C   C889      1.0  0.03132  0.29321  0.16188  1.0000
  C   C890      1.0  0.37484  0.50155  0.96578  1.0000
  H   H701      1.0  0.38441  0.49811  0.25978  1.0000
  C   C891      1.0  0.08152  0.31341  0.33174  1.0000
  C   C892      1.0  0.02781  0.48382  0.99918  1.0000
  C   C893      1.0  0.19258  0.37440  0.34394  1.0000
  C   C894      1.0  0.26004  0.50962  0.00244  1.0000
  C   C895      1.0  0.00256  0.41054  0.98865  1.0000
  H   H702      1.0  0.14733  0.45172  0.33280  1.0000
  C   C896      1.0  0.17593  0.38307  0.34444  1.0000
  H   H703      1.0  0.01396  0.46476  0.00921  1.0000
  H   H704      1.0  0.11049  0.50323  0.15274  1.0000
  C   C897      1.0  0.02600  0.28722  0.12227  1.0000
  C   C898      1.0  0.01395  0.40610  0.01994  1.0000
  C   C899      1.0  0.20272  0.47998  0.32502  1.0000
  C   C900      1.0  0.15988  0.28829  0.34420  1.0000
  H   H705      1.0  0.19104  0.35897  0.32948  1.0000
  H   H706      1.0  0.22410  0.30508  0.33828  1.0000
  C   C901      1.0  0.28472  0.35349  0.33291  1.0000
  H   H707      1.0  0.35070  0.48657  0.32812  1.0000
  C   C902      1.0  0.05282  0.41440  0.35268  1.0000
  C   C903      1.0  0.36845  0.49383  0.33121  1.0000
  S   S126      1.0  0.27082  0.37172  0.34445  1.0000
  H   H708      1.0  0.13702  0.32901  0.34110  1.0000
  C   C904      1.0  0.28839  0.34016  0.36859  1.0000
  C   C905      1.0  0.01470  0.48355  0.29434  1.0000
  C   C906      1.0  0.01413  0.41782  0.94144  1.0000
  H   H709      1.0  0.06368  0.47254  0.37638  1.0000
  H   H710      1.0  0.00529  0.42145  0.91729  1.0000
  H   H711      1.0  0.01490  0.51048  0.24097  1.0000
  H   H712      1.0  0.16594  0.41084  0.35949  1.0000
  H   H713      1.0  0.09449  0.35204  0.33126  1.0000
  H   H714      1.0  0.38451  0.50170  0.93245  1.0000
  S   S127      1.0  0.00592  0.36070  0.13033  1.0000
  C   C907      1.0  0.02949  0.43617  0.34603  1.0000
  C   C908      1.0  0.29970  0.32567  0.35902  1.0000
  C   C909      1.0  0.35371  0.38176  0.33299  1.0000
  C   C910      1.0  0.15297  0.30568  0.35745  1.0000
  H   H715      1.0  0.01628  0.30433  0.94356  1.0000
  H   H716      1.0  0.01238  0.49185  0.92493  1.0000
  H   H717      1.0  0.06109  0.28124  0.03968  1.0000
  C   C911      1.0  0.11484  0.42423  0.38423  1.0000
  C   C912      1.0  0.99506  0.34303  0.01144  1.0000
  P   P29       1.0  0.17149  0.27347  0.38005  1.0000
  C   C913      1.0  0.01324  0.31590  0.00650  1.0000
  Fe  Fe61      1.0  0.32065  0.28285  0.36504  1.0000
  C   C914      1.0  0.01217  0.48221  0.89851  1.0000
  C   C915      1.0  0.13279  0.44847  0.36178  1.0000
  H   H718      1.0  0.20542  0.32617  0.36558  1.0000
  H   H719      1.0  0.26311  0.49250  0.24422  1.0000
  C   C916      1.0  0.17839  0.40362  0.36134  1.0000
  C   C917      1.0  0.01043  0.31512  0.96276  1.0000
  H   H720      1.0  0.00499  0.40023  0.05657  1.0000
  C   C918      1.0  0.06214  0.38167  0.89829  1.0000
  C   C919      1.0  0.21447  0.46697  0.33898  1.0000
  H   H721      1.0  0.35619  0.29024  0.90069  1.0000
  H   H722      1.0  0.09153  0.51334  0.38097  1.0000
  H   H723      1.0  0.17633  0.27331  0.92540  1.0000
  H   H724      1.0  0.14628  0.48712  0.36020  1.0000
  H   H725      1.0  0.30311  0.31577  0.38608  1.0000
  C   C920      1.0  0.12336  0.46362  0.90660  1.0000
  C   C921      1.0  0.00576  0.45152  0.20585  1.0000
  S   S128      1.0  0.11517  0.39929  0.36394  1.0000
  H   H726      1.0  0.05498  0.28413  0.91218  1.0000
  C   C922      1.0  0.26672  0.46077  0.89921  1.0000
  H   H727      1.0  0.33938  0.38627  0.34338  1.0000
  C   C923      1.0  0.00138  0.44215  0.13387  1.0000
  C   C924      1.0  0.03426  0.48100  0.38028  1.0000
  H   H728      1.0  0.00499  0.32891  0.06642  1.0000
  C   C925      1.0  0.13524  0.51011  0.24007  1.0000
  P   P30       1.0  0.01414  0.45232  0.37012  1.0000
  C   C926      1.0  0.37215  0.49603  0.37393  1.0000
  C   C927      1.0  0.08876  0.33340  0.35142  1.0000
  C   C928      1.0  0.13213  0.46854  0.37716  1.0000
  C   C929      1.0  0.13365  0.51445  0.19516  1.0000
  C   C930      1.0  0.00459  0.32919  0.03145  1.0000
  H   H729      1.0  0.00211  0.36918  0.28262  1.0000
  H   H730      1.0  0.18566  0.47645  0.34630  1.0000
  C   C931      1.0  0.04034  0.42617  0.37191  1.0000
  C   C932      1.0  0.21183  0.38642  0.36005  1.0000
  P   P31       1.0  0.20227  0.44408  0.39368  1.0000
  H   H731      1.0  0.48096  0.26892  0.21085  1.0000
  C   C933      1.0  0.36476  0.37712  0.36472  1.0000
  C   C934      1.0  0.19735  0.41545  0.37855  1.0000
  H   H732      1.0  0.22549  0.38061  0.35731  1.0000
  C   C935      1.0  0.07351  0.50935  0.38256  1.0000
  H   H733      1.0  0.24950  0.28952  0.39301  1.0000
  C   C936      1.0  0.00056  0.32869  0.94303  1.0000
  H   H734      1.0  0.24805  0.48866  0.38044  1.0000
  C   C937      1.0  0.41826  0.51464  0.11506  1.0000
  H   H735      1.0  0.15531  0.31121  0.38852  1.0000
  C   C938      1.0  0.06988  0.51304  0.97015  1.0000
  C   C939      1.0  0.00066  0.46190  0.33078  1.0000
  H   H736      1.0  0.99867  0.32811  0.90903  1.0000
  H   H737      1.0  0.07217  0.46601  0.90553  1.0000
  C   C940      1.0  0.00411  0.49313  0.26750  1.0000
  H   H738      1.0  0.01020  0.49706  0.38238  1.0000
  H   H739      1.0  0.40085  0.50882  0.06324  1.0000
  C   C941      1.0  0.05745  0.48604  0.37993  1.0000
  C   C942      1.0  0.39539  0.50550  0.37697  1.0000
  C   C943      1.0  0.21421  0.40686  0.37737  1.0000
  S   S129      1.0  0.48607  0.37276  0.04894  1.0000
  H   H740      1.0  0.47937  0.32532  0.27095  1.0000
  C   C944      1.0  0.29932  0.51424  0.99689  1.0000
  H   H741      1.0  0.22998  0.45221  0.90757  1.0000
  C   C945      1.0  0.13322  0.27520  0.92818  1.0000
  H   H742      1.0  0.48384  0.49518  0.26106  1.0000
  H   H743      1.0  0.38701  0.28120  0.95662  1.0000
  S   S130      1.0  0.38910  0.37476  0.02984  1.0000
  C   C946      1.0  0.41443  0.51169  0.33818  1.0000
  C   C947      1.0  0.39045  0.30905  0.05599  1.0000
  H   H744      1.0  0.37830  0.35273  0.14088  1.0000
  C   C948      1.0  0.38158  0.34455  0.20922  1.0000
  C   C949      1.0  0.38026  0.37562  0.27372  1.0000
  H   H745      1.0  0.48510  0.36167  0.96129  1.0000
  H   H746      1.0  0.42504  0.51264  0.26650  1.0000
  C   C950      1.0  0.48721  0.32589  0.35686  1.0000
  Fe  Fe62      1.0  0.42346  0.43963  0.39211  1.0000
  H   H747      1.0  0.49219  0.43271  0.15132  1.0000
  C   C951      1.0  0.44447  0.27073  0.02177  1.0000
  Fe  Fe63      1.0  0.47472  0.44373  0.98135  1.0000
  C   C952      1.0  0.47932  0.49181  0.10376  1.0000
  H   H748      1.0  0.42510  0.41679  0.24160  1.0000
  H   H749      1.0  0.42709  0.47789  0.17517  1.0000
  C   C953      1.0  0.43696  0.38696  0.16276  1.0000
  C   C954      1.0  0.41047  0.50884  0.29606  1.0000
  H   H750      1.0  0.46814  0.31543  0.09663  1.0000
  C   C955      1.0  0.48429  0.34728  0.35387  1.0000
  H   H751      1.0  0.46847  0.44190  0.21316  1.0000
  C   C956      1.0  0.45068  0.33119  0.17491  1.0000
  H   H752      1.0  0.42371  0.50052  0.11102  1.0000
  C   C957      1.0  0.40164  0.34337  0.90478  1.0000
  H   H753      1.0  0.43906  0.29311  0.27858  1.0000
  H   H754      1.0  0.41441  0.42761  0.15522  1.0000
  C   C958      1.0  0.44880  0.30878  0.24818  1.0000
  C   C959      1.0  0.38784  0.43112  0.12898  1.0000
  H   H755      1.0  0.47620  0.27963  0.09835  1.0000
  H   H756      1.0  0.38298  0.32955  0.27613  1.0000
  H   H757      1.0  0.46810  0.48025  0.13798  1.0000
  C   C960      1.0  0.44495  0.30087  0.37145  1.0000
  C   C961      1.0  0.39664  0.33432  0.05004  1.0000
  H   H758      1.0  0.42044  0.29687  0.21747  1.0000
  H   H759      1.0  0.39714  0.37136  0.93416  1.0000
  C   C962      1.0  0.46606  0.28264  0.07663  1.0000
  H   H760      1.0  0.42446  0.32061  0.37324  1.0000
  C   C963      1.0  0.42474  0.45744  0.01459  1.0000
  C   C964      1.0  0.47172  0.32704  0.24365  1.0000
  H   H761      1.0  0.48269  0.36499  0.14041  1.0000
  C   C965      1.0  0.44853  0.30714  0.04801  1.0000
  C   C966      1.0  0.39447  0.45897  0.23132  1.0000
  H   H762      1.0  0.39015  0.43344  0.34090  1.0000
  C   C967      1.0  0.42352  0.39233  0.19725  1.0000
  C   C968      1.0  0.38318  0.37126  0.35150  1.0000
  C   C969      1.0  0.39644  0.41787  0.15388  1.0000
  H   H763      1.0  0.42834  0.37222  0.14729  1.0000
  S   S131      1.0  0.44797  0.37661  0.96619  1.0000
  Fe  Fe64      1.0  0.42872  0.39576  0.99866  1.0000
  C   C970      1.0  0.43516  0.41206  0.21553  1.0000
  H   H764      1.0  0.39157  0.36748  0.37633  1.0000
  C   C971      1.0  0.48614  0.38975  0.25523  1.0000
  H   H765      1.0  0.44518  0.32988  0.89790  1.0000
  C   C972      1.0  0.43299  0.46546  0.23786  1.0000
  H   H766      1.0  0.47513  0.48596  0.90628  1.0000
  H   H767      1.0  0.42953  0.28298  0.37861  1.0000
  Fe  Fe65      1.0  0.47040  0.41280  0.91200  1.0000
  C   C973      1.0  0.48434  0.34754  0.20463  1.0000
  H   H768      1.0  0.48991  0.40912  0.38076  1.0000
  C   C974      1.0  0.39668  0.27317  0.93778  1.0000
  C   C975      1.0  0.46172  0.34543  0.35988  1.0000
  C   C976      1.0  0.41891  0.46834  0.21132  1.0000
  H   H769      1.0  0.39189  0.42362  0.03077  1.0000
  H   H770      1.0  0.47187  0.39756  0.11893  1.0000
  H   H771      1.0  0.45939  0.36192  0.35884  1.0000
  P   P32       1.0  0.39150  0.37606  0.21456  1.0000
  H   H772      1.0  0.40276  0.30249  0.06212  1.0000
  C   C977      1.0  0.44207  0.32223  0.36827  1.0000
  H   H773      1.0  0.41369  0.34714  0.05212  1.0000
  H   H774      1.0  0.44256  0.33299  0.14820  1.0000
  C   C978      1.0  0.43827  0.31088  0.21382  1.0000
  H   H775      1.0  0.40576  0.36676  0.29625  1.0000
  H   H776      1.0  0.46869  0.46143  0.07177  1.0000
  C   C979      1.0  0.46742  0.30243  0.36656  1.0000
  H   H777      1.0  0.39905  0.45075  0.11209  1.0000
  S   S132      1.0  0.45237  0.41046  0.04191  1.0000
  C   C980      1.0  0.43400  0.48936  0.94604  1.0000
  C   C981      1.0  0.46170  0.40134  0.14658  1.0000
  Fe  Fe66      1.0  0.47253  0.39301  0.00683  1.0000
  C   C982      1.0  0.46138  0.30280  0.07606  1.0000
  C   C983      1.0  0.39722  0.45027  0.97011  1.0000
  H   H778      1.0  0.42945  0.29410  0.00022  1.0000
  C   C984      1.0  0.43987  0.29098  0.02119  1.0000
  H   H779      1.0  0.46552  0.40342  0.29624  1.0000
  C   C985      1.0  0.48286  0.40780  0.27416  1.0000
  H   H780      1.0  0.47112  0.37145  0.26320  1.0000
  H   H781      1.0  0.45620  0.49265  0.99048  1.0000
  C   C986      1.0  0.45806  0.26677  0.04872  1.0000
  C   C987      1.0  0.47359  0.34939  0.17039  1.0000
  S   S133      1.0  0.44918  0.43080  0.94080  1.0000
  P   P33       1.0  0.47018  0.27421  0.37199  1.0000
  H   H782      1.0  0.45187  0.47298  0.22205  1.0000
  C   C988      1.0  0.41237  0.47379  0.93951  1.0000
  C   C989      1.0  0.39104  0.37069  0.30614  1.0000
  C   C990      1.0  0.39825  0.44340  0.30487  1.0000
  C   C991      1.0  0.47971  0.48115  0.06640  1.0000
  H   H783      1.0  0.42975  0.45099  0.04327  1.0000
  C   C992      1.0  0.47312  0.42118  0.16457  1.0000
  C   C993      1.0  0.43982  0.48102  0.98426  1.0000
  C   C994      1.0  0.47602  0.27137  0.28095  1.0000
  C   C995      1.0  0.42273  0.45289  0.28460  1.0000
  C   C996      1.0  0.40345  0.44203  0.00749  1.0000
  H   H784      1.0  0.44538  0.32313  0.04698  1.0000
  C   C997      1.0  0.45982  0.42645  0.19920  1.0000
  S   S134      1.0  0.44079  0.44855  0.31632  1.0000
  H   H785      1.0  0.40686  0.47938  0.91117  1.0000
  H   H786      1.0  0.20415  0.50816  0.27212  1.0000
  H   H787      1.0  0.14651  0.28977  0.89817  1.0000
  C   C998      1.0  0.02759  0.49982  0.38367  1.0000
  H   H788      1.0  0.24719  0.51646  0.00885  1.0000
  H   H789      1.0  0.06168  0.40725  0.37224  1.0000
  H   H790      1.0  0.16948  0.34085  0.89730  1.0000
  H   H791      1.0  0.99721  0.27736  0.26721  1.0000
  H   H792      1.0  0.06718  0.27396  0.34276  1.0000
  H   H793      1.0  0.01803  0.26801  0.12188  1.0000
  H   H794      1.0  0.15992  0.26665  0.29463  1.0000
  H   H795      1.0  0.24306  0.51661  0.22127  1.0000
  H   H796      1.0  0.42073  0.35362  0.89524  1.0000
  C   C999      1.0  0.49110  0.57808  0.67986  1.0000
  H   H797      1.0  0.48284  0.61055  0.84307  1.0000
  H   H798      1.0  0.41220  0.52121  0.79189  1.0000
  C   C1000     1.0  0.03764  0.72767  0.62339  1.0000
  C   C1001     1.0  0.04374  0.74471  0.64978  1.0000
  C   C1002     1.0  0.05983  0.72182  0.68910  1.0000
  C   C1003     1.0  0.29855  0.67411  0.52491  1.0000
  H   H799      1.0  0.45592  0.52206  0.75736  1.0000
  H   H800      1.0  0.03448  0.53608  0.52323  1.0000
  C   C1004     1.0  0.29430  0.67124  0.68186  1.0000
  H   H801      1.0  0.39849  0.62751  0.43796  1.0000
  C   C1005     1.0  0.45447  0.66203  0.62374  1.0000
  H   H802      1.0  0.34675  0.64494  0.47953  1.0000
  C   C1006     1.0  0.12524  0.63824  0.54696  1.0000
  C   C1007     1.0  0.22013  0.61369  0.62556  1.0000
  C   C1008     1.0  0.02126  0.70550  0.46047  1.0000
  C   C1009     1.0  0.00338  0.58594  0.53893  1.0000
  H   H803      1.0  0.23184  0.74843  0.63835  1.0000
  H   H804      1.0  0.14250  0.52574  0.86956  1.0000
  C   C1010     1.0  0.09716  0.73498  0.78613  1.0000
  C   C1011     1.0  0.17762  0.62402  0.69694  1.0000
  C   C1012     1.0  0.41421  0.72287  0.66167  1.0000
  P   P34       1.0  0.14254  0.51811  0.59839  1.0000
  C   C1013     1.0  0.27791  0.64595  0.69775  1.0000
  C   C1014     1.0  0.34638  0.64038  0.66798  1.0000
  H   H805      1.0  0.15086  0.61701  0.80911  1.0000
  P   P35       1.0  0.05868  0.67785  0.67510  1.0000
  C   C1015     1.0  0.03442  0.72313  0.48128  1.0000
  C   C1016     1.0  0.03765  0.64930  0.61936  1.0000
  H   H806      1.0  0.46365  0.65256  0.50271  1.0000
  H   H807      1.0  0.46470  0.72748  0.79751  1.0000
  C   C1017     1.0  0.37548  0.75152  0.81165  1.0000
  C   C1018     1.0  0.42651  0.57660  0.64562  1.0000
  C   C1019     1.0  0.45754  0.72850  0.83171  1.0000
  C   C1020     1.0  0.04315  0.72901  0.82342  1.0000
  S   S135      1.0  0.17356  0.54073  0.42496  1.0000
  C   C1021     1.0  0.09394  0.56113  0.50937  1.0000
  H   H808      1.0  0.05914  0.63836  0.51919  1.0000
  H   H809      1.0  0.31454  0.55804  0.43240  1.0000
  C   C1022     1.0  0.05193  0.53741  0.51873  1.0000
  C   C1023     1.0  0.37848  0.70754  0.83502  1.0000
  C   C1024     1.0  0.40442  0.60109  0.53663  1.0000
  S   S136      1.0  0.09592  0.58784  0.81774  1.0000
  C   C1025     1.0  0.00053  0.68523  0.86667  1.0000
  C   C1026     1.0  0.15223  0.52377  0.76363  1.0000
  H   H810      1.0  0.13992  0.55902  0.54244  1.0000
  C   C1027     1.0  0.47751  0.66528  0.79869  1.0000
  H   H811      1.0  0.42913  0.62970  0.47391  1.0000
  C   C1028     1.0  0.10700  0.70961  0.65675  1.0000
  H   H812      1.0  0.29981  0.54629  0.62657  1.0000
  H   H813      1.0  0.38598  0.75954  0.87097  1.0000
  H   H814      1.0  0.11727  0.73313  0.87942  1.0000
  H   H815      1.0  0.24521  0.59609  0.53799  1.0000
  H   H816      1.0  0.39477  0.56637  0.46603  1.0000
  C   C1029     1.0  0.41212  0.57173  0.44296  1.0000
  H   H817      1.0  0.23986  0.57599  0.67565  1.0000
  H   H818      1.0  0.42113  0.70119  0.76250  1.0000
  C   C1030     1.0  0.04764  0.52785  0.67187  1.0000
  C   C1031     1.0  0.42328  0.71442  0.73251  1.0000
  C   C1032     1.0  0.43979  0.53235  0.87488  1.0000
  C   C1033     1.0  0.32385  0.52695  0.70216  1.0000
  H   H819      1.0  0.02431  0.73818  0.78027  1.0000
  H   H820      1.0  0.14681  0.71436  0.71529  1.0000
  C   C1034     1.0  0.00193  0.70272  0.83017  1.0000
  C   C1035     1.0  0.05488  0.74178  0.68253  1.0000
  C   C1036     1.0  0.03758  0.57983  0.54173  1.0000
  C   C1037     1.0  0.18474  0.55067  0.52711  1.0000
  C   C1038     1.0  0.42084  0.55344  0.81817  1.0000
  H   H821      1.0  0.31493  0.52296  0.58256  1.0000
  C   C1039     1.0  0.42672  0.75915  0.46092  1.0000
  C   C1040     1.0  0.49195  0.64613  0.46902  1.0000
  H   H822      1.0  0.06321  0.56903  0.43556  1.0000
  S   S137      1.0  0.02012  0.56166  0.71848  1.0000
  C   C1041     1.0  0.07131  0.55965  0.51779  1.0000
  C   C1042     1.0  0.25720  0.63684  0.68468  1.0000
  H   H823      1.0  0.22779  0.54219  0.45950  1.0000
  H   H824      1.0  0.07286  0.66191  0.75407  1.0000
  C   C1043     1.0  0.27426  0.71856  0.73424  1.0000
  Fe  Fe67      1.0  0.04618  0.57015  0.75880  1.0000
  C   C1044     1.0  0.03763  0.63948  0.58129  1.0000
  H   H825      1.0  0.21800  0.57570  0.47503  1.0000
  C   C1045     1.0  0.07804  0.51928  0.50032  1.0000
  H   H826      1.0  0.47057  0.67162  0.63275  1.0000
  H   H827      1.0  0.08032  0.53325  0.68521  1.0000
  C   C1046     1.0  0.29884  0.65438  0.46248  1.0000
  H   H828      1.0  0.08134  0.72917  0.77588  1.0000
  C   C1047     1.0  0.43006  0.52052  0.84315  1.0000
  H   H829      1.0  0.41700  0.54329  0.48271  1.0000
  H   H830      1.0  0.22458  0.64557  0.73949  1.0000
  C   C1048     1.0  0.07761  0.60327  0.45639  1.0000
  C   C1049     1.0  0.04243  0.70751  0.63015  1.0000
  C   C1050     1.0  0.14140  0.54561  0.61011  1.0000
  C   C1051     1.0  0.26545  0.68076  0.78873  1.0000
  C   C1052     1.0  0.31902  0.58839  0.69818  1.0000
  H   H831      1.0  0.35608  0.59843  0.47868  1.0000
  C   C1053     1.0  0.23538  0.51813  0.69779  1.0000
  C   C1054     1.0  0.47741  0.51881  0.86478  1.0000
  C   C1055     1.0  0.16877  0.52582  0.55179  1.0000
  H   H832      1.0  0.14359  0.65152  0.52901  1.0000
  H   H833      1.0  0.16649  0.67855  0.44612  1.0000
  P   P36       1.0  0.30156  0.70158  0.44045  1.0000
  H   H834      1.0  0.00953  0.70866  0.44326  1.0000
  H   H835      1.0  0.05915  0.59300  0.61280  1.0000
  C   C1056     1.0  0.41103  0.70596  0.70127  1.0000
  H   H836      1.0  0.24422  0.61733  0.69878  1.0000
  C   C1057     1.0  0.21971  0.70214  0.58554  1.0000
  S   S138      1.0  0.21015  0.70614  0.76946  1.0000
  C   C1058     1.0  0.47536  0.52727  0.68725  1.0000
  H   H837      1.0  0.00687  0.59135  0.77101  1.0000
  H   H838      1.0  0.05216  0.75427  0.88918  1.0000
  C   C1059     1.0  0.41876  0.57604  0.60640  1.0000
  C   C1060     1.0  0.36308  0.66173  0.47411  1.0000
  C   C1061     1.0  0.40531  0.70569  0.45831  1.0000
  Fe  Fe68      1.0  0.05842  0.58070  0.84637  1.0000
  C   C1062     1.0  0.47633  0.71494  0.53021  1.0000
  H   H839      1.0  0.01435  0.67108  0.44255  1.0000
  C   C1063     1.0  0.37082  0.73508  0.78392  1.0000
  H   H840      1.0  0.10621  0.71880  0.62489  1.0000
  C   C1064     1.0  0.12166  0.66544  0.89059  1.0000
  H   H841      1.0  0.44468  0.67233  0.86731  1.0000
  C   C1065     1.0  0.20657  0.63772  0.73811  1.0000
  H   H842      1.0  0.18664  0.55071  0.66067  1.0000
  H   H843      1.0  0.06466  0.69450  0.51794  1.0000
  H   H844      1.0  0.48303  0.76394  0.39744  1.0000
  S   S139      1.0  0.37333  0.55895  0.74460  1.0000
  C   C1066     1.0  0.34979  0.74700  0.66965  1.0000
  H   H845      1.0  0.27525  0.58593  0.88574  1.0000
  P   P37       1.0  0.31735  0.76274  0.70891  1.0000
  C   C1067     1.0  0.43695  0.66957  0.63189  1.0000
  H   H846      1.0  0.22579  0.64501  0.41639  1.0000
  H   H847      1.0  0.27285  0.74317  0.54521  1.0000
  C   C1068     1.0  0.46765  0.53525  0.72491  1.0000
  H   H848      1.0  0.30994  0.67830  0.69330  1.0000
  H   H849      1.0  0.12697  0.56680  0.80258  1.0000
  C   C1069     1.0  0.44779  0.72985  0.52456  1.0000
  C   C1070     1.0  0.36591  0.53050  0.78196  1.0000
  C   C1071     1.0  0.05217  0.69725  0.50260  1.0000
  H   H850      1.0  0.37437  0.51834  0.47250  1.0000
  C   C1072     1.0  0.34177  0.76484  0.66444  1.0000
  C   C1073     1.0  0.12354  0.76247  0.53229  1.0000
  C   C1074     1.0  0.08065  0.67065  0.59373  1.0000
  C   C1075     1.0  0.28549  0.72469  0.50060  1.0000
  C   C1076     1.0  0.23332  0.59443  0.57011  1.0000
  H   H851      1.0  0.43210  0.76121  0.62247  1.0000
  H   H852      1.0  0.11900  0.62386  0.48906  1.0000
  Fe  Fe69      1.0  0.17170  0.57665  0.41332  1.0000
  C   C1077     1.0  0.43779  0.74008  0.72527  1.0000
  H   H853      1.0  0.26623  0.69141  0.61769  1.0000
  C   C1078     1.0  0.14655  0.66300  0.72297  1.0000
  C   C1079     1.0  0.39336  0.61559  0.47202  1.0000
  H   H854      1.0  0.06861  0.71994  0.71436  1.0000
  H   H855      1.0  0.42249  0.71599  0.82668  1.0000
  Fe  Fe70      1.0  0.09526  0.60926  0.75313  1.0000
  C   C1080     1.0  0.27312  0.53005  0.80939  1.0000
  C   C1081     1.0  0.36419  0.67745  0.50300  1.0000
  C   C1082     1.0  0.02057  0.68927  0.88076  1.0000
  H   H856      1.0  0.29662  0.65322  0.58965  1.0000
  C   C1083     1.0  0.21856  0.65977  0.56137  1.0000
  C   C1084     1.0  0.13629  0.58661  0.62941  1.0000
  C   C1085     1.0  0.38024  0.58515  0.56027  1.0000
  H   H857      1.0  0.26781  0.70985  0.50630  1.0000
  C   C1086     1.0  0.41084  0.53183  0.66486  1.0000
  H   H858      1.0  0.31975  0.70751  0.87266  1.0000
  C   C1087     1.0  0.29036  0.53227  0.87200  1.0000
  H   H859      1.0  0.29999  0.65454  0.42679  1.0000
  C   C1088     1.0  0.30337  0.71748  0.77079  1.0000
  C   C1089     1.0  0.05534  0.51733  0.50999  1.0000
  S   S140      1.0  0.18669  0.54739  0.88943  1.0000
  H   H860      1.0  0.14162  0.53736  0.68058  1.0000
  H   H861      1.0  0.32607  0.52723  0.73586  1.0000
  H   H862      1.0  0.45134  0.51757  0.62144  1.0000
  C   C1090     1.0  0.18698  0.69507  0.70624  1.0000
  S   S141      1.0  0.01477  0.56999  0.40581  1.0000
  C   C1091     1.0  0.22267  0.68507  0.61536  1.0000
  P   P38       1.0  0.03265  0.75184  0.47590  1.0000
  C   C1092     1.0  0.29694  0.73054  0.73956  1.0000
  C   C1093     1.0  0.15949  0.61761  0.73735  1.0000
  H   H863      1.0  0.40084  0.55213  0.56682  1.0000
  C   C1094     1.0  0.13917  0.74832  0.80943  1.0000
  C   C1095     1.0  0.29925  0.67468  0.47877  1.0000
  H   H864      1.0  0.48493  0.55204  0.81494  1.0000
  H   H865      1.0  0.03997  0.76027  0.64482  1.0000
  H   H866      1.0  0.13639  0.59548  0.55905  1.0000
  H   H867      1.0  0.29288  0.68248  0.81827  1.0000
  C   C1096     1.0  0.40433  0.68928  0.43068  1.0000
  C   C1097     1.0  0.46309  0.59619  0.51782  1.0000
  C   C1098     1.0  0.48572  0.60384  0.48807  1.0000
  H   H868      1.0  0.17009  0.68412  0.65462  1.0000
  H   H869      1.0  0.34276  0.69177  0.41489  1.0000
  C   C1099     1.0  0.43015  0.62943  0.59316  1.0000
  C   C1100     1.0  0.02382  0.68411  0.46018  1.0000
  C   C1101     1.0  0.21664  0.69840  0.54333  1.0000
  H   H870      1.0  0.30262  0.70712  0.64087  1.0000
  C   C1102     1.0  0.16988  0.62578  0.43318  1.0000
  C   C1103     1.0  0.31790  0.52460  0.61544  1.0000
  C   C1104     1.0  0.00135  0.74303  0.49675  1.0000
  S   S142      1.0  0.15906  0.74085  0.41840  1.0000
  C   C1105     1.0  0.26592  0.56719  0.69462  1.0000
  H   H871      1.0  0.13430  0.60242  0.63694  1.0000
  C   C1106     1.0  0.42451  0.55876  0.45240  1.0000
  C   C1107     1.0  0.28782  0.69261  0.79467  1.0000
  H   H872      1.0  0.10934  0.57826  0.50678  1.0000
  H   H873      1.0  0.02985  0.61074  0.87001  1.0000
  H   H874      1.0  0.46476  0.63642  0.59796  1.0000
  C   C1108     1.0  0.47549  0.56057  0.72120  1.0000
  H   H875      1.0  0.48714  0.71092  0.54910  1.0000
  C   C1109     1.0  0.43349  0.72199  0.84845  1.0000
  Fe  Fe71      1.0  0.08000  0.55441  0.79126  1.0000
  C   C1110     1.0  0.46947  0.63867  0.49885  1.0000
  H   H876      1.0  0.43165  0.58321  0.85088  1.0000
  C   C1111     1.0  0.99820  0.61706  0.80046  1.0000
  H   H877      1.0  0.06020  0.73175  0.51925  1.0000
  C   C1112     1.0  0.31236  0.53919  0.68412  1.0000
  H   H878      1.0  0.07130  0.63749  0.88613  1.0000
  C   C1113     1.0  0.47252  0.73693  0.85852  1.0000
  C   C1114     1.0  0.27500  0.69412  0.42284  1.0000
  H   H879      1.0  0.99873  0.54542  0.87819  1.0000
  C   C1115     1.0  0.38361  0.72413  0.86276  1.0000
  H   H880      1.0  0.28148  0.73244  0.40512  1.0000
  S   S143      1.0  0.28773  0.63155  0.81982  1.0000
  C   C1116     1.0  0.47752  0.71102  0.48647  1.0000
  H   H881      1.0  0.11082  0.67875  0.77158  1.0000
  C   C1117     1.0  0.36180  0.52724  0.82945  1.0000
  H   H882      1.0  0.26186  0.65407  0.43902  1.0000
  Fe  Fe72      1.0  0.20963  0.56755  0.81691  1.0000
  H   H883      1.0  0.15691  0.76259  0.73647  1.0000
  H   H884      1.0  0.30204  0.75929  0.62603  1.0000
  C   C1118     1.0  0.17047  0.64502  0.45312  1.0000
  C   C1119     1.0  0.10966  0.68736  0.73960  1.0000
  H   H885      1.0  0.49221  0.59049  0.48394  1.0000
  C   C1120     1.0  0.20013  0.56882  0.63867  1.0000
  C   C1121     1.0  0.20235  0.59005  0.65270  1.0000
  C   C1122     1.0  0.21153  0.53767  0.48561  1.0000
  Fe  Fe73      1.0  0.39395  0.64603  0.76013  1.0000
  H   H886      1.0  0.26849  0.60774  0.41421  1.0000
  C   C1123     1.0  0.43091  0.56555  0.84907  1.0000
  C   C1124     1.0  0.48945  0.53719  0.82253  1.0000
  C   C1125     1.0  0.45109  0.64207  0.60436  1.0000
  H   H887      1.0  0.25737  0.52348  0.79841  1.0000
  H   H888      1.0  0.39615  0.62759  0.59405  1.0000
  C   C1126     1.0  0.20126  0.63361  0.69721  1.0000
  H   H889      1.0  0.36660  0.73964  0.75285  1.0000
  H   H890      1.0  0.28086  0.63353  0.72160  1.0000
  C   C1127     1.0  0.02936  0.62909  0.72938  1.0000
  C   C1128     1.0  0.40648  0.76051  0.45512  1.0000
  C   C1129     1.0  0.33941  0.63378  0.87347  1.0000
  S   S144      1.0  0.39277  0.59061  0.84056  1.0000
  H   H891      1.0  0.35780  0.64656  0.86806  1.0000
  C   C1130     1.0  0.16296  0.67364  0.78535  1.0000
  S   S145      1.0  0.36095  0.60986  0.79475  1.0000
  C   C1131     1.0  0.29276  0.59970  0.88360  1.0000
  C   C1132     1.0  0.37213  0.71301  0.79580  1.0000
  H   H892      1.0  0.33316  0.56523  0.76963  1.0000
  C   C1133     1.0  0.11903  0.74701  0.75172  1.0000
  H   H893      1.0  0.11479  0.54237  0.49310  1.0000
  H   H894      1.0  0.46960  0.56666  0.75039  1.0000
  H   H895      1.0  0.42835  0.55512  0.70509  1.0000
  C   C1134     1.0  0.12999  0.70741  0.70782  1.0000
  S   S146      1.0  0.04248  0.54558  0.82440  1.0000
  H   H896      1.0  0.24099  0.68495  0.75545  1.0000
  H   H897      1.0  0.14128  0.61018  0.73689  1.0000
  C   C1135     1.0  0.18465  0.69119  0.75315  1.0000
  C   C1136     1.0  0.38187  0.74612  0.85086  1.0000
  C   C1137     1.0  0.42941  0.74825  0.65351  1.0000
  H   H898      1.0  0.36885  0.70038  0.77394  1.0000
  P   P39       1.0  0.06801  0.71643  0.87811  1.0000
  H   H899      1.0  0.34871  0.67276  0.53125  1.0000
  H   H900      1.0  0.08454  0.61967  0.65162  1.0000
  C   C1138     1.0  0.23831  0.66413  0.41325  1.0000
  C   C1139     1.0  0.30535  0.72549  0.47036  1.0000
  H   H901      1.0  0.40248  0.66294  0.62734  1.0000
  C   C1140     1.0  0.25866  0.69379  0.75875  1.0000
  C   C1141     1.0  0.08876  0.62937  0.44059  1.0000
  H   H902      1.0  0.01222  0.51790  0.66902  1.0000
  C   C1142     1.0  0.29646  0.63333  0.53774  1.0000
  C   C1143     1.0  0.21600  0.67717  0.53127  1.0000
  C   C1144     1.0  0.23353  0.68337  0.39705  1.0000
  H   H903      1.0  0.38001  0.69067  0.84293  1.0000
  H   H904      1.0  0.25322  0.66165  0.80808  1.0000
  C   C1145     1.0  0.27192  0.54827  0.70678  1.0000
  S   S147      1.0  0.11766  0.75648  0.40371  1.0000
  C   C1146     1.0  0.30339  0.62332  0.85268  1.0000
  C   C1147     1.0  0.12864  0.71858  0.66643  1.0000
  H   H905      1.0  0.12810  0.67604  0.85492  1.0000
  C   C1148     1.0  0.05909  0.64551  0.54915  1.0000
  H   H906      1.0  0.00814  0.75232  0.85868  1.0000
  H   H907      1.0  0.40503  0.71629  0.63715  1.0000
  C   C1149     1.0  0.45488  0.61366  0.52392  1.0000
  C   C1150     1.0  0.25257  0.65307  0.65601  1.0000
  H   H908      1.0  0.41355  0.56162  0.79621  1.0000
  C   C1151     1.0  0.38319  0.66761  0.43815  1.0000
  H   H909      1.0  0.37510  0.73530  0.64008  1.0000
  H   H910      1.0  0.34435  0.57190  0.55736  1.0000
  C   C1152     1.0  0.03944  0.68009  0.48087  1.0000
  C   C1153     1.0  0.02327  0.72453  0.80840  1.0000
  H   H911      1.0  0.02611  0.67972  0.75562  1.0000
  C   C1154     1.0  0.31295  0.54705  0.84063  1.0000
  C   C1155     1.0  0.16488  0.62154  0.77796  1.0000
  H   H912      1.0  0.36011  0.63467  0.60325  1.0000
  C   C1156     1.0  0.41078  0.61663  0.49261  1.0000
  C   C1157     1.0  0.36887  0.74900  0.63546  1.0000
  H   H913      1.0  0.48938  0.70414  0.47144  1.0000
  H   H914      1.0  0.36138  0.54178  0.84468  1.0000
  P   P40       1.0  0.06833  0.58757  0.51691  1.0000
  C   C1158     1.0  0.11567  0.63708  0.59263  1.0000
  C   C1159     1.0  0.42263  0.55458  0.67458  1.0000
  C   C1160     1.0  0.03489  0.65419  0.72425  1.0000
  H   H915      1.0  0.29516  0.61729  0.56054  1.0000
  C   C1161     1.0  0.49084  0.54500  0.64568  1.0000
  Fe  Fe74      1.0  0.38318  0.59141  0.77533  1.0000
  C   C1162     1.0  0.38527  0.69932  0.49530  1.0000
  H   H916      1.0  0.21439  0.71186  0.52047  1.0000
  C   C1163     1.0  0.27049  0.52369  0.85641  1.0000
  H   H917      1.0  0.30512  0.59487  0.76274  1.0000
  S   S148      1.0  0.10504  0.69752  0.43042  1.0000
  H   H918      1.0  0.10176  0.75579  0.60086  1.0000
  Fe  Fe75      1.0  0.12154  0.73084  0.45705  1.0000
  C   C1164     1.0  0.44937  0.72657  0.48006  1.0000
  C   C1165     1.0  0.04968  0.71868  0.50294  1.0000
  H   H919      1.0  0.05992  0.75506  0.70267  1.0000
  C   C1166     1.0  0.09608  0.73069  0.83271  1.0000
  C   C1167     1.0  0.11732  0.73687  0.84403  1.0000
  H   H920      1.0  0.04211  0.66402  0.47900  1.0000
  H   H921      1.0  0.38246  0.65542  0.41582  1.0000
  H   H922      1.0  0.34376  0.74595  0.44131  1.0000
  H   H923      1.0  0.11186  0.62994  0.87532  1.0000
  C   C1168     1.0  0.26932  0.67842  0.63956  1.0000
  H   H924      1.0  0.38593  0.71128  0.51804  1.0000
  C   C1169     1.0  0.31090  0.76300  0.51571  1.0000
  H   H925      1.0  0.33501  0.65854  0.82359  1.0000
  H   H926      1.0  0.29669  0.61809  0.47916  1.0000
  H   H927      1.0  0.41984  0.69327  0.40303  1.0000
  S   S149      1.0  0.40470  0.64952  0.82436  1.0000
  H   H928      1.0  0.11977  0.75113  0.71587  1.0000
  C   C1170     1.0  0.44077  0.75695  0.68579  1.0000
  S   S150      1.0  0.39073  0.67458  0.71147  1.0000
  C   C1171     1.0  0.13397  0.55487  0.79137  1.0000
  C   C1172     1.0  0.13785  0.57017  0.66342  1.0000
  H   H929      1.0  0.24930  0.63380  0.56268  1.0000
  C   C1173     1.0  0.31717  0.60321  0.72786  1.0000
  C   C1174     1.0  0.49276  0.53633  0.52237  1.0000
  H   H930      1.0  0.32031  0.72659  0.77706  1.0000
  C   C1175     1.0  0.18843  0.63190  0.77819  1.0000
  S   S151      1.0  0.19742  0.55565  0.75811  1.0000
  H   H931      1.0  0.37472  0.57391  0.59526  1.0000
  Fe  Fe76      1.0  0.42344  0.62788  0.80258  1.0000
  S   S152      1.0  0.24476  0.73949  0.84022  1.0000
  C   C1176     1.0  0.05918  0.66501  0.62593  1.0000
  C   C1177     1.0  0.07756  0.60513  0.59368  1.0000
  C   C1178     1.0  0.44029  0.55511  0.87744  1.0000
  S   S153      1.0  0.08254  0.57645  0.72421  1.0000
  H   H932      1.0  0.45552  0.55459  0.42995  1.0000
  C   C1179     1.0  0.08670  0.68879  0.68759  1.0000
  C   C1180     1.0  0.40667  0.55302  0.59716  1.0000
  H   H933      1.0  0.21302  0.67398  0.49898  1.0000
  C   C1181     1.0  0.31458  0.52565  0.47059  1.0000
  H   H934      1.0  0.19049  0.58774  0.68535  1.0000
  C   C1182     1.0  0.36947  0.59921  0.49504  1.0000
  H   H935      1.0  0.34142  0.73144  0.69984  1.0000
  H   H936      1.0  0.39370  0.74631  0.44389  1.0000
  S   S154      1.0  0.17511  0.60215  0.45984  1.0000
  C   C1183     1.0  0.32808  0.74484  0.46419  1.0000
  H   H937      1.0  0.21273  0.53250  0.67907  1.0000
  S   S155      1.0  0.22095  0.60529  0.82910  1.0000
  H   H938      1.0  0.30296  0.52448  0.50262  1.0000
  C   C1184     1.0  0.31564  0.55337  0.79364  1.0000
  C   C1185     1.0  0.32665  0.64046  0.84796  1.0000
  H   H939      1.0  0.19263  0.63556  0.80945  1.0000
  H   H940      1.0  0.43933  0.68476  0.64761  1.0000
  H   H941      1.0  0.09726  0.66618  0.53011  1.0000
  H   H942      1.0  0.41264  0.60174  0.39571  1.0000
  H   H943      1.0  0.03572  0.60269  0.48331  1.0000
  H   H944      1.0  0.33607  0.58894  0.62945  1.0000
  S   S156      1.0  0.10840  0.73161  0.52971  1.0000
  H   H945      1.0  0.32997  0.64027  0.73656  1.0000
  C   C1186     1.0  0.29011  0.68743  0.65248  1.0000
  H   H946      1.0  0.14437  0.73431  0.64194  1.0000
  C   C1187     1.0  0.36291  0.58411  0.53924  1.0000
  P   P41       1.0  0.43231  0.73426  0.44727  1.0000
  C   C1188     1.0  0.24482  0.56153  0.68376  1.0000
  C   C1189     1.0  0.14379  0.65951  0.77019  1.0000
  C   C1190     1.0  0.08815  0.67783  0.72938  1.0000
  C   C1191     1.0  0.01097  0.61065  0.76716  1.0000
  H   H947      1.0  0.99498  0.59420  0.52020  1.0000
  C   C1192     1.0  0.09192  0.62035  0.61616  1.0000
  C   C1193     1.0  0.41609  0.65716  0.62069  1.0000
  H   H948      1.0  0.12720  0.64542  0.79466  1.0000
  C   C1194     1.0  0.08055  0.66118  0.55524  1.0000
  C   C1195     1.0  0.40247  0.53099  0.62668  1.0000
  C   C1196     1.0  0.08695  0.60637  0.54729  1.0000
  C   C1197     1.0  0.16576  0.66347  0.43127  1.0000
  P   P42       1.0  0.22428  0.64120  0.64463  1.0000
  C   C1198     1.0  0.20602  0.55652  0.49433  1.0000
  H   H949      1.0  0.27723  0.58620  0.69390  1.0000
  S   S157      1.0  0.12393  0.64432  0.70254  1.0000
  H   H950      1.0  0.15555  0.75337  0.81821  1.0000
  H   H951      1.0  0.29902  0.68943  0.53869  1.0000
  H   H952      1.0  0.18120  0.56577  0.53321  1.0000
  H   H953      1.0  0.22465  0.68814  0.64833  1.0000
  C   C1199     1.0  0.07051  0.67228  0.88285  1.0000
  H   H954      1.0  0.21684  0.64300  0.55199  1.0000
  H   H955      1.0  0.02083  0.64470  0.64360  1.0000
  H   H956      1.0  0.29481  0.75718  0.80502  1.0000
  P   P43       1.0  0.29988  0.55515  0.71701  1.0000
  C   C1200     1.0  0.02203  0.66055  0.75809  1.0000
  C   C1201     1.0  0.02658  0.59066  0.51801  1.0000
  H   H957      1.0  0.49153  0.72138  0.72993  1.0000
  H   H958      1.0  0.12664  0.64942  0.60955  1.0000
  C   C1202     1.0  0.04221  0.71115  0.85893  1.0000
  C   C1203     1.0  0.14049  0.54982  0.65379  1.0000
  H   H959      1.0  0.44699  0.74691  0.74957  1.0000
  H   H960      1.0  0.46050  0.72728  0.58333  1.0000
  C   C1204     1.0  0.47542  0.68274  0.76774  1.0000
  C   C1205     1.0  0.22241  0.66387  0.60338  1.0000
  S   S158      1.0  0.20364  0.75556  0.83202  1.0000
  H   H961      1.0  0.16155  0.67008  0.82152  1.0000
  H   H962      1.0  0.09759  0.68258  0.59746  1.0000
  C   C1206     1.0  0.25891  0.66942  0.42612  1.0000
  C   C1207     1.0  0.13726  0.58259  0.58575  1.0000
  C   C1208     1.0  0.13947  0.56200  0.57632  1.0000
  S   S159      1.0  0.45782  0.63371  0.81254  1.0000
  C   C1209     1.0  0.46140  0.72424  0.54935  1.0000
  C   C1210     1.0  0.11111  0.62273  0.52450  1.0000
  H   H963      1.0  0.09281  0.64091  0.46398  1.0000
  P   P44       1.0  0.42664  0.60469  0.56542  1.0000
  H   H964      1.0  0.29702  0.66180  0.88590  1.0000
  H   H965      1.0  0.03261  0.55472  0.60441  1.0000
  H   H966      1.0  0.26807  0.72828  0.71249  1.0000
  C   C1211     1.0  0.23562  0.61571  0.58419  1.0000
  C   C1212     1.0  0.07255  0.58911  0.42460  1.0000
  C   C1213     1.0  0.32103  0.54449  0.43118  1.0000
  H   H967      1.0  0.21429  0.55445  0.58718  1.0000
  C   C1214     1.0  0.02460  0.56347  0.58583  1.0000
  Fe  Fe77      1.0  0.20884  0.72192  0.83056  1.0000
  H   H968      1.0  0.32834  0.55398  0.85278  1.0000
  H   H969      1.0  0.46110  0.67679  0.75254  1.0000
  C   C1215     1.0  0.16722  0.54646  0.76982  1.0000
  C   C1216     1.0  0.44666  0.56535  0.42215  1.0000
  C   C1217     1.0  0.26986  0.71329  0.40684  1.0000
  C   C1218     1.0  0.11906  0.53235  0.78422  1.0000
  S   S160      1.0  0.24113  0.56439  0.82801  1.0000
  C   C1219     1.0  0.42215  0.59165  0.40357  1.0000
  C   C1220     1.0  0.28830  0.74344  0.52305  1.0000
  C   C1221     1.0  0.25645  0.52372  0.70856  1.0000
  H   H970      1.0  0.45235  0.57675  0.53629  1.0000
  S   S161      1.0  0.41550  0.62735  0.73575  1.0000
  H   H971      1.0  0.17464  0.64565  0.48518  1.0000
  C   C1222     1.0  0.00144  0.55885  0.60675  1.0000
  C   C1223     1.0  0.05355  0.70444  0.66323  1.0000
  C   C1224     1.0  0.30928  0.53770  0.64064  1.0000
  C   C1225     1.0  0.29727  0.65357  0.55411  1.0000
  C   C1226     1.0  0.14001  0.75361  0.76332  1.0000
  C   C1227     1.0  0.46391  0.71655  0.46163  1.0000
  C   C1228     1.0  0.09720  0.54092  0.50101  1.0000
  C   C1229     1.0  0.41257  0.63705  0.60179  1.0000
  C   C1230     1.0  0.34805  0.62584  0.63796  1.0000
  H   H972      1.0  0.46803  0.54565  0.49826  1.0000
  H   H973      1.0  0.13690  0.57311  0.69743  1.0000
  H   H974      1.0  0.17324  0.62156  0.66545  1.0000
  C   C1231     1.0  0.47249  0.53103  0.50816  1.0000
  H   H975      1.0  0.46509  0.71341  0.42770  1.0000
  H   H976      1.0  0.99566  0.71763  0.55986  1.0000
  C   C1232     1.0  0.33098  0.62906  0.71290  1.0000
  C   C1233     1.0  0.29720  0.63374  0.49200  1.0000
  H   H977      1.0  0.07901  0.67916  0.84598  1.0000
  Fe  Fe78      1.0  0.37335  0.61184  0.85737  1.0000
  S   S162      1.0  0.05899  0.60471  0.78352  1.0000
  C   C1234     1.0  0.21573  0.57095  0.59761  1.0000
  Fe  Fe79      1.0  0.25066  0.60053  0.84630  1.0000
  C   C1235     1.0  0.22949  0.53700  0.68563  1.0000
  C   C1236     1.0  0.16797  0.68116  0.69110  1.0000
  H   H978      1.0  0.35732  0.66041  0.65688  1.0000
  H   H979      1.0  0.20367  0.70872  0.68157  1.0000
  H   H980      1.0  0.03935  0.62365  0.70449  1.0000
  C   C1237     1.0  0.33445  0.59990  0.65299  1.0000
  H   H981      1.0  0.21929  0.71811  0.59556  1.0000
  H   H982      1.0  0.43555  0.59393  0.65410  1.0000
  H   H983      1.0  0.03773  0.69466  0.60913  1.0000
  H   H984      1.0  0.43624  0.73690  0.54005  1.0000
  H   H985      1.0  0.16967  0.57896  0.79075  1.0000
  H   H986      1.0  0.05520  0.54677  0.65095  1.0000
  H   H987      1.0  0.02942  0.73023  0.59739  1.0000
  C   C1238     1.0  0.29583  0.54494  0.77759  1.0000
  S   S163      1.0  0.08900  0.52315  0.79189  1.0000
  C   C1239     1.0  0.15806  0.56176  0.78477  1.0000
  H   H988      1.0  0.02096  0.62742  0.57653  1.0000
  H   H989      1.0  0.05929  0.74646  0.80734  1.0000
  C   C1240     1.0  0.42022  0.53077  0.81553  1.0000
  C   C1241     1.0  0.06180  0.52028  0.69125  1.0000
  C   C1242     1.0  0.22634  0.76251  0.63169  1.0000
  H   H990      1.0  0.48096  0.69418  0.88946  1.0000
  H   H991      1.0  0.21596  0.76207  0.70314  1.0000
  C   C1243     1.0  0.49261  0.70789  0.75488  1.0000
  C   C1244     1.0  0.00554  0.75406  0.89351  1.0000
  C   C1245     1.0  0.00376  0.64200  0.79599  1.0000
  C   C1246     1.0  0.33077  0.76346  0.48689  1.0000
  H   H992      1.0  0.48599  0.62785  0.67219  1.0000
  H   H993      1.0  0.49130  0.74254  0.84495  1.0000
  C   C1247     1.0  0.42411  0.72392  0.89216  1.0000
  Fe  Fe80      1.0  0.14334  0.52649  0.39546  1.0000
  H   H994      1.0  0.99404  0.64695  0.82212  1.0000
  H   H995      1.0  0.00008  0.76624  0.43796  1.0000
  C   C1248     1.0  0.02641  0.71250  0.27785  1.0000
  C   C1249     1.0  0.20890  0.56883  0.21116  1.0000
  H   H996      1.0  0.00126  0.60612  0.11991  1.0000
  H   H997      1.0  0.43260  0.73341  0.95334  1.0000
  C   C1250     1.0  0.37196  0.52154  0.02754  1.0000
  C   C1251     1.0  0.20177  0.73930  0.27135  1.0000
  C   C1252     1.0  0.16856  0.53331  0.05564  1.0000
  H   H998      1.0  0.29242  0.60945  0.08425  1.0000
  C   C1253     1.0  0.34478  0.70649  0.38773  1.0000
  C   C1254     1.0  0.40771  0.57464  0.00979  1.0000
  H   H999      1.0  0.09094  0.72335  0.95102  1.0000
  C   C1255     1.0  0.49231  0.55347  0.93122  1.0000
  C   C1256     1.0  0.06476  0.53257  0.97481  1.0000
  C   C1257     1.0  0.99745  0.66278  0.07295  1.0000
  C   C1258     1.0  0.31142  0.69546  0.90745  1.0000
  H   H1000     1.0  0.40219  0.53649  0.96610  1.0000
  Fe  Fe81      1.0  0.10389  0.72400  0.37414  1.0000
  C   C1259     1.0  0.07233  0.69756  0.30808  1.0000
  H   H1001     1.0  0.02390  0.70176  0.34925  1.0000
  H   H1002     1.0  0.35099  0.74024  0.03585  1.0000
  S   S164      1.0  0.04663  0.58119  0.91983  1.0000
  Fe  Fe82      1.0  0.40479  0.65252  0.31396  1.0000
  C   C1260     1.0  0.44506  0.61511  0.93922  1.0000
  H   H1003     1.0  0.06792  0.53465  0.12903  1.0000
  H   H1004     1.0  0.19842  0.52269  0.13481  1.0000
  H   H1005     1.0  0.03225  0.67373  0.08053  1.0000
  S   S165      1.0  0.23115  0.58270  0.92161  1.0000
  H   H1006     1.0  0.39815  0.56467  0.13116  1.0000
  Fe  Fe83      1.0  0.38180  0.61863  0.25744  1.0000
  C   C1261     1.0  0.44134  0.66327  0.99681  1.0000
  C   C1262     1.0  0.34801  0.53903  0.12970  1.0000
  H   H1007     1.0  0.27760  0.55985  0.30211  1.0000
  C   C1263     1.0  0.07998  0.54940  0.09815  1.0000
  C   C1264     1.0  0.23386  0.66071  0.94421  1.0000
  C   C1265     1.0  0.07067  0.73621  0.91670  1.0000
  C   C1266     1.0  0.28575  0.69319  0.28989  1.0000
  S   S166      1.0  0.38466  0.70091  0.19678  1.0000
  C   C1267     1.0  0.37514  0.68634  0.94735  1.0000
  C   C1268     1.0  0.49262  0.56996  0.22414  1.0000
  C   C1269     1.0  0.07619  0.75692  0.16475  1.0000
  C   C1270     1.0  0.13545  0.58652  0.11820  1.0000
  H   H1008     1.0  0.19500  0.58423  0.08658  1.0000
  Fe  Fe84      1.0  0.21899  0.54677  0.90181  1.0000
  H   H1009     1.0  0.12869  0.75221  0.01748  1.0000
  H   H1010     1.0  0.05454  0.66157  0.35703  1.0000
  H   H1011     1.0  0.46812  0.67723  0.21363  1.0000
  C   C1271     1.0  0.04123  0.52774  0.99198  1.0000
  C   C1272     1.0  0.16114  0.52042  0.10226  1.0000
  C   C1273     1.0  0.24587  0.59904  0.04158  1.0000
  S   S167      1.0  0.07171  0.71363  0.35025  1.0000
  H   H1012     1.0  0.23542  0.68903  0.16051  1.0000
  C   C1274     1.0  0.02819  0.70543  0.05340  1.0000
  C   C1275     1.0  0.99625  0.52510  0.94405  1.0000
  C   C1276     1.0  0.26529  0.61207  0.05695  1.0000
  H   H1013     1.0  0.40415  0.63766  0.00926  1.0000
  H   H1014     1.0  0.03586  0.64173  0.12873  1.0000
  H   H1015     1.0  0.36001  0.57369  0.02168  1.0000
  H   H1016     1.0  0.27231  0.69743  0.10364  1.0000
  C   C1277     1.0  0.36746  0.65358  0.01289  1.0000
  H   H1017     1.0  0.19722  0.61658  0.17226  1.0000
  C   C1278     1.0  0.29867  0.66973  0.91486  1.0000
  C   C1279     1.0  0.08020  0.69737  0.22769  1.0000
  S   S168      1.0  0.03308  0.58420  0.19674  1.0000
  C   C1280     1.0  0.45808  0.57700  0.28183  1.0000
  C   C1281     1.0  0.09026  0.73212  0.10549  1.0000
  C   C1282     1.0  0.05168  0.67674  0.95525  1.0000
  C   C1283     1.0  0.42208  0.65392  0.93739  1.0000
  C   C1284     1.0  0.12841  0.67470  0.23820  1.0000
  H   H1018     1.0  0.09789  0.59474  0.20262  1.0000
  C   C1285     1.0  0.24357  0.66525  0.05961  1.0000
  H   H1019     1.0  0.08799  0.61776  0.14075  1.0000
  C   C1286     1.0  0.23850  0.57407  0.04218  1.0000
  H   H1020     1.0  0.19674  0.70088  0.12859  1.0000
  H   H1021     1.0  0.99605  0.76069  0.01811  1.0000
  C   C1287     1.0  0.99785  0.64764  0.32051  1.0000
  C   C1288     1.0  0.29504  0.58470  0.34039  1.0000
  H   H1022     1.0  0.49104  0.73243  0.10929  1.0000
  C   C1289     1.0  0.45227  0.71297  0.02844  1.0000
  C   C1290     1.0  0.14326  0.66450  0.12345  1.0000
  H   H1023     1.0  0.23654  0.60825  0.02871  1.0000
  H   H1024     1.0  0.12784  0.56438  0.00719  1.0000
  C   C1291     1.0  0.22280  0.67390  0.96236  1.0000
  H   H1025     1.0  0.30338  0.69821  0.01848  1.0000
  H   H1026     1.0  0.12808  0.64049  0.26784  1.0000
  H   H1027     1.0  0.17727  0.56958  0.20321  1.0000
  H   H1028     1.0  0.08973  0.52461  0.27215  1.0000
  H   H1029     1.0  0.21489  0.65100  0.32728  1.0000
  C   C1292     1.0  0.02183  0.58614  0.93564  1.0000
  H   H1030     1.0  0.33428  0.62004  0.03024  1.0000
  S   S169      1.0  0.17772  0.59646  0.94847  1.0000
  C   C1293     1.0  0.06167  0.63356  0.08925  1.0000
  C   C1294     1.0  0.31687  0.72563  0.22334  1.0000
  H   H1031     1.0  0.16542  0.61139  0.37442  1.0000
  C   C1295     1.0  0.25041  0.56192  0.05814  1.0000
  Fe  Fe85      1.0  0.16554  0.57474  0.31911  1.0000
  C   C1296     1.0  0.44454  0.59865  0.37382  1.0000
  C   C1297     1.0  0.36026  0.55136  0.08284  1.0000
  Fe  Fe86      1.0  0.19685  0.55518  0.35169  1.0000
  H   H1032     1.0  0.18952  0.67328  0.99113  1.0000
  C   C1298     1.0  0.19524  0.62613  0.95416  1.0000
  H   H1033     1.0  0.47509  0.74511  0.92305  1.0000
  P   P45       1.0  0.43929  0.66268  0.05656  1.0000
  H   H1034     1.0  0.48583  0.61324  0.13184  1.0000
  C   C1299     1.0  0.25369  0.56976  0.34353  1.0000
  C   C1300     1.0  0.20131  0.53593  0.15539  1.0000
  H   H1035     1.0  0.23779  0.63896  0.26953  1.0000
  H   H1036     1.0  0.37907  0.71209  0.34908  1.0000
  H   H1037     1.0  0.16994  0.68479  0.05747  1.0000
  C   C1301     1.0  0.01817  0.60230  0.90500  1.0000
  C   C1302     1.0  0.22935  0.76007  0.31152  1.0000
  C   C1303     1.0  0.19804  0.66301  0.97738  1.0000
  H   H1038     1.0  0.04508  0.68693  0.97466  1.0000
  H   H1039     1.0  0.39539  0.75025  0.20364  1.0000
  C   C1304     1.0  0.21287  0.67745  0.27652  1.0000
  H   H1040     1.0  0.48821  0.76446  0.05519  1.0000
  C   C1305     1.0  0.12020  0.64558  0.14662  1.0000
  H   H1041     1.0  0.04587  0.71878  0.05151  1.0000
  C   C1306     1.0  0.00684  0.57556  0.98108  1.0000
  C   C1307     1.0  0.32020  0.51703  0.28554  1.0000
  H   H1042     1.0  0.05334  0.70732  0.12077  1.0000
  H   H1043     1.0  0.23268  0.53491  0.16404  1.0000
  C   C1308     1.0  0.05543  0.63950  0.95298  1.0000
  C   C1309     1.0  0.17828  0.58469  0.09579  1.0000
  C   C1310     1.0  0.10385  0.62598  0.94818  1.0000
  H   H1044     1.0  0.00956  0.56297  0.00469  1.0000
  C   C1311     1.0  0.16041  0.64353  0.36964  1.0000
  C   C1312     1.0  0.46237  0.70159  0.28257  1.0000
  C   C1313     1.0  0.02297  0.59357  0.07937  1.0000
  C   C1314     1.0  0.30536  0.59323  0.91002  1.0000
  C   C1315     1.0  0.01909  0.67554  0.19820  1.0000
  C   C1316     1.0  0.48436  0.72294  0.26100  1.0000
  C   C1317     1.0  0.06173  0.67158  0.32094  1.0000
  H   H1045     1.0  0.46533  0.61910  0.98680  1.0000
  S   S170      1.0  0.37923  0.66806  0.31900  1.0000
  H   H1046     1.0  0.14508  0.66111  0.01389  1.0000
  C   C1318     1.0  0.45427  0.74631  0.17499  1.0000
  H   H1047     1.0  0.36717  0.66219  0.14972  1.0000
  Fe  Fe87      1.0  0.04502  0.56476  0.24499  1.0000
  H   H1048     1.0  0.34272  0.61637  0.16826  1.0000
  H   H1049     1.0  0.03000  0.69769  0.27001  1.0000
  H   H1050     1.0  0.22875  0.62722  0.92421  1.0000
  C   C1319     1.0  0.24718  0.74736  0.13611  1.0000
  C   C1320     1.0  0.31867  0.55297  0.12628  1.0000
  C   C1321     1.0  0.05890  0.73592  0.15709  1.0000
  H   H1051     1.0  0.28899  0.70660  0.16742  1.0000
  C   C1322     1.0  0.07883  0.57176  0.08971  1.0000
  Fe  Fe88      1.0  0.20061  0.58486  0.90322  1.0000
  Fe  Fe89      1.0  0.22633  0.72458  0.91576  1.0000
  H   H1052     1.0  0.09421  0.63560  0.32672  1.0000
  C   C1323     1.0  0.11273  0.58858  0.02137  1.0000
  C   C1324     1.0  0.47563  0.64947  0.05342  1.0000
  H   H1053     1.0  0.03637  0.68178  0.20338  1.0000
  S   S171      1.0  0.16672  0.53874  0.32252  1.0000
  C   C1325     1.0  0.46297  0.67904  0.96220  1.0000
  C   C1326     1.0  0.15591  0.60704  0.08802  1.0000
  C   C1327     1.0  0.33239  0.71621  0.23125  1.0000
  C   C1328     1.0  0.09740  0.54657  0.06807  1.0000
  C   C1329     1.0  0.45417  0.69473  0.05806  1.0000
  H   H1054     1.0  0.42035  0.55533  0.17961  1.0000
  H   H1055     1.0  0.35386  0.52800  0.14949  1.0000
  S   S172      1.0  0.19754  0.59213  0.34244  1.0000
  C   C1330     1.0  0.02044  0.68001  0.06996  1.0000
  H   H1056     1.0  0.12886  0.69771  0.91636  1.0000
  C   C1331     1.0  0.13774  0.65676  0.05088  1.0000
  C   C1332     1.0  0.43280  0.72545  0.17987  1.0000
  H   H1057     1.0  0.01267  0.63758  0.20779  1.0000
  P   P46       1.0  0.45429  0.51994  0.90709  1.0000
  C   C1333     1.0  0.23264  0.65291  0.25836  1.0000
  H   H1058     1.0  0.47063  0.74513  0.16793  1.0000
  H   H1059     1.0  0.04857  0.58470  0.04116  1.0000
  C   C1334     1.0  0.22449  0.55899  0.20051  1.0000
  C   C1335     1.0  0.32399  0.67051  0.14652  1.0000
  C   C1336     1.0  0.44390  0.63163  0.12553  1.0000
  C   C1337     1.0  0.46756  0.53998  0.94156  1.0000
  C   C1338     1.0  0.49156  0.55240  0.37180  1.0000
  C   C1339     1.0  0.31862  0.66834  0.07157  1.0000
  C   C1340     1.0  0.45297  0.54136  0.98045  1.0000
  C   C1341     1.0  0.99589  0.74331  0.17833  1.0000
  C   C1342     1.0  0.17727  0.60604  0.07658  1.0000
  H   H1060     1.0  0.01707  0.73648  0.36825  1.0000
  S   S173      1.0  0.43120  0.65971  0.35315  1.0000
  H   H1061     1.0  0.44420  0.57919  0.30358  1.0000
  C   C1343     1.0  0.29393  0.65390  0.09176  1.0000
  C   C1344     1.0  0.06669  0.52784  0.38570  1.0000
  C   C1345     1.0  0.36127  0.56275  0.24560  1.0000
  C   C1346     1.0  0.45683  0.58530  0.38247  1.0000
  C   C1347     1.0  0.10735  0.75294  0.11363  1.0000
  C   C1348     1.0  0.31504  0.75706  0.05119  1.0000
  C   C1349     1.0  0.47681  0.62234  0.11732  1.0000
  H   H1062     1.0  0.43387  0.53079  0.98937  1.0000
  C   C1350     1.0  0.44857  0.74583  0.38684  1.0000
  H   H1063     1.0  0.22353  0.56406  0.03022  1.0000
  C   C1351     1.0  0.04783  0.65332  0.97779  1.0000
  C   C1352     1.0  0.26987  0.57480  0.07310  1.0000
  H   H1064     1.0  0.35951  0.74061  0.11840  1.0000
  H   H1065     1.0  0.17521  0.53090  0.98572  1.0000
  H   H1066     1.0  0.48413  0.66126  0.01859  1.0000
  H   H1067     1.0  0.02429  0.76435  0.22767  1.0000
  C   C1353     1.0  0.21985  0.65976  0.29090  1.0000
  H   H1068     1.0  0.09609  0.60591  0.95620  1.0000
  H   H1069     1.0  0.07520  0.58950  0.35399  1.0000
  C   C1354     1.0  0.24838  0.74888  0.05652  1.0000
  C   C1355     1.0  0.47336  0.76000  0.37259  1.0000
  H   H1070     1.0  0.44717  0.60782  0.17909  1.0000
  C   C1356     1.0  0.06628  0.64874  0.90545  1.0000
  C   C1357     1.0  0.15840  0.76606  0.95689  1.0000
  H   H1071     1.0  0.23257  0.61274  0.13619  1.0000
  H   H1072     1.0  0.00797  0.57819  0.07539  1.0000
  H   H1073     1.0  0.44829  0.56521  0.90041  1.0000
  H   H1074     1.0  0.09576  0.72214  0.08344  1.0000
  H   H1075     1.0  0.01505  0.53096  0.93435  1.0000
  C   C1358     1.0  0.30127  0.68390  0.29730  1.0000
  H   H1076     1.0  0.08981  0.73060  0.25143  1.0000
  C   C1359     1.0  0.28700  0.71551  0.09903  1.0000
  C   C1360     1.0  0.10506  0.63829  0.98318  1.0000
  C   C1361     1.0  0.02328  0.74991  0.25395  1.0000
  H   H1077     1.0  0.27777  0.63428  0.96392  1.0000
  H   H1078     1.0  0.43740  0.56416  0.23666  1.0000
  H   H1079     1.0  0.12845  0.54635  0.28693  1.0000
  H   H1080     1.0  0.47310  0.68138  0.37990  1.0000
  C   C1362     1.0  0.06001  0.65848  0.28719  1.0000
  H   H1081     1.0  0.01892  0.67523  0.90888  1.0000
  C   C1363     1.0  0.14254  0.70001  0.21588  1.0000
  C   C1364     1.0  0.10464  0.58423  0.22072  1.0000
  C   C1365     1.0  0.47397  0.76540  0.29299  1.0000
  H   H1082     1.0  0.28129  0.72097  0.24802  1.0000
  C   C1366     1.0  0.09492  0.59140  0.05067  1.0000
  C   C1367     1.0  0.29253  0.59818  0.37201  1.0000
  H   H1083     1.0  0.99869  0.62279  0.89795  1.0000
  H   H1084     1.0  0.45184  0.55650  0.03922  1.0000
  C   C1368     1.0  0.18553  0.54562  0.16618  1.0000
  C   C1369     1.0  0.15776  0.56385  0.12577  1.0000
  C   C1370     1.0  0.99843  0.75857  0.98350  1.0000
  C   C1371     1.0  0.37083  0.61103  0.12906  1.0000
  C   C1372     1.0  0.02543  0.72934  0.24343  1.0000
  C   C1373     1.0  0.29601  0.73372  0.05730  1.0000
  H   H1085     1.0  0.10932  0.66635  0.24557  1.0000
  Fe  Fe90      1.0  0.04483  0.61425  0.23322  1.0000
  H   H1086     1.0  0.25300  0.66940  0.93146  1.0000
  H   H1087     1.0  0.43270  0.70829  0.17563  1.0000
  S   S174      1.0  0.00989  0.54516  0.29911  1.0000
  C   C1374     1.0  0.13894  0.66016  0.25075  1.0000
  H   H1088     1.0  0.45945  0.63063  0.91179  1.0000
  H   H1089     1.0  0.47892  0.68968  0.97072  1.0000
  H   H1090     1.0  0.24791  0.65816  0.18625  1.0000
  C   C1375     1.0  0.36755  0.74593  0.00968  1.0000
  H   H1091     1.0  0.44150  0.70778  0.00576  1.0000
  H   H1092     1.0  0.46325  0.75210  0.00416  1.0000
  H   H1093     1.0  0.06584  0.57391  0.11451  1.0000
  H   H1094     1.0  0.05161  0.63842  0.29754  1.0000
  C   C1376     1.0  0.01921  0.60951  0.10410  1.0000
  C   C1377     1.0  0.22310  0.66681  0.07965  1.0000
  H   H1095     1.0  0.24432  0.54242  0.05944  1.0000
  C   C1378     1.0  0.33143  0.73435  0.35455  1.0000
  H   H1096     1.0  0.09874  0.52953  0.07515  1.0000
  H   H1097     1.0  0.43353  0.52333  0.16960  1.0000
  H   H1098     1.0  0.12018  0.54923  0.16014  1.0000
  C   C1379     1.0  0.27563  0.57040  0.32637  1.0000
  C   C1380     1.0  0.36569  0.71820  0.35064  1.0000
  C   C1381     1.0  0.22082  0.54279  0.17221  1.0000
  C   C1382     1.0  0.21783  0.73229  0.24764  1.0000
  H   H1099     1.0  0.38770  0.57172  0.96094  1.0000
  S   S175      1.0  0.41207  0.65714  0.23793  1.0000
  H   H1100     1.0  0.31886  0.74151  0.35593  1.0000
  H   H1101     1.0  0.40332  0.76026  0.09042  1.0000
  C   C1383     1.0  0.46447  0.73803  0.02757  1.0000
  H   H1102     1.0  0.07639  0.64928  0.09337  1.0000
  C   C1384     1.0  0.44831  0.60862  0.98153  1.0000
  H   H1103     1.0  0.03863  0.64566  0.01428  1.0000
  C   C1385     1.0  0.06354  0.68659  0.90778  1.0000
  C   C1386     1.0  0.40346  0.55047  0.12658  1.0000
  C   C1387     1.0  0.47617  0.69299  0.34681  1.0000
  H   H1104     1.0  0.21978  0.68111  0.06253  1.0000
  H   H1105     1.0  0.29532  0.66785  0.32583  1.0000
  H   H1106     1.0  0.12612  0.60377  0.99235  1.0000
  C   C1388     1.0  0.11429  0.63816  0.07394  1.0000
  C   C1389     1.0  0.42302  0.60208  0.93259  1.0000
  C   C1390     1.0  0.06033  0.76342  0.38459  1.0000
  H   H1107     1.0  0.43217  0.51791  0.34115  1.0000
  C   C1391     1.0  0.29653  0.72080  0.13516  1.0000
  C   C1392     1.0  0.99750  0.63794  0.36455  1.0000
  H   H1108     1.0  0.04623  0.75879  0.09260  1.0000
  H   H1109     1.0  0.21135  0.58094  0.23396  1.0000
  C   C1393     1.0  0.43918  0.73156  0.91960  1.0000
  C   C1394     1.0  0.40984  0.76142  0.94020  1.0000
  P   P47       1.0  0.27447  0.64430  0.05608  1.0000
  C   C1395     1.0  0.23833  0.66368  0.21145  1.0000
  S   S176      1.0  0.06430  0.54335  0.22531  1.0000
  C   C1396     1.0  0.11258  0.63958  0.90205  1.0000
  C   C1397     1.0  0.01034  0.69244  0.18905  1.0000
  C   C1398     1.0  0.48763  0.56893  0.99850  1.0000
  S   S177      1.0  0.23964  0.70507  0.96103  1.0000
  S   S178      1.0  0.13979  0.73429  0.32859  1.0000
  H   H1110     1.0  0.35253  0.68812  0.08276  1.0000
  Fe  Fe91      1.0  0.35102  0.62883  0.33288  1.0000
  C   C1399     1.0  0.38233  0.67728  0.98267  1.0000
  H   H1111     1.0  0.46823  0.55780  0.18499  1.0000
  H   H1112     1.0  0.32645  0.67305  0.03484  1.0000
  C   C1400     1.0  0.23984  0.73960  0.25607  1.0000
  H   H1113     1.0  0.29749  0.57458  0.93220  1.0000
  C   C1401     1.0  0.12189  0.67768  0.92529  1.0000
  H   H1114     1.0  0.33677  0.68844  0.27388  1.0000
  C   C1402     1.0  0.10584  0.63231  0.12209  1.0000
  C   C1403     1.0  0.42381  0.52757  0.14807  1.0000
  C   C1404     1.0  0.36088  0.62536  0.14591  1.0000
  C   C1405     1.0  0.25911  0.75825  0.08903  1.0000
  C   C1406     1.0  0.16518  0.62542  0.39114  1.0000
  C   C1407     1.0  0.48242  0.67285  0.20202  1.0000
  H   H1115     1.0  0.45203  0.61423  0.34354  1.0000
  S   S179      1.0  0.34703  0.60063  0.92615  1.0000
  C   C1408     1.0  0.33793  0.64776  0.97363  1.0000
  P   P48       1.0  0.09515  0.62122  0.04284  1.0000
  C   C1409     1.0  0.40853  0.64835  0.09116  1.0000
  H   H1116     1.0  0.15666  0.64280  0.33718  1.0000
  H   H1117     1.0  0.46254  0.63485  0.24324  1.0000
  H   H1118     1.0  0.21746  0.67924  0.38748  1.0000
  H   H1119     1.0  0.33554  0.67713  0.16763  1.0000
  H   H1120     1.0  0.01955  0.73347  0.02658  1.0000
  C   C1410     1.0  0.45834  0.68658  0.32543  1.0000
  H   H1121     1.0  0.47703  0.54180  0.35934  1.0000
  C   C1411     1.0  0.06092  0.75263  0.91464  1.0000
  C   C1412     1.0  0.48007  0.72693  0.08695  1.0000
  C   C1413     1.0  0.44369  0.66970  0.90337  1.0000
  C   C1414     1.0  0.36943  0.73037  0.98199  1.0000
  Fe  Fe92      1.0  0.18832  0.73932  0.90877  1.0000
  C   C1415     1.0  0.33353  0.67678  0.09873  1.0000
  H   H1122     1.0  0.15521  0.62367  0.07326  1.0000
  H   H1123     1.0  0.09388  0.74966  0.00441  1.0000
  H   H1124     1.0  0.32084  0.63614  0.96978  1.0000
  C   C1416     1.0  0.29961  0.65530  0.16718  1.0000
  C   C1417     1.0  0.03859  0.62957  0.10884  1.0000
  H   H1125     1.0  0.10365  0.66098  0.38130  1.0000
  C   C1418     1.0  0.35145  0.56458  0.05804  1.0000
  C   C1419     1.0  0.21035  0.63033  0.14112  1.0000
  H   H1126     1.0  0.32381  0.57506  0.05989  1.0000
  H   H1127     1.0  0.19070  0.65070  0.13624  1.0000
  C   C1420     1.0  0.44922  0.75214  0.30679  1.0000
  C   C1421     1.0  0.27738  0.59983  0.07240  1.0000
  S   S180      1.0  0.22980  0.55191  0.32497  1.0000
  C   C1422     1.0  0.34376  0.52807  0.38726  1.0000
  S   S181      1.0  0.38716  0.59116  0.22254  1.0000
  C   C1423     1.0  0.22008  0.63689  0.93980  1.0000
  H   H1128     1.0  0.16520  0.63117  0.98392  1.0000
  H   H1129     1.0  0.32280  0.72564  0.93919  1.0000
  H   H1130     1.0  0.48737  0.73479  0.22825  1.0000
  C   C1424     1.0  0.06895  0.67135  0.24050  1.0000
  H   H1131     1.0  0.38613  0.74764  0.28780  1.0000
  C   C1425     1.0  0.39077  0.73789  0.94755  1.0000
  C   C1426     1.0  0.01957  0.73455  0.33349  1.0000
  C   C1427     1.0  0.23117  0.68119  0.19694  1.0000
  H   H1132     1.0  0.42767  0.62980  0.14762  1.0000
  H   H1133     1.0  0.25575  0.67872  0.02746  1.0000
  C   C1428     1.0  0.40511  0.51935  0.08812  1.0000
  H   H1134     1.0  0.17109  0.65926  0.25253  1.0000
  H   H1135     1.0  0.25551  0.75556  0.16049  1.0000
  H   H1136     1.0  0.01084  0.64861  0.29091  1.0000
  C   C1429     1.0  0.08170  0.71049  0.26143  1.0000
  C   C1430     1.0  0.17781  0.69658  0.22086  1.0000
  C   C1431     1.0  0.32457  0.69543  0.26799  1.0000
  S   S182      1.0  0.00933  0.59862  0.28588  1.0000
  C   C1432     1.0  0.20666  0.64962  0.12078  1.0000
  C   C1433     1.0  0.21840  0.68821  0.22941  1.0000
  H   H1137     1.0  0.26772  0.68436  0.31272  1.0000
  H   H1138     1.0  0.31797  0.53013  0.18737  1.0000
  C   C1434     1.0  0.16352  0.67099  0.24205  1.0000
  H   H1139     1.0  0.27891  0.56519  0.08567  1.0000
  C   C1435     1.0  0.18428  0.63921  0.97316  1.0000
  S   S183      1.0  0.05906  0.59589  0.27785  1.0000
  C   C1436     1.0  0.48717  0.63769  0.07236  1.0000
  H   H1140     1.0  0.46929  0.68810  0.11170  1.0000
  C   C1437     1.0  0.43650  0.74275  0.35363  1.0000
  C   C1438     1.0  0.41159  0.72696  0.18968  1.0000
  C   C1439     1.0  0.13627  0.56488  0.13692  1.0000
  C   C1440     1.0  0.32880  0.61023  0.90443  1.0000
  C   C1441     1.0  0.35254  0.67160  0.94383  1.0000
  H   H1141     1.0  0.43291  0.58427  0.04911  1.0000
  C   C1442     1.0  0.39798  0.53764  0.09310  1.0000
  C   C1443     1.0  0.41181  0.74914  0.19536  1.0000
  C   C1444     1.0  0.29351  0.71397  0.25314  1.0000
  C   C1445     1.0  0.13549  0.58279  0.25119  1.0000
  C   C1446     1.0  0.22454  0.72660  0.15103  1.0000
  C   C1447     1.0  0.28760  0.65408  0.95963  1.0000
  H   H1142     1.0  0.11323  0.64129  0.18366  1.0000
  C   C1448     1.0  0.18960  0.56234  0.19374  1.0000
  C   C1449     1.0  0.31539  0.74437  0.12947  1.0000
  H   H1143     1.0  0.26604  0.63460  0.15708  1.0000
  H   H1144     1.0  0.23902  0.56340  0.21521  1.0000
  H   H1145     1.0  0.48578  0.63299  0.38562  1.0000
  C   C1450     1.0  0.47943  0.58211  0.29195  1.0000
  C   C1451     1.0  0.45411  0.56843  0.24335  1.0000
  C   C1452     1.0  0.06550  0.61702  0.06591  1.0000
  H   H1146     1.0  0.03761  0.54304  0.99633  1.0000
  H   H1147     1.0  0.34607  0.67830  0.91813  1.0000
  C   C1453     1.0  0.47851  0.74501  0.05654  1.0000
  C   C1454     1.0  0.42968  0.58871  0.01687  1.0000
  C   C1455     1.0  0.39446  0.62244  0.10139  1.0000
  C   C1456     1.0  0.11378  0.56618  0.02976  1.0000
  H   H1148     1.0  0.33947  0.57895  0.27172  1.0000
  C   C1457     1.0  0.30209  0.69005  0.98982  1.0000
  C   C1458     1.0  0.46416  0.68196  0.91582  1.0000
  P   P49       1.0  0.20949  0.71128  0.21167  1.0000
  H   H1149     1.0  0.08751  0.70738  0.19174  1.0000
  S   S184      1.0  0.06542  0.65502  0.19816  1.0000
  H   H1150     1.0  0.03848  0.53757  0.38790  1.0000
  C   C1459     1.0  0.12196  0.55690  0.26799  1.0000
  H   H1151     1.0  0.44000  0.74932  0.28108  1.0000
  H   H1152     1.0  0.31188  0.58501  0.32722  1.0000
  H   H1153     1.0  0.05249  0.62135  0.97026  1.0000
  C   C1460     1.0  0.37467  0.65115  0.13550  1.0000
  C   C1461     1.0  0.07900  0.60071  0.37798  1.0000
  H   H1154     1.0  0.17793  0.73063  0.18995  1.0000
  C   C1462     1.0  0.31948  0.53906  0.28920  1.0000
  H   H1155     1.0  0.13742  0.61641  0.21402  1.0000
  C   C1463     1.0  0.42098  0.65034  0.98387  1.0000
  P   P50       1.0  0.38456  0.54678  0.05326  1.0000
  P   P51       1.0  0.32667  0.75281  0.17654  1.0000
  H   H1156     1.0  0.28744  0.54012  0.01671  1.0000
  H   H1157     1.0  0.13431  0.71124  0.20626  1.0000
  C   C1464     1.0  0.32727  0.71427  0.38984  1.0000
  C   C1465     1.0  0.24773  0.64627  0.08054  1.0000
  H   H1158     1.0  0.28806  0.72989  0.02987  1.0000
  C   C1466     1.0  0.45376  0.64639  0.07974  1.0000
  C   C1467     1.0  0.31316  0.70563  0.94496  1.0000
  H   H1159     1.0  0.20280  0.68252  0.30207  1.0000
  H   H1160     1.0  0.40884  0.68259  0.10219  1.0000
  C   C1468     1.0  0.11346  0.66418  0.97144  1.0000
  C   C1469     1.0  0.16062  0.66254  0.38947  1.0000
  C   C1470     1.0  0.34139  0.51787  0.26177  1.0000
  C   C1471     1.0  0.21403  0.71703  0.11806  1.0000
  S   S185      1.0  0.19056  0.70410  0.90612  1.0000
  H   H1161     1.0  0.25243  0.73430  0.23853  1.0000
  H   H1162     1.0  0.44851  0.69701  0.26626  1.0000
  H   H1163     1.0  0.35064  0.72485  0.20975  1.0000
  C   C1472     1.0  0.25112  0.58329  0.37513  1.0000
  Fe  Fe93      1.0  0.38382  0.66921  0.24449  1.0000
  C   C1473     1.0  0.34004  0.56196  0.26898  1.0000
  C   C1474     1.0  0.10012  0.54461  0.25960  1.0000
  C   C1475     1.0  0.08286  0.73549  0.94899  1.0000
  C   C1476     1.0  0.06614  0.72369  0.12697  1.0000
  C   C1477     1.0  0.34547  0.63867  0.00784  1.0000
  H   H1164     1.0  0.40621  0.64418  0.92771  1.0000
  C   C1478     1.0  0.32739  0.53993  0.15129  1.0000
  C   C1479     1.0  0.46781  0.70181  0.08801  1.0000
  S   S186      1.0  0.16312  0.59829  0.25993  1.0000
  H   H1165     1.0  0.40196  0.61098  0.08912  1.0000
  H   H1166     1.0  0.07944  0.54602  0.38662  1.0000
  C   C1480     1.0  0.28468  0.64683  0.14003  1.0000
  H   H1167     1.0  0.37297  0.64667  0.04016  1.0000
  C   C1481     1.0  0.01993  0.75222  0.29895  1.0000
  H   H1168     1.0  0.19312  0.62183  0.05277  1.0000
  H   H1169     1.0  0.39933  0.68856  0.98709  1.0000
  C   C1482     1.0  0.36990  0.75775  0.12631  1.0000
  C   C1483     1.0  0.22582  0.72833  0.07101  1.0000
  H   H1170     1.0  0.12610  0.75946  0.09733  1.0000
  C   C1484     1.0  0.24542  0.75318  0.28825  1.0000
  C   C1485     1.0  0.23052  0.62836  0.12070  1.0000
  H   H1171     1.0  0.21754  0.72126  0.04554  1.0000
  P   P52       1.0  0.02785  0.72506  0.18606  1.0000
  H   H1172     1.0  0.31697  0.52473  0.99950  1.0000
  H   H1173     1.0  0.26211  0.75827  0.29548  1.0000
  H   H1174     1.0  0.36053  0.59097  0.13902  1.0000
  H   H1175     1.0  0.30246  0.55324  0.14305  1.0000
  H   H1176     1.0  0.07901  0.55153  0.96526  1.0000
  H   H1177     1.0  0.17383  0.55291  0.04504  1.0000
  C   C1486     1.0  0.02965  0.75798  0.11034  1.0000
  C   C1487     1.0  0.16719  0.71089  0.20680  1.0000
  C   C1488     1.0  0.15207  0.67004  0.07559  1.0000
  C   C1489     1.0  0.46302  0.55582  0.00872  1.0000
  C   C1490     1.0  0.09151  0.55832  0.23593  1.0000
  C   C1491     1.0  0.36192  0.54072  0.24187  1.0000
  C   C1492     1.0  0.46329  0.73820  0.90266  1.0000
  C   C1493     1.0  0.35255  0.74623  0.31791  1.0000
  C   C1494     1.0  0.40441  0.58191  0.96751  1.0000
  S   S187      1.0  0.22327  0.75892  0.92242  1.0000
  C   C1495     1.0  0.36964  0.73814  0.31591  1.0000
  C   C1496     1.0  0.00565  0.65038  0.20077  1.0000
  C   C1497     1.0  0.41635  0.54543  0.15385  1.0000
  S   S188      1.0  0.37625  0.61307  0.33331  1.0000
  C   C1498     1.0  0.08466  0.75041  0.97940  1.0000
  P   P53       1.0  0.39344  0.71794  0.91183  1.0000
  C   C1499     1.0  0.12691  0.59643  0.22727  1.0000
  C   C1500     1.0  0.00054  0.60913  0.92082  1.0000
  C   C1501     1.0  0.45513  0.61929  0.14386  1.0000
  C   C1502     1.0  0.47930  0.64896  0.21880  1.0000
  H   H1178     1.0  0.30306  0.53839  0.30749  1.0000
  C   C1503     1.0  0.39844  0.66266  0.10846  1.0000
  C   C1504     1.0  0.04600  0.59726  0.06028  1.0000
  P   P54       1.0  0.15947  0.53599  0.14722  1.0000
  H   H1179     1.0  0.25741  0.75774  0.02006  1.0000
  H   H1180     1.0  0.35417  0.71274  0.98687  1.0000
  S   S189      1.0  0.15524  0.73644  0.95565  1.0000
  H   H1181     1.0  0.15418  0.67492  0.14264  1.0000
  H   H1182     1.0  0.11390  0.67411  0.99777  1.0000
  S   S190      1.0  0.35391  0.63100  0.25844  1.0000
  H   H1183     1.0  0.29231  0.64992  0.20439  1.0000
  C   C1505     1.0  0.28923  0.66411  0.99763  1.0000
  H   H1184     1.0  0.11889  0.58732  0.12697  1.0000
  H   H1185     1.0  0.37835  0.54118  0.22462  1.0000
  C   C1506     1.0  0.47134  0.56482  0.21453  1.0000
  H   H1186     1.0  0.18440  0.73347  0.26712  1.0000
  S   S191      1.0  0.13948  0.56115  0.38948  1.0000
  C   C1507     1.0  0.33073  0.56532  0.07969  1.0000
  Fe  Fe94      1.0  0.02252  0.57776  0.32859  1.0000
  P   P55       1.0  0.48491  0.59326  0.34168  1.0000
  C   C1508     1.0  0.02316  0.71491  0.32284  1.0000
  C   C1509     1.0  0.20763  0.75328  0.30281  1.0000
  C   C1510     1.0  0.38469  0.52139  0.98482  1.0000
  S   S192      1.0  0.15634  0.68556  0.35809  1.0000
  C   C1511     1.0  0.01702  0.74332  0.15583  1.0000
  C   C1512     1.0  0.01319  0.71370  0.03912  1.0000
  C   C1513     1.0  0.08984  0.62659  0.36265  1.0000
  C   C1514     1.0  0.32476  0.76231  0.08701  1.0000
  H   H1187     1.0  0.35604  0.76217  0.29145  1.0000
  H   H1188     1.0  0.41734  0.73315  0.36376  1.0000
  H   H1189     1.0  0.42042  0.60786  0.90025  1.0000
  Fe  Fe95      1.0  0.15399  0.76441  0.36337  1.0000
  H   H1190     1.0  0.34027  0.56001  0.35907  1.0000
  C   C1515     1.0  0.10027  0.76528  0.14322  1.0000
  Fe  Fe96      1.0  0.14227  0.70980  0.38664  1.0000
  H   H1191     1.0  0.00997  0.63109  0.36891  1.0000
  C   C1516     1.0  0.33560  0.54565  0.38969  1.0000
  Fe  Fe97      1.0  0.99861  0.56697  0.25358  1.0000
  C   C1517     1.0  0.07443  0.76617  0.97791  1.0000
  C   C1518     1.0  0.04369  0.52305  0.38646  1.0000
  H   H1192     1.0  0.24527  0.72277  0.38234  1.0000
  S   S193      1.0  0.31699  0.61635  0.38894  1.0000
  H   H1193     1.0  0.19509  0.75851  0.32103  1.0000
  H   H1194     1.0  0.35461  0.52915  0.35437  1.0000
  C   C1519     1.0  0.00915  0.52206  0.14036  1.0000
  H   H1195     1.0  0.15181  0.51958  0.24718  1.0000
  H   H1196     1.0  0.02169  0.52279  0.15894  1.0000
  H   H1197     1.0  0.28826  0.52771  0.90837  1.0000
  H   H1198     1.0  0.23421  0.58289  0.38823  1.0000
  C   C1520     1.0  0.28267  0.52290  0.00670  1.0000
  C   C1521     1.0  0.27049  0.59729  0.38980  1.0000
  C   C1522     1.0  0.24927  0.70791  0.39399  1.0000
  C   C1523     1.0  0.09483  0.64089  0.39382  1.0000
  H   H1199     1.0  0.06286  0.74738  0.39470  1.0000
  C   C1524     1.0  0.16914  0.52081  0.02149  1.0000
  H   H1200     1.0  0.08819  0.51687  0.95751  1.0000
  C   C1525     1.0  0.07476  0.80388  0.55414  1.0000
  C   C1526     1.0  0.24873  0.93065  0.53957  1.0000
  H   H1201     1.0  0.11373  0.90790  0.59262  1.0000
  H   H1202     1.0  0.01005  0.91907  0.68226  1.0000
  C   C1527     1.0  0.23235  0.87025  0.77166  1.0000
  H   H1203     1.0  0.01531  0.85773  0.54049  1.0000
  S   S194      1.0  0.16284  0.84288  0.53776  1.0000
  C   C1528     1.0  0.13418  0.98394  0.52610  1.0000
  H   H1204     1.0  0.22995  0.94406  0.82350  1.0000
  C   C1529     1.0  0.40995  0.91310  0.78605  1.0000
  S   S195      1.0  0.26574  0.83526  0.45509  1.0000
  C   C1530     1.0  0.05276  0.00322  0.81316  1.0000
  Fe  Fe98      1.0  0.13925  0.82344  0.70934  1.0000
  C   C1531     1.0  0.32191  0.85940  0.85880  1.0000
  C   C1532     1.0  0.11856  0.91558  0.71318  1.0000
  P   P56       1.0  0.08031  0.92520  0.62903  1.0000
  H   H1205     1.0  0.22144  0.93191  0.75383  1.0000
  H   H1206     1.0  0.03443  0.91524  0.61747  1.0000
  H   H1207     1.0  0.26924  0.80675  0.62458  1.0000
  C   C1533     1.0  0.48880  0.88446  0.52574  1.0000
  C   C1534     1.0  0.40324  0.83993  0.86259  1.0000
  Fe  Fe99      1.0  0.27055  0.80449  0.49291  1.0000
  H   H1208     1.0  0.44707  0.86492  0.40922  1.0000
  C   C1535     1.0  0.23875  0.93667  0.75802  1.0000
  Fe  Fe100     1.0  0.29815  0.86124  0.47065  1.0000
  H   H1209     1.0  0.28124  0.77871  0.58963  1.0000
  C   C1536     1.0  0.27173  0.00465  0.74797  1.0000
  H   H1210     1.0  0.36739  0.99488  0.73410  1.0000
  H   H1211     1.0  0.20106  0.79756  0.39650  1.0000
  H   H1212     1.0  0.39645  0.82117  0.40745  1.0000
  S   S196      1.0  0.30059  0.83035  0.51432  1.0000
  H   H1213     1.0  0.27200  0.80339  0.89066  1.0000
  H   H1214     1.0  0.33018  0.98325  0.71432  1.0000
  C   C1537     1.0  0.28544  0.78271  0.62065  1.0000
  S   S197      1.0  0.34185  0.88005  0.88175  1.0000
  H   H1215     1.0  0.06710  0.91847  0.79075  1.0000
  H   H1216     1.0  0.33616  0.94783  0.48339  1.0000
  Fe  Fe101     1.0  0.18563  0.87306  0.67093  1.0000
  P   P57       1.0  0.44569  0.88545  0.54960  1.0000
  S   S198      1.0  0.24412  0.76742  0.54056  1.0000
  C   C1538     1.0  0.19004  0.96626  0.67045  1.0000
  C   C1539     1.0  0.08602  0.79579  0.52160  1.0000
  H   H1217     1.0  0.39052  0.93414  0.88432  1.0000
  S   S199      1.0  0.47702  0.85288  0.80975  1.0000
  C   C1540     1.0  0.15435  0.80512  0.49607  1.0000
  C   C1541     1.0  0.31980  0.78613  0.82604  1.0000
  H   H1218     1.0  0.30747  0.78146  0.85978  1.0000
  C   C1542     1.0  0.08219  0.80467  0.69908  1.0000
  H   H1219     1.0  0.12264  0.97330  0.59991  1.0000
  C   C1543     1.0  0.26519  0.94765  0.80454  1.0000
  H   H1220     1.0  0.42592  0.94457  0.61653  1.0000
  C   C1544     1.0  0.11869  0.96830  0.56925  1.0000
  H   H1221     1.0  0.00003  0.83611  0.63693  1.0000
  C   C1545     1.0  0.07321  0.78001  0.49806  1.0000
  C   C1546     1.0  0.30194  0.77659  0.68237  1.0000
  H   H1222     1.0  0.28649  0.99212  0.48895  1.0000
  C   C1547     1.0  0.19927  0.95045  0.68346  1.0000
  C   C1548     1.0  0.41890  0.92763  0.81509  1.0000
  C   C1549     1.0  0.03523  0.89790  0.62205  1.0000
  H   H1223     1.0  0.49169  0.85318  0.43402  1.0000
  H   H1224     1.0  0.34673  0.93357  0.85380  1.0000
  C   C1550     1.0  0.31267  0.77240  0.79482  1.0000
  C   C1551     1.0  0.35990  0.97834  0.72228  1.0000
  C   C1552     1.0  0.37269  0.01494  0.86232  1.0000
  H   H1225     1.0  0.25252  0.93151  0.69285  1.0000
  S   S200      1.0  0.20323  0.80138  0.70385  1.0000
  C   C1553     1.0  0.05704  0.87483  0.62999  1.0000
  C   C1554     1.0  0.43509  0.91806  0.59147  1.0000
  Fe  Fe102     1.0  0.16700  0.84157  0.60813  1.0000
  H   H1226     1.0  0.08434  0.97602  0.61860  1.0000
  C   C1555     1.0  0.32632  0.90935  0.51111  1.0000
  H   H1227     1.0  0.08507  0.81643  0.57161  1.0000
  C   C1556     1.0  0.27844  0.89412  0.88095  1.0000
  H   H1228     1.0  0.10730  0.94989  0.45844  1.0000
  H   H1229     1.0  0.03269  0.87616  0.80866  1.0000
  S   S201      1.0  0.46591  0.84404  0.71490  1.0000
  H   H1230     1.0  0.40579  0.91779  0.45945  1.0000
  H   H1231     1.0  0.46056  0.77924  0.47289  1.0000
  C   C1557     1.0  0.20228  0.89557  0.39588  1.0000
  C   C1558     1.0  0.15591  0.85163  0.84432  1.0000
  H   H1232     1.0  0.35145  0.88899  0.58287  1.0000
  C   C1559     1.0  0.40320  0.78099  0.46136  1.0000
  H   H1233     1.0  0.46580  0.88081  0.87071  1.0000
  H   H1234     1.0  0.37292  0.93383  0.69076  1.0000
  H   H1235     1.0  0.05707  0.78647  0.81521  1.0000
  C   C1560     1.0  0.11473  0.90984  0.62651  1.0000
  H   H1236     1.0  0.01397  0.81703  0.56304  1.0000
  C   C1561     1.0  0.17901  0.91320  0.48156  1.0000
  H   H1237     1.0  0.37721  0.85187  0.85531  1.0000
  S   S202      1.0  0.10414  0.80016  0.76413  1.0000
  H   H1238     1.0  0.23634  0.82746  0.87177  1.0000
  C   C1562     1.0  0.31436  0.97520  0.85547  1.0000
  H   H1239     1.0  0.31015  0.93352  0.40060  1.0000
  C   C1563     1.0  0.47261  0.90694  0.76805  1.0000
  H   H1240     1.0  0.02755  0.92254  0.77180  1.0000
  C   C1564     1.0  0.07198  0.96403  0.65178  1.0000
  C   C1565     1.0  0.03709  0.85305  0.63244  1.0000
  P   P58       1.0  0.44082  0.97219  0.83845  1.0000
  C   C1566     1.0  0.24329  0.94364  0.46630  1.0000
  H   H1241     1.0  0.06382  0.80756  0.64973  1.0000
  C   C1567     1.0  0.21475  0.80109  0.61424  1.0000
  H   H1242     1.0  0.49112  0.93128  0.53113  1.0000
  C   C1568     1.0  0.05194  0.94362  0.48145  1.0000
  C   C1569     1.0  0.27837  0.94109  0.72994  1.0000
  H   H1243     1.0  0.29413  0.89291  0.73263  1.0000
  H   H1244     1.0  0.39580  0.96258  0.43254  1.0000
  S   S203      1.0  0.43076  0.99780  0.59700  1.0000
  Fe  Fe103     1.0  0.47350  0.81446  0.82405  1.0000
  C   C1570     1.0  0.04609  0.79233  0.40295  1.0000
  H   H1245     1.0  0.17992  0.89587  0.48497  1.0000
  C   C1571     1.0  0.03054  0.90148  0.47574  1.0000
  C   C1572     1.0  0.15786  0.91271  0.50456  1.0000
  H   H1246     1.0  0.26023  0.84454  0.65430  1.0000
  C   C1573     1.0  0.03734  0.77967  0.54081  1.0000
  C   C1574     1.0  0.33079  0.89285  0.53900  1.0000
  C   C1575     1.0  0.05177  0.92350  0.46538  1.0000
  Fe  Fe104     1.0  0.15172  0.99121  0.68485  1.0000
  H   H1247     1.0  0.26234  0.88011  0.60056  1.0000
  H   H1248     1.0  0.32738  0.95220  0.58844  1.0000
  H   H1249     1.0  0.09899  0.81076  0.67334  1.0000
  H   H1250     1.0  0.09881  0.80696  0.86723  1.0000
  C   C1576     1.0  0.12922  0.80088  0.85246  1.0000
  C   C1577     1.0  0.41207  0.92448  0.74147  1.0000
  H   H1251     1.0  0.48557  0.87809  0.56236  1.0000
  C   C1578     1.0  0.25014  0.99601  0.73796  1.0000
  H   H1252     1.0  0.17155  0.94503  0.77105  1.0000
  C   C1579     1.0  0.30793  0.85028  0.79352  1.0000
  H   H1253     1.0  0.16659  0.87115  0.84121  1.0000
  C   C1580     1.0  0.28249  0.94625  0.77118  1.0000
  H   H1254     1.0  0.46504  0.90255  0.44808  1.0000
  C   C1581     1.0  0.30788  0.96527  0.63349  1.0000
  C   C1582     1.0  0.16719  0.83705  0.83675  1.0000
  C   C1583     1.0  0.27287  0.97336  0.49351  1.0000
  H   H1255     1.0  0.40113  0.89295  0.79834  1.0000
  H   H1256     1.0  0.24256  0.81133  0.39709  1.0000
  H   H1257     1.0  0.03085  0.95765  0.51919  1.0000
  C   C1584     1.0  0.06251  0.84591  0.80630  1.0000
  H   H1258     1.0  0.07274  0.87359  0.63273  1.0000
  H   H1259     1.0  0.26540  0.98282  0.43099  1.0000
  C   C1585     1.0  0.06233  0.80277  0.68571  1.0000
  C   C1586     1.0  0.26673  0.95472  0.53303  1.0000
  C   C1587     1.0  0.23608  0.01437  0.79353  1.0000
  H   H1260     1.0  0.09094  0.92574  0.71797  1.0000
  H   H1261     1.0  0.37468  0.76879  0.80229  1.0000
  H   H1262     1.0  0.37535  0.82908  0.75928  1.0000
  C   C1588     1.0  0.27853  0.79849  0.64044  1.0000
  C   C1589     1.0  0.17624  0.95754  0.47686  1.0000
  C   C1590     1.0  0.07497  0.84899  0.83866  1.0000
  H   H1263     1.0  0.14267  0.89510  0.52459  1.0000
  H   H1264     1.0  0.38905  0.97051  0.72223  1.0000
  H   H1265     1.0  0.14632  0.90504  0.69873  1.0000
  H   H1266     1.0  0.24364  0.91626  0.57062  1.0000
  H   H1267     1.0  0.47476  0.95419  0.80700  1.0000
  C   C1591     1.0  0.24002  0.86410  0.84528  1.0000
  H   H1268     1.0  0.12765  0.88409  0.43856  1.0000
  C   C1592     1.0  0.48177  0.95654  0.55957  1.0000
  H   H1269     1.0  0.45430  0.81495  0.48470  1.0000
  H   H1270     1.0  0.40647  0.86014  0.43133  1.0000
  H   H1271     1.0  0.19122  0.91836  0.60222  1.0000
  H   H1272     1.0  0.36290  0.80523  0.70309  1.0000
  C   C1593     1.0  0.42320  0.95043  0.72589  1.0000
  C   C1594     1.0  0.30949  0.00426  0.59841  1.0000
  S   S204      1.0  0.17236  0.83971  0.72955  1.0000
  C   C1595     1.0  0.32327  0.00508  0.55632  1.0000
  H   H1273     1.0  0.22275  0.90644  0.51249  1.0000
  H   H1274     1.0  0.41370  0.83815  0.71396  1.0000
  C   C1596     1.0  0.13660  0.89142  0.85659  1.0000
  S   S205      1.0  0.30421  0.89818  0.48399  1.0000
  H   H1275     1.0  0.99504  0.93708  0.73881  1.0000
  C   C1597     1.0  0.45648  0.96006  0.86784  1.0000
  H   H1276     1.0  0.38049  0.80150  0.55854  1.0000
  P   P59       1.0  0.30090  0.94133  0.68391  1.0000
  H   H1277     1.0  0.39795  0.84377  0.56484  1.0000
  C   C1598     1.0  0.27758  0.86684  0.69618  1.0000
  C   C1599     1.0  0.05614  0.89742  0.62551  1.0000
  C   C1600     1.0  0.01787  0.99952  0.57511  1.0000
  C   C1601     1.0  0.41661  0.97146  0.88103  1.0000
  H   H1278     1.0  0.00392  0.98191  0.57550  1.0000
  C   C1602     1.0  0.42677  0.81553  0.62388  1.0000
  H   H1279     1.0  0.14979  0.00085  0.52375  1.0000
  C   C1603     1.0  0.34834  0.90189  0.56078  1.0000
  P   P60       1.0  0.22632  0.93682  0.42629  1.0000
  H   H1280     1.0  0.16905  0.81884  0.46685  1.0000
  C   C1604     1.0  0.19875  0.93248  0.66014  1.0000
  C   C1605     1.0  0.03074  0.94187  0.50743  1.0000
  H   H1281     1.0  0.03845  0.96757  0.74856  1.0000
  S   S206      1.0  0.29376  0.80271  0.43099  1.0000
  Fe  Fe105     1.0  0.11738  0.97273  0.78269  1.0000
  C   C1606     1.0  0.22966  0.77424  0.58651  1.0000
  H   H1282     1.0  0.29874  0.94885  0.77825  1.0000
  C   C1607     1.0  0.44025  0.94126  0.59969  1.0000
  C   C1608     1.0  0.43297  0.98627  0.39616  1.0000
  H   H1283     1.0  0.25074  0.90599  0.43230  1.0000
  H   H1284     1.0  0.11893  0.78150  0.85417  1.0000
  C   C1609     1.0  0.26939  0.88310  0.62929  1.0000
  C   C1610     1.0  0.24198  0.99840  0.57145  1.0000
  C   C1611     1.0  0.23716  0.00018  0.52942  1.0000
  C   C1612     1.0  0.13166  0.83288  0.41906  1.0000
  C   C1613     1.0  0.99841  0.92658  0.67571  1.0000
  C   C1614     1.0  0.34141  0.93669  0.68835  1.0000
  H   H1285     1.0  0.28629  0.89859  0.80742  1.0000
  H   H1286     1.0  0.38790  0.78223  0.45556  1.0000
  C   C1615     1.0  0.18079  0.96448  0.63346  1.0000
  S   S207      1.0  0.15588  0.98294  0.75502  1.0000
  C   C1616     1.0  0.01583  0.85335  0.63241  1.0000
  H   H1287     1.0  0.42783  0.87551  0.65100  1.0000
  C   C1617     1.0  0.00920  0.89940  0.50244  1.0000
  C   C1618     1.0  0.41079  0.96582  0.40436  1.0000
  H   H1288     1.0  0.32941  0.92354  0.79070  1.0000
  C   C1619     1.0  0.24341  0.94307  0.79775  1.0000
  C   C1620     1.0  0.04019  0.88227  0.83532  1.0000
  H   H1289     1.0  0.24295  0.86608  0.41373  1.0000
  H   H1290     1.0  0.21561  0.99431  0.75290  1.0000
  H   H1291     1.0  0.00319  0.01065  0.83879  1.0000
  S   S208      1.0  0.00669  0.84038  0.76473  1.0000
  C   C1621     1.0  0.12920  0.87089  0.42013  1.0000
  H   H1292     1.0  0.07513  0.86282  0.47401  1.0000
  S   S209      1.0  0.09432  0.94329  0.84949  1.0000
  S   S210      1.0  0.15298  0.80554  0.66136  1.0000
  C   C1622     1.0  0.08007  0.79829  0.74588  1.0000
  C   C1623     1.0  0.28752  0.89056  0.70340  1.0000
  H   H1293     1.0  0.12835  0.86033  0.76870  1.0000
  H   H1294     1.0  0.34793  0.79919  0.61990  1.0000
  C   C1624     1.0  0.36302  0.94394  0.69801  1.0000
  C   C1625     1.0  0.26104  0.96794  0.46044  1.0000
  C   C1626     1.0  0.01497  0.87584  0.62662  1.0000
  H   H1295     1.0  0.03803  0.82692  0.47702  1.0000
  S   S211      1.0  0.11255  0.97787  0.71279  1.0000
  C   C1627     1.0  0.18256  0.94832  0.60708  1.0000
  H   H1296     1.0  0.10616  0.85553  0.71234  1.0000
  C   C1628     1.0  0.07400  0.84933  0.76043  1.0000
  C   C1629     1.0  0.06661  0.86408  0.44786  1.0000
  C   C1630     1.0  0.19110  0.93186  0.62102  1.0000
  C   C1631     1.0  0.27927  0.90686  0.63646  1.0000
  H   H1297     1.0  0.12020  0.91811  0.74658  1.0000
  S   S212      1.0  0.43982  0.79686  0.80494  1.0000
  C   C1632     1.0  0.09857  0.94614  0.57286  1.0000
  P   P61       1.0  0.11597  0.85892  0.86599  1.0000
  H   H1298     1.0  0.06848  0.96067  0.47318  1.0000
  H   H1299     1.0  0.41682  0.91846  0.84969  1.0000
  C   C1633     1.0  0.13093  0.90487  0.64342  1.0000
  C   C1634     1.0  0.35340  0.78487  0.62450  1.0000
  H   H1300     1.0  0.14542  0.90070  0.78227  1.0000
  C   C1635     1.0  0.16722  0.94219  0.84307  1.0000
  C   C1636     1.0  0.06168  0.97418  0.68171  1.0000
  C   C1637     1.0  0.07691  0.88578  0.41204  1.0000
  S   S213      1.0  0.20669  0.91038  0.68183  1.0000
  S   S214      1.0  0.45912  0.78896  0.67465  1.0000
  H   H1301     1.0  0.27634  0.85118  0.72005  1.0000
  Fe  Fe106     1.0  0.18680  0.82384  0.67848  1.0000
  H   H1302     1.0  0.44862  0.90637  0.72951  1.0000
  C   C1638     1.0  0.29708  0.77173  0.64149  1.0000
  C   C1639     1.0  0.28280  0.80294  0.68153  1.0000
  H   H1303     1.0  0.48048  0.83162  0.58624  1.0000
  C   C1640     1.0  0.35799  0.81302  0.76905  1.0000
  Fe  Fe107     1.0  0.44469  0.83566  0.78737  1.0000
  H   H1304     1.0  0.04164  0.80221  0.58897  1.0000
  C   C1641     1.0  0.04865  0.77136  0.50819  1.0000
  C   C1642     1.0  0.11013  0.95524  0.48944  1.0000
  C   C1643     1.0  0.33961  0.93501  0.50483  1.0000
  C   C1644     1.0  0.00940  0.91999  0.51727  1.0000
  H   H1305     1.0  0.43231  0.01283  0.80027  1.0000
  H   H1306     1.0  0.12290  0.79954  0.60374  1.0000
  H   H1307     1.0  0.01554  0.97739  0.84145  1.0000
  H   H1308     1.0  0.04379  0.84053  0.81675  1.0000
  H   H1309     1.0  0.45917  0.89056  0.79493  1.0000
  C   C1645     1.0  0.14816  0.90747  0.81201  1.0000
  H   H1310     1.0  0.03682  0.98253  0.60326  1.0000
  C   C1646     1.0  0.19868  0.93586  0.45468  1.0000
  H   H1311     1.0  0.18625  0.84540  0.82771  1.0000
  H   H1312     1.0  0.39457  0.77001  0.56884  1.0000
  H   H1313     1.0  0.41670  0.90380  0.60199  1.0000
  C   C1647     1.0  0.47240  0.95315  0.84322  1.0000
  C   C1648     1.0  0.14766  0.81198  0.53576  1.0000
  H   H1314     1.0  0.47813  0.01471  0.67100  1.0000
  H   H1315     1.0  0.99843  0.87602  0.62692  1.0000
  C   C1649     1.0  0.29452  0.79214  0.70240  1.0000
  H   H1316     1.0  0.24721  0.98557  0.71247  1.0000
  H   H1317     1.0  0.27568  0.95895  0.55891  1.0000
  C   C1650     1.0  0.28882  0.00068  0.87876  1.0000
  C   C1651     1.0  0.28667  0.82078  0.86864  1.0000
  C   C1652     1.0  0.38293  0.87939  0.49682  1.0000
  H   H1318     1.0  0.49339  0.00263  0.80615  1.0000
  C   C1653     1.0  0.11019  0.85722  0.77947  1.0000
  S   S215      1.0  0.38119  0.00030  0.60024  1.0000
  C   C1654     1.0  0.09449  0.93956  0.53261  1.0000
  C   C1655     1.0  0.43488  0.83667  0.58778  1.0000
  C   C1656     1.0  0.29338  0.90319  0.83537  1.0000
  C   C1657     1.0  0.11661  0.76940  0.57185  1.0000
  H   H1319     1.0  0.31308  0.77815  0.53144  1.0000
  C   C1658     1.0  0.05032  0.92408  0.70882  1.0000
  H   H1320     1.0  0.21256  0.97592  0.43476  1.0000
  H   H1321     1.0  0.36784  0.87836  0.48598  1.0000
  C   C1659     1.0  0.49117  0.01235  0.64668  1.0000
  C   C1660     1.0  0.30180  0.98443  0.63689  1.0000
  H   H1322     1.0  0.34821  0.77876  0.48106  1.0000
  S   S216      1.0  0.38299  0.93843  0.58315  1.0000
  H   H1323     1.0  0.06427  0.84685  0.73550  1.0000
  C   C1661     1.0  0.09768  0.85447  0.74729  1.0000
  C   C1662     1.0  0.44398  0.77897  0.47155  1.0000
  C   C1663     1.0  0.04550  0.84383  0.44979  1.0000
  H   H1324     1.0  0.01238  0.98720  0.70002  1.0000
  C   C1664     1.0  0.42190  0.88197  0.52529  1.0000
  C   C1665     1.0  0.13112  0.84073  0.85664  1.0000
  C   C1666     1.0  0.41917  0.83763  0.67865  1.0000
  H   H1325     1.0  0.47910  0.94307  0.66656  1.0000
  C   C1667     1.0  0.03418  0.84526  0.41654  1.0000
  H   H1326     1.0  0.03761  0.79880  0.42805  1.0000
  H   H1327     1.0  0.13209  0.81654  0.43645  1.0000
  C   C1668     1.0  0.21776  0.77054  0.66822  1.0000
  C   C1669     1.0  0.32189  0.96638  0.59117  1.0000
  C   C1670     1.0  0.28894  0.82775  0.82199  1.0000
  C   C1671     1.0  0.47592  0.97900  0.45285  1.0000
  S   S217      1.0  0.35665  0.82817  0.44823  1.0000
  H   H1328     1.0  0.29157  0.98442  0.66924  1.0000
  S   S218      1.0  0.15092  0.85849  0.65513  1.0000
  C   C1672     1.0  0.10185  0.91988  0.69679  1.0000
  C   C1673     1.0  0.05970  0.90619  0.82501  1.0000
  C   C1674     1.0  0.28868  0.91085  0.67335  1.0000
  C   C1675     1.0  0.23699  0.92512  0.50643  1.0000
  H   H1329     1.0  0.07968  0.92213  0.53427  1.0000
  C   C1676     1.0  0.43556  0.85862  0.59700  1.0000
  C   C1677     1.0  0.12992  0.84998  0.44285  1.0000
  H   H1330     1.0  0.34772  0.81739  0.83710  1.0000
  H   H1331     1.0  0.44009  0.92013  0.48398  1.0000
  C   C1678     1.0  0.44058  0.79937  0.47798  1.0000
  C   C1679     1.0  0.46071  0.00413  0.80583  1.0000
  C   C1680     1.0  0.09999  0.91733  0.65309  1.0000
  C   C1681     1.0  0.47184  0.99661  0.47197  1.0000
  C   C1682     1.0  0.16329  0.93271  0.80541  1.0000
  C   C1683     1.0  0.42378  0.90274  0.49541  1.0000
  H   H1332     1.0  0.14237  0.89935  0.62238  1.0000
  H   H1333     1.0  0.04570  0.90458  0.71986  1.0000
  C   C1684     1.0  0.35086  0.79941  0.73750  1.0000
  H   H1334     1.0  0.41828  0.81689  0.47519  1.0000
  H   H1335     1.0  0.17846  0.96190  0.83781  1.0000
  C   C1685     1.0  0.37207  0.78644  0.58981  1.0000
  C   C1686     1.0  0.06674  0.93897  0.66560  1.0000
  C   C1687     1.0  0.46662  0.91595  0.73106  1.0000
  Fe  Fe108     1.0  0.23890  0.77228  0.84533  1.0000
  C   C1688     1.0  0.32942  0.98613  0.55262  1.0000
  C   C1689     1.0  0.32450  0.86604  0.81187  1.0000
  C   C1690     1.0  0.41893  0.81600  0.66931  1.0000
  C   C1691     1.0  0.04594  0.95943  0.72522  1.0000
  C   C1692     1.0  0.15641  0.93486  0.50175  1.0000
  H   H1336     1.0  0.01860  0.77405  0.54821  1.0000
  C   C1693     1.0  0.22095  0.90748  0.41380  1.0000
  C   C1694     1.0  0.25626  0.93609  0.72390  1.0000
  H   H1337     1.0  0.17523  0.97476  0.47511  1.0000
  H   H1338     1.0  0.30978  0.85557  0.75731  1.0000
  C   C1695     1.0  0.30298  0.00693  0.83310  1.0000
  H   H1339     1.0  0.40495  0.91315  0.71918  1.0000
  C   C1696     1.0  0.13320  0.90821  0.68635  1.0000
  H   H1340     1.0  0.32030  0.87307  0.54493  1.0000
  C   C1697     1.0  0.00046  0.89731  0.89229  1.0000
  C   C1698     1.0  0.23893  0.87933  0.80816  1.0000
  C   C1699     1.0  0.03890  0.78929  0.76560  1.0000
  C   C1700     1.0  0.47675  0.93333  0.55163  1.0000
  C   C1701     1.0  0.47204  0.88890  0.50920  1.0000
  C   C1702     1.0  0.21173  0.89073  0.89411  1.0000
  H   H1341     1.0  0.02239  0.78355  0.79121  1.0000
  C   C1703     1.0  0.05040  0.79590  0.56368  1.0000
  C   C1704     1.0  0.36161  0.92750  0.55451  1.0000
  C   C1705     1.0  0.01800  0.92219  0.87797  1.0000
  H   H1342     1.0  0.33525  0.92124  0.67313  1.0000
  C   C1706     1.0  0.22835  0.83054  0.80802  1.0000
  S   S219      1.0  0.12531  0.01157  0.78530  1.0000
  C   C1707     1.0  0.45329  0.91388  0.56734  1.0000
  H   H1343     1.0  0.42477  0.95927  0.69138  1.0000
  H   H1344     1.0  0.36422  0.84148  0.53796  1.0000
  C   C1708     1.0  0.42747  0.85891  0.64273  1.0000
  C   C1709     1.0  0.05846  0.79071  0.77907  1.0000
  C   C1710     1.0  0.40026  0.85982  0.54067  1.0000
  C   C1711     1.0  0.09917  0.85525  0.82524  1.0000
  C   C1712     1.0  0.42982  0.95371  0.80002  1.0000
  H   H1345     1.0  0.44013  0.98503  0.74232  1.0000
  H   H1346     1.0  0.03072  0.88628  0.46210  1.0000
  C   C1713     1.0  0.03654  0.99979  0.59088  1.0000
  C   C1714     1.0  0.06957  0.91416  0.85950  1.0000
  H   H1347     1.0  0.19006  0.97980  0.68900  1.0000
  C   C1715     1.0  0.34243  0.80645  0.81315  1.0000
  C   C1716     1.0  0.38093  0.85854  0.52621  1.0000
  H   H1348     1.0  0.14005  0.93459  0.51907  1.0000
  C   C1717     1.0  0.47708  0.89799  0.46175  1.0000
  H   H1349     1.0  0.29740  0.79584  0.73441  1.0000
  H   H1350     1.0  0.22628  0.80246  0.54282  1.0000
  H   H1351     1.0  0.20353  0.87541  0.87963  1.0000
  H   H1352     1.0  0.44091  0.83602  0.55269  1.0000
  C   C1718     1.0  0.03092  0.86628  0.87998  1.0000
  H   H1353     1.0  0.08253  0.77455  0.47197  1.0000
  H   H1354     1.0  0.43525  0.99907  0.41742  1.0000
  C   C1719     1.0  0.23528  0.83972  0.84434  1.0000
  C   C1720     1.0  0.40434  0.90151  0.48156  1.0000
  H   H1355     1.0  0.14793  0.77526  0.46378  1.0000
  C   C1721     1.0  0.22377  0.79342  0.57776  1.0000
  C   C1722     1.0  0.31523  0.99356  0.82149  1.0000
  C   C1723     1.0  0.41984  0.87462  0.40138  1.0000
  C   C1724     1.0  0.22688  0.84578  0.77187  1.0000
  H   H1356     1.0  0.12930  0.84712  0.47875  1.0000
  Fe  Fe109     1.0  0.32359  0.83087  0.44924  1.0000
  C   C1725     1.0  0.12988  0.97747  0.48614  1.0000
  H   H1357     1.0  0.32417  0.96531  0.84620  1.0000
  S   S220      1.0  0.10270  0.91088  0.41306  1.0000
  C   C1726     1.0  0.23593  0.89700  0.41937  1.0000
  C   C1727     1.0  0.35742  0.94410  0.52614  1.0000
  C   C1728     1.0  0.04003  0.93428  0.73851  1.0000
  C   C1729     1.0  0.43195  0.96502  0.75505  1.0000
  C   C1730     1.0  0.23228  0.00078  0.76089  1.0000
  H   H1358     1.0  0.20592  0.95156  0.71267  1.0000
  C   C1731     1.0  0.32763  0.92336  0.86118  1.0000
  H   H1359     1.0  0.02422  0.93256  0.84233  1.0000
  C   C1732     1.0  0.21226  0.79002  0.65926  1.0000
  H   H1360     1.0  0.22220  0.98484  0.52499  1.0000
  H   H1361     1.0  0.10481  0.80188  0.51428  1.0000
  H   H1362     1.0  0.06649  0.99374  0.67169  1.0000
  C   C1733     1.0  0.00474  0.99924  0.70770  1.0000
  S   S221      1.0  0.41721  0.00692  0.50127  1.0000
  S   S222      1.0  0.16571  0.98116  0.62204  1.0000
  H   H1363     1.0  0.27861  0.01024  0.88817  1.0000
  C   C1734     1.0  0.15390  0.81168  0.84094  1.0000
  C   C1735     1.0  0.33866  0.97151  0.71156  1.0000
  C   C1736     1.0  0.23174  0.87449  0.40851  1.0000
  S   S223      1.0  0.32337  0.86334  0.40652  1.0000
  H   H1364     1.0  0.33908  0.88352  0.78987  1.0000
  C   C1737     1.0  0.48393  0.93673  0.69561  1.0000
  C   C1738     1.0  0.19738  0.95811  0.45379  1.0000
  C   C1739     1.0  0.02871  0.99678  0.82837  1.0000
  S   S224      1.0  0.26801  0.80900  0.79857  1.0000
  H   H1365     1.0  0.43824  0.00753  0.89026  1.0000
  H   H1366     1.0  0.05832  0.98891  0.81393  1.0000
  H   H1367     1.0  0.46741  0.97883  0.58804  1.0000
  H   H1368     1.0  0.27934  0.92189  0.61327  1.0000
  H   H1369     1.0  0.02551  0.79416  0.87269  1.0000
  C   C1740     1.0  0.31788  0.91764  0.82561  1.0000
  H   H1370     1.0  0.99731  0.91621  0.61251  1.0000
  C   C1741     1.0  0.46358  0.96054  0.58355  1.0000
  H   H1371     1.0  0.23107  0.98166  0.59913  1.0000
  C   C1742     1.0  0.37213  0.96458  0.71549  1.0000
  H   H1372     1.0  0.21034  0.81602  0.60729  1.0000
  S   S225      1.0  0.41509  0.84545  0.80313  1.0000
  H   H1373     1.0  0.36757  0.96390  0.52135  1.0000
  H   H1374     1.0  0.43327  0.89116  0.86785  1.0000
  C   C1743     1.0  0.42029  0.80049  0.47255  1.0000
  H   H1375     1.0  0.42707  0.79893  0.61688  1.0000
  H   H1376     1.0  0.34072  0.98721  0.52024  1.0000
  H   H1377     1.0  0.23111  0.88194  0.74343  1.0000
  C   C1744     1.0  0.14234  0.78040  0.49437  1.0000
  C   C1745     1.0  0.38451  0.84492  0.87902  1.0000
  C   C1746     1.0  0.26843  0.86307  0.65926  1.0000
  S   S226      1.0  0.20256  0.85840  0.62044  1.0000
  H   H1378     1.0  0.22173  0.83874  0.74369  1.0000
  C   C1747     1.0  0.11787  0.81537  0.85998  1.0000
  Fe  Fe110     1.0  0.46394  0.80657  0.73336  1.0000
  H   H1379     1.0  0.27656  0.81435  0.69785  1.0000
  C   C1748     1.0  0.32805  0.77899  0.75022  1.0000
  C   C1749     1.0  0.48606  0.94574  0.86493  1.0000
  H   H1380     1.0  0.22427  0.81161  0.80753  1.0000
  Fe  Fe111     1.0  0.39969  0.97980  0.57114  1.0000
  C   C1750     1.0  0.32866  0.94997  0.69659  1.0000
  C   C1751     1.0  0.12868  0.79414  0.57359  1.0000
  H   H1381     1.0  0.14219  0.98943  0.45267  1.0000
  H   H1382     1.0  0.45386  0.99304  0.48692  1.0000
  C   C1752     1.0  0.04064  0.79490  0.71909  1.0000
  S   S227      1.0  0.01561  0.79201  0.70312  1.0000
  S   S228      1.0  0.00769  0.81921  0.42096  1.0000
  C   C1753     1.0  0.48548  0.01386  0.79509  1.0000
  H   H1383     1.0  0.16281  0.80054  0.83454  1.0000
  H   H1384     1.0  0.26840  0.95172  0.83616  1.0000
  H   H1385     1.0  0.24265  0.89803  0.80809  1.0000
  H   H1386     1.0  0.17591  0.94738  0.57776  1.0000
  C   C1754     1.0  0.30314  0.83668  0.88706  1.0000
  H   H1387     1.0  0.32536  0.99711  0.78632  1.0000
  H   H1388     1.0  0.06811  0.92506  0.44438  1.0000
  H   H1389     1.0  0.41333  0.79983  0.69735  1.0000
  H   H1390     1.0  0.46106  0.96228  0.45236  1.0000
  H   H1391     1.0  0.03799  0.83578  0.63568  1.0000
  H   H1392     1.0  0.28515  0.00023  0.73098  1.0000
  H   H1393     1.0  0.00579  0.89898  0.41329  1.0000
  C   C1755     1.0  0.04713  0.77024  0.41676  1.0000
  H   H1394     1.0  0.06543  0.84607  0.87386  1.0000
  C   C1756     1.0  0.00107  0.84150  0.53678  1.0000
  H   H1395     1.0  0.42766  0.82805  0.88121  1.0000
  C   C1757     1.0  0.00026  0.81834  0.55008  1.0000
  H   H1396     1.0  0.36913  0.00368  0.83822  1.0000
  C   C1758     1.0  0.14145  0.90092  0.89420  1.0000
  C   C1759     1.0  0.15640  0.92624  0.88749  1.0000
  P   P62       1.0  0.24670  0.87599  0.89381  1.0000
  S   S229      1.0  0.00786  0.83545  0.89480  1.0000
  C   C1760     1.0  0.02179  0.01542  0.82690  1.0000
  C   C1761     1.0  0.41285  0.83150  0.89364  1.0000
  C   C1762     1.0  0.37989  0.76859  0.59541  1.0000
  H   H1397     1.0  0.26472  0.01653  0.61033  1.0000
  C   C1763     1.0  0.26607  0.95800  0.10084  1.0000
  H   H1398     1.0  0.08576  0.87639  0.91367  1.0000
  H   H1399     1.0  0.48827  0.86930  0.08010  1.0000
  H   H1400     1.0  0.13010  0.79356  0.01518  1.0000
  H   H1401     1.0  0.21865  0.93212  0.29374  1.0000
  C   C1764     1.0  0.43233  0.89123  0.97855  1.0000
  C   C1765     1.0  0.17351  0.88971  0.26415  1.0000
  C   C1766     1.0  0.22268  0.92167  0.23021  1.0000
  C   C1767     1.0  0.41526  0.93274  0.06079  1.0000
  C   C1768     1.0  0.29590  0.79836  0.19324  1.0000
  H   H1402     1.0  0.44168  0.83435  0.00256  1.0000
  S   S230      1.0  0.12780  0.86696  0.02864  1.0000
  C   C1769     1.0  0.20780  0.84116  0.12664  1.0000
  H   H1403     1.0  0.15943  0.93345  0.91689  1.0000
  C   C1770     1.0  0.23211  0.87513  0.26178  1.0000
  H   H1404     1.0  0.35536  0.94780  0.18255  1.0000
  C   C1771     1.0  0.48597  0.76937  0.32580  1.0000
  H   H1405     1.0  0.23293  0.96991  0.01709  1.0000
  H   H1406     1.0  0.46451  0.92670  0.05830  1.0000
  C   C1772     1.0  0.08370  0.95144  0.12332  1.0000
  C   C1773     1.0  0.40829  0.77652  0.96885  1.0000
  C   C1774     1.0  0.30873  0.93178  0.36669  1.0000
  C   C1775     1.0  0.06186  0.83190  0.14615  1.0000
  H   H1407     1.0  0.38780  0.94693  0.30583  1.0000
  H   H1408     1.0  0.47798  0.89821  0.34102  1.0000
  C   C1776     1.0  0.03664  0.91718  0.27072  1.0000
  C   C1777     1.0  0.01579  0.84327  0.06702  1.0000
  H   H1409     1.0  0.41060  0.81610  0.33098  1.0000
  S   S231      1.0  0.07776  0.81572  0.13226  1.0000
  C   C1778     1.0  0.25238  0.82678  0.28153  1.0000
  C   C1779     1.0  0.12909  0.79919  0.22909  1.0000
  H   H1410     1.0  0.47291  0.00216  0.16681  1.0000
  H   H1411     1.0  0.20594  0.93655  0.14270  1.0000
  C   C1780     1.0  0.41533  0.97217  0.05937  1.0000
  H   H1412     1.0  0.03325  0.86272  0.94884  1.0000
  C   C1781     1.0  0.17746  0.81040  0.92218  1.0000
  H   H1413     1.0  0.07278  0.96264  0.31085  1.0000
  C   C1782     1.0  0.24152  0.94376  0.05183  1.0000
  C   C1783     1.0  0.42721  0.95792  0.05962  1.0000
  C   C1784     1.0  0.00336  0.89514  0.96970  1.0000
  C   C1785     1.0  0.25441  0.89253  0.26222  1.0000
  C   C1786     1.0  0.01534  0.77761  0.90142  1.0000
  C   C1787     1.0  0.37968  0.93647  0.06048  1.0000
  C   C1788     1.0  0.46486  0.85483  0.03936  1.0000
  C   C1789     1.0  0.29907  0.80377  0.23448  1.0000
  C   C1790     1.0  0.48477  0.83402  0.07170  1.0000
  C   C1791     1.0  0.24246  0.96712  0.04021  1.0000
  S   S232      1.0  0.02050  0.87076  0.20099  1.0000
  H   H1414     1.0  0.11055  0.84283  0.23284  1.0000
  C   C1792     1.0  0.13415  0.85878  0.34858  1.0000
  H   H1415     1.0  0.03865  0.01067  0.15079  1.0000
  H   H1416     1.0  0.46557  0.95032  0.97239  1.0000
  C   C1793     1.0  0.49278  0.83679  0.37742  1.0000
  C   C1794     1.0  0.41406  0.89042  0.37516  1.0000
  C   C1795     1.0  0.04051  0.87468  0.91427  1.0000
  C   C1796     1.0  0.04009  0.96793  0.97840  1.0000
  H   H1417     1.0  0.00825  0.94879  0.21393  1.0000
  C   C1797     1.0  0.00511  0.99625  0.24423  1.0000
  H   H1418     1.0  0.35210  0.82020  0.29484  1.0000
  C   C1798     1.0  0.47466  0.81450  0.05221  1.0000
  H   H1419     1.0  0.34053  0.01307  0.37714  1.0000
  H   H1420     1.0  0.12648  0.91910  0.17299  1.0000
  C   C1799     1.0  0.17646  0.78715  0.92317  1.0000
  C   C1800     1.0  0.13108  0.87517  0.37328  1.0000
  C   C1801     1.0  0.01004  0.92212  0.05198  1.0000
  H   H1421     1.0  0.11347  0.78138  0.14952  1.0000
  H   H1422     1.0  0.42749  0.79868  0.11077  1.0000
  C   C1802     1.0  0.44987  0.97316  0.33411  1.0000
  Fe  Fe112     1.0  0.11647  0.84200  0.09890  1.0000
  C   C1803     1.0  0.31061  0.95212  0.18314  1.0000
  H   H1423     1.0  0.26595  0.84369  0.92470  1.0000
  C   C1804     1.0  0.08454  0.86120  0.93855  1.0000
  H   H1424     1.0  0.06248  0.86588  0.99456  1.0000
  C   C1805     1.0  0.13403  0.89855  0.22453  1.0000
  C   C1806     1.0  0.48387  0.90894  0.02681  1.0000
  C   C1807     1.0  0.46262  0.88137  0.94124  1.0000
  H   H1425     1.0  0.48403  0.77240  0.25687  1.0000
  C   C1808     1.0  0.21536  0.80560  0.36438  1.0000
  C   C1809     1.0  0.27431  0.90154  0.22321  1.0000
  H   H1426     1.0  0.00434  0.86071  0.11554  1.0000
  H   H1427     1.0  0.17777  0.88058  0.19920  1.0000
  C   C1810     1.0  0.03307  0.97616  0.09849  1.0000
  H   H1428     1.0  0.38345  0.93169  0.15611  1.0000
  H   H1429     1.0  0.99791  0.88426  0.00480  1.0000
  C   C1811     1.0  0.23982  0.81649  0.98632  1.0000
  Fe  Fe113     1.0  0.13838  0.99071  0.28246  1.0000
  H   H1430     1.0  0.22921  0.86832  0.06141  1.0000
  H   H1431     1.0  0.28788  0.96081  0.23144  1.0000
  H   H1432     1.0  0.21064  0.79191  0.04695  1.0000
  H   H1433     1.0  0.39076  0.95868  0.20452  1.0000
  H   H1434     1.0  0.21906  0.79565  0.17518  1.0000
  C   C1812     1.0  0.42090  0.87449  0.16365  1.0000
  Fe  Fe114     1.0  0.47320  0.82055  0.20943  1.0000
  S   S233      1.0  0.36259  0.88289  0.98393  1.0000
  C   C1813     1.0  0.02067  0.92027  0.95569  1.0000
  H   H1435     1.0  0.15657  0.79786  0.25569  1.0000
  H   H1436     1.0  0.24159  0.93401  0.21693  1.0000
  S   S234      1.0  0.18268  0.88512  0.02902  1.0000
  C   C1814     1.0  0.48020  0.85428  0.06475  1.0000
  H   H1437     1.0  0.20317  0.85147  0.97322  1.0000
  C   C1815     1.0  0.05753  0.91143  0.02765  1.0000
  C   C1816     1.0  0.07140  0.83711  0.01747  1.0000
  C   C1817     1.0  0.23893  0.81380  0.36474  1.0000
  Fe  Fe115     1.0  0.34793  0.84395  0.02638  1.0000
  C   C1818     1.0  0.23568  0.85015  0.94374  1.0000
  H   H1438     1.0  0.04081  0.89776  0.05232  1.0000
  H   H1439     1.0  0.33186  0.88328  0.28784  1.0000
  S   S235      1.0  0.28731  0.83736  0.32296  1.0000
  C   C1819     1.0  0.30094  0.96967  0.90112  1.0000
  C   C1820     1.0  0.24066  0.82283  0.11009  1.0000
  C   C1821     1.0  0.00016  0.77215  0.11058  1.0000
  H   H1440     1.0  0.10502  0.01381  0.15983  1.0000
  C   C1822     1.0  0.31886  0.77839  0.24046  1.0000
  C   C1823     1.0  0.30486  0.92690  0.27915  1.0000
  C   C1824     1.0  0.21361  0.84194  0.97640  1.0000
  C   C1825     1.0  0.22892  0.81874  0.28120  1.0000
  H   H1441     1.0  0.39661  0.88223  0.29292  1.0000
  C   C1826     1.0  0.18525  0.90469  0.29043  1.0000
  C   C1827     1.0  0.99972  0.84994  0.09097  1.0000
  H   H1442     1.0  0.33882  0.82703  0.37027  1.0000
  H   H1443     1.0  0.39090  0.93296  0.38488  1.0000
  H   H1444     1.0  0.07813  0.98829  0.23675  1.0000
  H   H1445     1.0  0.32207  0.77137  0.01899  1.0000
  H   H1446     1.0  0.22939  0.99003  0.28537  1.0000
  S   S236      1.0  0.16456  0.95274  0.33779  1.0000
  C   C1828     1.0  0.02833  0.93353  0.90933  1.0000
  H   H1447     1.0  0.10339  0.80613  0.20394  1.0000
  C   C1829     1.0  0.01170  0.77987  0.94642  1.0000
  H   H1448     1.0  0.25011  0.80683  0.99061  1.0000
  H   H1449     1.0  0.38271  0.00770  0.15663  1.0000
  H   H1450     1.0  0.03101  0.92263  0.20483  1.0000
  H   H1451     1.0  0.16574  0.97569  0.16620  1.0000
  H   H1452     1.0  0.26638  0.83448  0.24924  1.0000
  H   H1453     1.0  0.21209  0.85360  0.22214  1.0000
  C   C1830     1.0  0.32570  0.95975  0.13787  1.0000
  C   C1831     1.0  0.35387  0.82361  0.36267  1.0000
  H   H1454     1.0  0.49316  0.80220  0.97025  1.0000
  Fe  Fe116     1.0  0.33927  0.88787  0.04126  1.0000
  H   H1455     1.0  0.44460  0.91253  0.23608  1.0000
  C   C1832     1.0  0.44278  0.87739  0.38899  1.0000
  C   C1833     1.0  0.02420  0.97428  0.96215  1.0000
  C   C1834     1.0  0.07163  0.85546  0.98454  1.0000
  C   C1835     1.0  0.05533  0.80573  0.35670  1.0000
  H   H1456     1.0  0.48532  0.97734  0.12158  1.0000
  C   C1836     1.0  0.48176  0.92842  0.04242  1.0000
  H   H1457     1.0  0.31261  0.79791  0.29041  1.0000
  H   H1458     1.0  0.19112  0.82661  0.89571  1.0000
  H   H1459     1.0  0.07667  0.89348  0.05201  1.0000
  S   S237      1.0  0.19355  0.95905  0.21077  1.0000
  H   H1460     1.0  0.06699  0.90449  0.93099  1.0000
  H   H1461     1.0  0.18735  0.81447  0.03808  1.0000
  Fe  Fe117     1.0  0.33120  0.86728  0.95855  1.0000
  H   H1462     1.0  0.29539  0.99127  0.28871  1.0000
  S   S238      1.0  0.47072  0.84251  0.36345  1.0000
  Fe  Fe118     1.0  0.15479  0.85374  0.01200  1.0000
  C   C1837     1.0  0.41032  0.85935  0.08654  1.0000
  C   C1838     1.0  0.37680  0.94866  0.93520  1.0000
  C   C1839     1.0  0.35629  0.89376  0.17409  1.0000
  C   C1840     1.0  0.38448  0.83249  0.95760  1.0000
  C   C1841     1.0  0.05901  0.93160  0.99652  1.0000
  C   C1842     1.0  0.03611  0.85656  0.17494  1.0000
  S   S239      1.0  0.14082  0.87185  0.12456  1.0000
  S   S240      1.0  0.16063  0.84163  0.94810  1.0000
  C   C1843     1.0  0.38703  0.76903  0.00318  1.0000
  S   S241      1.0  0.39316  0.81630  0.25264  1.0000
  H   H1463     1.0  0.30093  0.83154  0.92330  1.0000
  H   H1464     1.0  0.13364  0.88889  0.92889  1.0000
  C   C1844     1.0  0.25327  0.93919  0.08216  1.0000
  Fe  Fe119     1.0  0.17048  0.99071  0.34160  1.0000
  C   C1845     1.0  0.09724  0.83042  0.95805  1.0000
  H   H1465     1.0  0.22091  0.90737  0.17056  1.0000
  C   C1846     1.0  0.39434  0.95008  0.89821  1.0000
  C   C1847     1.0  0.07024  0.77723  0.33842  1.0000
  H   H1466     1.0  0.17566  0.90454  0.32359  1.0000
  C   C1848     1.0  0.38622  0.98463  0.24023  1.0000
  H   H1467     1.0  0.44221  0.96432  0.93470  1.0000
  C   C1849     1.0  0.34871  0.92807  0.18590  1.0000
  Fe  Fe120     1.0  0.12629  0.94317  0.35118  1.0000
  S   S242      1.0  0.37256  0.82730  0.01726  1.0000
  C   C1850     1.0  0.23099  0.92933  0.93459  1.0000
  C   C1851     1.0  0.20509  0.82073  0.15858  1.0000
  C   C1852     1.0  0.23275  0.89539  0.90501  1.0000
  C   C1853     1.0  0.42095  0.99492  0.17751  1.0000
  H   H1468     1.0  0.07989  0.77144  0.31359  1.0000
  C   C1854     1.0  0.45448  0.76853  0.18055  1.0000
  H   H1469     1.0  0.01768  0.00403  0.93356  1.0000
  C   C1855     1.0  0.06707  0.79794  0.32426  1.0000
  S   S243      1.0  0.00502  0.81317  0.29633  1.0000
  H   H1470     1.0  0.23362  0.77058  0.33647  1.0000
  C   C1856     1.0  0.39195  0.85393  0.12596  1.0000
  H   H1471     1.0  0.30036  0.95542  0.92741  1.0000
  H   H1472     1.0  0.23799  0.94385  0.95144  1.0000
  H   H1473     1.0  0.00728  0.96001  0.96202  1.0000
  H   H1474     1.0  0.28746  0.88717  0.31114  1.0000
  C   C1857     1.0  0.39725  0.86138  0.16464  1.0000
  C   C1858     1.0  0.17150  0.96519  0.14627  1.0000
  C   C1859     1.0  0.28839  0.89975  0.91660  1.0000
  H   H1475     1.0  0.42307  0.89478  0.00784  1.0000
  H   H1476     1.0  0.29747  0.87324  0.22238  1.0000
  S   S244      1.0  0.14205  0.82707  0.08058  1.0000
  C   C1860     1.0  0.22942  0.86713  0.22228  1.0000
  H   H1477     1.0  0.13088  0.96905  0.02901  1.0000
  H   H1478     1.0  0.46866  0.92751  0.29625  1.0000
  C   C1861     1.0  0.06152  0.98706  0.97929  1.0000
  H   H1479     1.0  0.38308  0.85631  0.19594  1.0000
  H   H1480     1.0  0.32553  0.85772  0.19493  1.0000
  C   C1862     1.0  0.21011  0.92454  0.92338  1.0000
  C   C1863     1.0  0.35839  0.91644  0.29714  1.0000
  H   H1481     1.0  0.42594  0.76823  0.91207  1.0000
  C   C1864     1.0  0.27141  0.89352  0.18357  1.0000
  H   H1482     1.0  0.46535  0.97559  0.30842  1.0000
  Fe  Fe121     1.0  0.43180  0.83024  0.24288  1.0000
  C   C1865     1.0  0.32230  0.99768  0.12369  1.0000
  H   H1483     1.0  0.13552  0.82379  0.35491  1.0000
  H   H1484     1.0  0.25588  0.89871  0.29301  1.0000
  C   C1866     1.0  0.31599  0.77302  0.19869  1.0000
  C   C1867     1.0  0.46693  0.98270  0.18244  1.0000
  C   C1868     1.0  0.06305  0.95400  0.28829  1.0000
  C   C1869     1.0  0.37262  0.79020  0.16435  1.0000
  C   C1870     1.0  0.29578  0.90569  0.31608  1.0000
  C   C1871     1.0  0.44407  0.94617  0.24792  1.0000
  S   S245      1.0  0.31700  0.82797  0.99963  1.0000
  C   C1872     1.0  0.14644  0.80765  0.25116  1.0000
  H   H1485     1.0  0.19035  0.92492  0.07897  1.0000
  H   H1486     1.0  0.28673  0.80593  0.17525  1.0000
  C   C1873     1.0  0.31844  0.95299  0.32986  1.0000
  H   H1487     1.0  0.27727  0.89231  0.95218  1.0000
  C   C1874     1.0  0.02115  0.77226  0.08774  1.0000
  H   H1488     1.0  0.33299  0.94826  0.12504  1.0000
  C   C1875     1.0  0.10077  0.94420  0.96077  1.0000
  H   H1489     1.0  0.06217  0.83322  0.05351  1.0000
  C   C1876     1.0  0.43927  0.88038  0.12386  1.0000
  H   H1490     1.0  0.03333  0.92344  0.09369  1.0000
  C   C1877     1.0  0.17032  0.94509  0.08397  1.0000
  C   C1878     1.0  0.38136  0.96842  0.95539  1.0000
  C   C1879     1.0  0.40805  0.94917  0.37699  1.0000
  C   C1880     1.0  0.08433  0.82474  0.00430  1.0000
  C   C1881     1.0  0.05954  0.89850  0.90418  1.0000
  H   H1491     1.0  0.42453  0.99153  0.05842  1.0000
  H   H1492     1.0  0.38551  0.78138  0.02397  1.0000
  C   C1882     1.0  0.18619  0.95609  0.15968  1.0000
  S   S246      1.0  0.26113  0.81121  0.10194  1.0000
  C   C1883     1.0  0.46022  0.89630  0.35074  1.0000
  C   C1884     1.0  0.45169  0.97136  0.22756  1.0000
  H   H1493     1.0  0.07577  0.77738  0.00199  1.0000
  S   S247      1.0  0.45719  0.97222  0.05703  1.0000
  C   C1885     1.0  0.06591  0.88732  0.37813  1.0000
  C   C1886     1.0  0.21050  0.80895  0.32254  1.0000
  C   C1887     1.0  0.01884  0.98818  0.26428  1.0000
  H   H1494     1.0  0.32753  0.97128  0.33509  1.0000
  C   C1888     1.0  0.36148  0.81997  0.31976  1.0000
  C   C1889     1.0  0.03728  0.81856  0.16633  1.0000
  C   C1890     1.0  0.12487  0.88122  0.26761  1.0000
  C   C1891     1.0  0.36465  0.91905  0.17126  1.0000
  H   H1495     1.0  0.11507  0.92274  0.99300  1.0000
  C   C1892     1.0  0.45655  0.88384  0.90067  1.0000
  H   H1496     1.0  0.35660  0.86203  0.28355  1.0000
  C   C1893     1.0  0.24218  0.91469  0.92587  1.0000
  H   H1497     1.0  0.46980  0.00514  0.35648  1.0000
  C   C1894     1.0  0.11668  0.96999  0.05290  1.0000
  C   C1895     1.0  0.15096  0.82888  0.26700  1.0000
  H   H1498     1.0  0.05008  0.98700  0.07215  1.0000
  H   H1499     1.0  0.01782  0.76789  0.30689  1.0000
  H   H1500     1.0  0.07368  0.98294  0.99352  1.0000
  C   C1896     1.0  0.06280  0.76755  0.94525  1.0000
  C   C1897     1.0  0.30027  0.96681  0.19731  1.0000
  S   S248      1.0  0.15818  0.93461  0.04092  1.0000
  H   H1501     1.0  0.43008  0.98957  0.15086  1.0000
  H   H1502     1.0  0.10836  0.82177  0.94904  1.0000
  C   C1898     1.0  0.02442  0.83085  0.18075  1.0000
  C   C1899     1.0  0.22144  0.00650  0.00343  1.0000
  C   C1900     1.0  0.45966  0.81506  0.02615  1.0000
  S   S249      1.0  0.17745  0.00404  0.26585  1.0000
  H   H1503     1.0  0.09245  0.86831  0.12163  1.0000
  H   H1504     1.0  0.36861  0.88700  0.16143  1.0000
  H   H1505     1.0  0.09334  0.85793  0.32552  1.0000
  H   H1506     1.0  0.15230  0.90574  0.20416  1.0000
  Fe  Fe122     1.0  0.29778  0.83797  0.05577  1.0000
  C   C1901     1.0  0.39155  0.92209  0.06042  1.0000
  H   H1507     1.0  0.03800  0.99800  0.25033  1.0000
  S   S250      1.0  0.18188  0.80251  0.32116  1.0000
  H   H1508     1.0  0.25209  0.92091  0.09178  1.0000
  C   C1902     1.0  0.45423  0.83480  0.02086  1.0000
  H   H1509     1.0  0.38233  0.90267  0.06108  1.0000
  C   C1903     1.0  0.00965  0.95492  0.17824  1.0000
  H   H1510     1.0  0.01855  0.96117  0.31779  1.0000
  C   C1904     1.0  0.11641  0.81217  0.22223  1.0000
  H   H1511     1.0  0.36469  0.79880  0.18555  1.0000
  H   H1512     1.0  0.36800  0.96693  0.98498  1.0000
  H   H1513     1.0  0.38697  0.01392  0.27081  1.0000
  P   P63       1.0  0.42447  0.93137  0.30616  1.0000
  C   C1905     1.0  0.20976  0.92051  0.27355  1.0000
  C   C1906     1.0  0.31677  0.95060  0.28610  1.0000
  C   C1907     1.0  0.40338  0.98977  0.93849  1.0000
  H   H1514     1.0  0.43321  0.78691  0.19580  1.0000
  C   C1908     1.0  0.47394  0.96874  0.15684  1.0000
  C   C1909     1.0  0.00955  0.82881  0.03638  1.0000
  C   C1910     1.0  0.03963  0.93171  0.22822  1.0000
  H   H1515     1.0  0.29917  0.00146  0.17958  1.0000
  C   C1911     1.0  0.43831  0.88983  0.89901  1.0000
  C   C1912     1.0  0.25755  0.82508  0.32331  1.0000
  H   H1516     1.0  0.07361  0.80792  0.28829  1.0000
  H   H1517     1.0  0.27506  0.95434  0.12456  1.0000
  C   C1913     1.0  0.43145  0.90945  0.33663  1.0000
  C   C1914     1.0  0.11936  0.90601  0.20653  1.0000
  C   C1915     1.0  0.26529  0.96772  0.34897  1.0000
  C   C1916     1.0  0.10085  0.87158  0.29251  1.0000
  C   C1917     1.0  0.18544  0.93663  0.09688  1.0000
  H   H1518     1.0  0.18363  0.86383  0.37167  1.0000
  H   H1519     1.0  0.14503  0.99732  0.17793  1.0000
  C   C1918     1.0  0.22121  0.81132  0.14997  1.0000
  H   H1520     1.0  0.47066  0.93257  0.15582  1.0000
  H   H1521     1.0  0.24705  0.86979  0.15300  1.0000
  H   H1522     1.0  0.40811  0.81790  0.15696  1.0000
  C   C1919     1.0  0.46566  0.94345  0.17621  1.0000
  H   H1523     1.0  0.42360  0.79430  0.96327  1.0000
  C   C1920     1.0  0.24347  0.84330  0.07789  1.0000
  C   C1921     1.0  0.04818  0.92833  0.30092  1.0000
  C   C1922     1.0  0.22817  0.96719  0.34694  1.0000
  Fe  Fe123     1.0  0.15413  0.89587  0.05229  1.0000
  C   C1923     1.0  0.03006  0.99925  0.94570  1.0000
  S   S251      1.0  0.13211  0.98085  0.35874  1.0000
  H   H1524     1.0  0.19069  0.90349  0.39081  1.0000
  C   C1924     1.0  0.39457  0.81779  0.33986  1.0000
  C   C1925     1.0  0.24885  0.83748  0.94933  1.0000
  C   C1926     1.0  0.16056  0.81276  0.95463  1.0000
  C   C1927     1.0  0.19403  0.94290  0.13348  1.0000
  C   C1928     1.0  0.14318  0.79187  0.98986  1.0000
  C   C1929     1.0  0.37508  0.84105  0.92632  1.0000
  C   C1930     1.0  0.05431  0.95758  0.21536  1.0000
  H   H1525     1.0  0.45748  0.89009  0.12415  1.0000
  C   C1931     1.0  0.32426  0.91179  0.20338  1.0000
  H   H1526     1.0  0.32055  0.91827  0.93429  1.0000
  C   C1932     1.0  0.26710  0.98139  0.08929  1.0000
  C   C1933     1.0  0.07023  0.00839  0.15779  1.0000
  S   S252      1.0  0.45841  0.84212  0.17437  1.0000
  C   C1934     1.0  0.42635  0.89374  0.93779  1.0000
  H   H1527     1.0  0.06957  0.89013  0.14734  1.0000
  C   C1935     1.0  0.25505  0.98612  0.05929  1.0000
  H   H1528     1.0  0.37364  0.84329  0.12683  1.0000
  H   H1529     1.0  0.33917  0.78068  0.08209  1.0000
  H   H1530     1.0  0.05565  0.78051  0.94307  1.0000
  C   C1936     1.0  0.38204  0.81753  0.30811  1.0000
  C   C1937     1.0  0.21138  0.00945  0.96865  1.0000
  C   C1938     1.0  0.01522  0.91743  0.09328  1.0000
  H   H1531     1.0  0.36065  0.84497  0.93803  1.0000
  H   H1532     1.0  0.28651  0.90019  0.15312  1.0000
  Fe  Fe124     1.0  0.29123  0.83511  0.39388  1.0000
  H   H1533     1.0  0.03113  0.78380  0.05290  1.0000
  C   C1939     1.0  0.42095  0.99126  0.90157  1.0000
  C   C1940     1.0  0.40373  0.82833  0.94099  1.0000
  C   C1941     1.0  0.33177  0.98261  0.10855  1.0000
  H   H1534     1.0  0.40709  0.00485  0.95499  1.0000
  C   C1942     1.0  0.39679  0.00882  0.24504  1.0000
  C   C1943     1.0  0.33204  0.87735  0.19249  1.0000
  H   H1535     1.0  0.11728  0.95636  0.93359  1.0000
  H   H1536     1.0  0.10431  0.93378  0.09752  1.0000
  H   H1537     1.0  0.07254  0.93586  0.15324  1.0000
  H   H1538     1.0  0.47814  0.79879  0.05808  1.0000
  H   H1539     1.0  0.41193  0.82344  0.96482  1.0000
  C   C1944     1.0  0.20450  0.82083  0.01319  1.0000
  C   C1945     1.0  0.99690  0.90503  0.13499  1.0000
  H   H1540     1.0  0.27637  0.77459  0.07774  1.0000
  H   H1541     1.0  0.27532  0.96109  0.36589  1.0000
  C   C1946     1.0  0.13367  0.83715  0.37225  1.0000
  H   H1542     1.0  0.08399  0.90164  0.21693  1.0000
  C   C1947     1.0  0.43322  0.76987  0.19113  1.0000
  H   H1543     1.0  0.03288  0.84903  0.07300  1.0000
  H   H1544     1.0  0.03549  0.86816  0.35500  1.0000
  H   H1545     1.0  0.34922  0.98433  0.92215  1.0000
  C   C1948     1.0  0.11356  0.99117  0.04530  1.0000
  H   H1546     1.0  0.36851  0.97139  0.26213  1.0000
  P   P64       1.0  0.45778  0.88028  0.03344  1.0000
  H   H1547     1.0  0.00548  0.82026  0.19763  1.0000
  C   C1949     1.0  0.39485  0.91582  0.30176  1.0000
  H   H1548     1.0  0.02825  0.79861  0.17210  1.0000
  C   C1950     1.0  0.18660  0.89131  0.22053  1.0000
  S   S253      1.0  0.44489  0.80640  0.27701  1.0000
  S   S254      1.0  0.19509  0.00983  0.38046  1.0000
  C   C1951     1.0  0.12056  0.83311  0.23890  1.0000
  C   C1952     1.0  0.42746  0.95317  0.34069  1.0000
  C   C1953     1.0  0.40837  0.79058  0.12122  1.0000
  H   H1549     1.0  0.23104  0.92886  0.03850  1.0000
  C   C1954     1.0  0.06612  0.96859  0.24575  1.0000
  H   H1550     1.0  0.47694  0.87690  0.94165  1.0000
  H   H1551     1.0  0.02587  0.89717  0.27956  1.0000
  H   H1552     1.0  0.22506  0.82023  0.24877  1.0000
  C   C1955     1.0  0.34958  0.89255  0.29085  1.0000
  C   C1956     1.0  0.09941  0.92504  0.99368  1.0000
  S   S255      1.0  0.34992  0.92350  0.06159  1.0000
  H   H1553     1.0  0.42435  0.92160  0.06137  1.0000
  C   C1957     1.0  0.03182  0.96692  0.14394  1.0000
  C   C1958     1.0  0.26377  0.99284  0.28251  1.0000
  C   C1959     1.0  0.31611  0.88628  0.20748  1.0000
  S   S256      1.0  0.19023  0.85538  0.14269  1.0000
  H   H1554     1.0  0.38235  0.97254  0.06096  1.0000
  C   C1960     1.0  0.39150  0.96142  0.06057  1.0000
  H   H1555     1.0  0.00091  0.90090  0.16656  1.0000
  C   C1961     1.0  0.01247  0.97286  0.08731  1.0000
  C   C1962     1.0  0.07776  0.90860  0.02700  1.0000
  H   H1556     1.0  0.13125  0.89192  0.35587  1.0000
  H   H1557     1.0  0.39608  0.88786  0.38547  1.0000
  H   H1558     1.0  0.01909  0.79822  0.95227  1.0000
  H   H1559     1.0  0.40596  0.85246  0.05774  1.0000
  C   C1963     1.0  0.29758  0.90817  0.35970  1.0000
  H   H1560     1.0  0.32516  0.96727  0.25780  1.0000
  S   S257      1.0  0.32753  0.85030  0.08728  1.0000
  C   C1964     1.0  0.22684  0.85229  0.08588  1.0000
  C   C1965     1.0  0.13742  0.84124  0.26267  1.0000
  H   H1561     1.0  0.05313  0.82200  0.34618  1.0000
  C   C1966     1.0  0.24107  0.95935  0.37064  1.0000
  C   C1967     1.0  0.06751  0.01198  0.96186  1.0000
  Fe  Fe125     1.0  0.16849  0.96516  0.26324  1.0000
  C   C1968     1.0  0.21285  0.86255  0.39150  1.0000
  C   C1969     1.0  0.09699  0.84842  0.92467  1.0000
  H   H1562     1.0  0.27252  0.00617  0.24894  1.0000
  H   H1563     1.0  0.25785  0.91822  0.93617  1.0000
  H   H1564     1.0  0.25815  0.85192  0.04656  1.0000
  H   H1565     1.0  0.41234  0.89857  0.93637  1.0000
  H   H1566     1.0  0.35998  0.93178  0.94951  1.0000
  H   H1567     1.0  0.08199  0.96171  0.93482  1.0000
  S   S258      1.0  0.30887  0.87589  0.01210  1.0000
  C   C1970     1.0  0.38611  0.89200  0.29427  1.0000
  Fe  Fe126     1.0  0.16771  0.85917  0.09955  1.0000
  H   H1568     1.0  0.08562  0.81201  0.03061  1.0000
  C   C1971     1.0  0.45252  0.98981  0.36139  1.0000
  H   H1569     1.0  0.24358  0.00008  0.14431  1.0000
  C   C1972     1.0  0.48329  0.94430  0.91158  1.0000
  H   H1570     1.0  0.27757  0.97797  0.94810  1.0000
  Fe  Fe127     1.0  0.48198  0.87393  0.19739  1.0000
  C   C1973     1.0  0.28810  0.98236  0.91274  1.0000
  C   C1974     1.0  0.08066  0.94734  0.96190  1.0000
  H   H1571     1.0  0.19089  0.81256  0.19073  1.0000
  C   C1975     1.0  0.08087  0.97300  0.11668  1.0000
  H   H1572     1.0  0.20930  0.96033  0.36185  1.0000
  C   C1976     1.0  0.20044  0.90511  0.90342  1.0000
  H   H1573     1.0  0.42497  0.87951  0.19417  1.0000
  H   H1574     1.0  0.44564  0.98217  0.24620  1.0000
  P   P65       1.0  0.03292  0.93550  0.99670  1.0000
  C   C1977     1.0  0.04427  0.86705  0.38070  1.0000
  H   H1575     1.0  0.20095  0.93524  0.93172  1.0000
  C   C1978     1.0  0.46734  0.95091  0.93641  1.0000
  P   P66       1.0  0.14223  0.86763  0.28641  1.0000
  Fe  Fe128     1.0  0.46880  0.84099  0.29256  1.0000
  H   H1576     1.0  0.30169  0.77947  0.14317  1.0000
  C   C1979     1.0  0.14218  0.76852  0.99089  1.0000
  C   C1980     1.0  0.16397  0.96019  0.10759  1.0000
  C   C1981     1.0  0.00785  0.96729  0.30207  1.0000
  H   H1577     1.0  0.19234  0.99882  0.97539  1.0000
  C   C1982     1.0  0.30439  0.78315  0.17525  1.0000
  C   C1983     1.0  0.45081  0.93217  0.22161  1.0000
  H   H1578     1.0  0.02193  0.82352  0.01781  1.0000
  C   C1984     1.0  0.24907  0.87632  0.18326  1.0000
  S   S259      1.0  0.48126  0.79434  0.17524  1.0000
  C   C1985     1.0  0.27663  0.98459  0.30520  1.0000
  C   C1986     1.0  0.36353  0.88047  0.28883  1.0000
  H   H1579     1.0  0.15230  0.96689  0.09774  1.0000
  C   C1987     1.0  0.31050  0.79379  0.25812  1.0000
  C   C1988     1.0  0.31287  0.91455  0.90663  1.0000
  C   C1989     1.0  0.09568  0.99264  0.07685  1.0000
  C   C1990     1.0  0.43411  0.87322  0.08463  1.0000
  H   H1580     1.0  0.45180  0.79991  0.01103  1.0000
  H   H1581     1.0  0.06745  0.87060  0.29230  1.0000
  C   C1991     1.0  0.10166  0.95008  0.09169  1.0000
  C   C1992     1.0  0.45011  0.88435  0.98094  1.0000
  C   C1993     1.0  0.21753  0.80803  0.01803  1.0000
  C   C1994     1.0  0.30635  0.98966  0.16786  1.0000
  H   H1582     1.0  0.04599  0.91701  0.33366  1.0000
  H   H1583     1.0  0.07409  0.90410  0.35027  1.0000
  C   C1995     1.0  0.08615  0.87878  0.27397  1.0000
  H   H1584     1.0  0.12581  0.78276  0.21695  1.0000
  C   C1996     1.0  0.39737  0.80126  0.14798  1.0000
  C   C1997     1.0  0.21109  0.90685  0.20398  1.0000
  P   P67       1.0  0.30360  0.92330  0.22249  1.0000
  C   C1998     1.0  0.45406  0.95888  0.91467  1.0000
  H   H1585     1.0  0.18925  0.78548  0.89709  1.0000
  S   S260      1.0  0.12938  0.95205  0.27578  1.0000
  C   C1999     1.0  0.45471  0.91257  0.32498  1.0000
  H   H1586     1.0  0.21676  0.86772  0.29195  1.0000
  H   H1587     1.0  0.20998  0.99383  0.03689  1.0000
  C   C2000     1.0  0.39853  0.97757  0.20721  1.0000
  C   C2001     1.0  0.09542  0.89611  0.23118  1.0000
  C   C2002     1.0  0.38653  0.82063  0.38331  1.0000
  H   H1588     1.0  0.34425  0.98884  0.07442  1.0000
  P   P68       1.0  0.05896  0.97590  0.15911  1.0000
  H   H1589     1.0  0.27730  0.99582  0.10378  1.0000
  C   C2003     1.0  0.07344  0.85786  0.13772  1.0000
  S   S261      1.0  0.45369  0.86411  0.26297  1.0000
  C   C2004     1.0  0.06050  0.87023  0.15198  1.0000
  H   H1590     1.0  0.16494  0.83551  0.28295  1.0000
  C   C2005     1.0  0.23950  0.98388  0.30313  1.0000
  H   H1591     1.0  0.34751  0.92569  0.29862  1.0000
  H   H1592     1.0  0.29236  0.81543  0.24848  1.0000
  C   C2006     1.0  0.38110  0.92823  0.30182  1.0000
  H   H1593     1.0  0.01354  0.98035  0.05237  1.0000
  H   H1594     1.0  0.12536  0.00675  0.01544  1.0000
  Fe  Fe129     1.0  0.47064  0.01267  0.02523  1.0000
  H   H1595     1.0  0.35914  0.00983  0.97742  1.0000
  H   H1596     1.0  0.09390  0.00944  0.07056  1.0000
  H   H1597     1.0  0.32776  0.77088  0.25914  1.0000
  H   H1598     1.0  0.18379  0.90055  0.89626  1.0000
  H   H1599     1.0  0.29059  0.89173  0.38810  1.0000
  C   C2007     1.0  0.36153  0.00406  0.90955  1.0000
  Fe  Fe130     1.0  0.99505  0.84144  0.26616  1.0000
  H   H1600     1.0  0.01352  0.01283  0.21571  1.0000
  H   H1601     1.0  0.22640  0.01476  0.20474  1.0000
  H   H1602     1.0  0.32758  0.01573  0.10145  1.0000
  S   S262      1.0  0.47357  0.80076  0.89576  1.0000
  H   H1603     1.0  0.20944  0.84501  0.38355  1.0000
  C   C2008     1.0  0.23937  0.01489  0.13435  1.0000
  C   C2009     1.0  0.35868  0.76821  0.15395  1.0000
  C   C2010     1.0  0.39469  0.76886  0.11020  1.0000
  H   H1604     1.0  0.04253  0.95254  0.89719  1.0000
  C   C2011     1.0  0.19822  0.87315  0.38494  1.0000
  H   H1605     1.0  0.07113  0.76693  0.18731  1.0000
  C   C2012     1.0  0.36630  0.82377  0.39458  1.0000
  S   S263      1.0  0.12716  0.01654  0.24806  1.0000
  H   H1606     1.0  0.50816  0.09870  0.84051  1.0000
  C   C2013     1.0  0.60647  0.20087  0.42397  1.0000
  C   C2014     1.0  0.71966  0.18423  0.87378  1.0000
  H   H1607     1.0  0.79951  0.04676  0.78850  1.0000
  H   H1608     1.0  0.56120  0.12338  0.68393  1.0000
  H   H1609     1.0  0.50229  0.24198  0.44306  1.0000
  H   H1610     1.0  0.84125  0.13073  0.41036  1.0000
  C   C2015     1.0  0.59664  0.04414  0.49551  1.0000
  H   H1611     1.0  0.88301  0.15527  0.66757  1.0000
  C   C2016     1.0  0.92050  0.14090  0.87497  1.0000
  C   C2017     1.0  0.58426  0.12308  0.79075  1.0000
  H   H1612     1.0  0.81394  0.12130  0.65019  1.0000
  C   C2018     1.0  0.84898  0.14084  0.65646  1.0000
  H   H1613     1.0  0.78759  0.11004  0.47628  1.0000
  S   S264      1.0  0.72447  0.02706  0.49048  1.0000
  H   H1614     1.0  0.61168  0.18593  0.88229  1.0000
  C   C2019     1.0  0.52769  0.21174  0.41245  1.0000
  H   H1615     1.0  0.58794  0.04038  0.46912  1.0000
  H   H1616     1.0  0.94175  0.13512  0.64902  1.0000
  H   H1617     1.0  0.49835  0.16660  0.87941  1.0000
  C   C2020     1.0  0.66349  0.23908  0.84234  1.0000
  C   C2021     1.0  0.58976  0.23098  0.83339  1.0000
  C   C2022     1.0  0.91075  0.15473  0.72259  1.0000
  H   H1618     1.0  0.94761  0.14267  0.45412  1.0000
  C   C2023     1.0  0.56796  0.12337  0.71324  1.0000
  C   C2024     1.0  0.95682  0.12992  0.77536  1.0000
  C   C2025     1.0  0.62443  0.14186  0.83035  1.0000
  H   H1619     1.0  0.71991  0.17709  0.64779  1.0000
  C   C2026     1.0  0.65996  0.03665  0.57297  1.0000
  C   C2027     1.0  0.49380  0.16232  0.47071  1.0000
  C   C2028     1.0  0.88018  0.21906  0.87170  1.0000
  H   H1620     1.0  0.60916  0.03635  0.70263  1.0000
  Fe  Fe131     1.0  0.90694  0.07094  0.42725  1.0000
  C   C2029     1.0  0.57758  0.14511  0.72736  1.0000
  H   H1621     1.0  0.51913  0.26383  0.82903  1.0000
  H   H1622     1.0  0.56853  0.15440  0.43944  1.0000
  C   C2030     1.0  0.86796  0.13865  0.66709  1.0000
  H   H1623     1.0  0.57985  0.08906  0.47301  1.0000
  C   C2031     1.0  0.80092  0.14838  0.58329  1.0000
  H   H1624     1.0  0.82671  0.24861  0.59928  1.0000
  S   S265      1.0  0.51859  0.11517  0.64971  1.0000
  H   H1625     1.0  0.75709  0.06657  0.51946  1.0000
  C   C2032     1.0  0.77058  0.22261  0.50575  1.0000
  H   H1626     1.0  0.82982  0.07603  0.85086  1.0000
  C   C2033     1.0  0.51623  0.02265  0.56900  1.0000
  S   S266      1.0  0.52054  0.05688  0.86160  1.0000
  S   S267      1.0  0.49568  0.16595  0.65478  1.0000
  H   H1627     1.0  0.55199  0.04481  0.79850  1.0000
  H   H1628     1.0  0.70021  0.19809  0.61122  1.0000
  C   C2034     1.0  0.83581  0.22497  0.44226  1.0000
  C   C2035     1.0  0.90537  0.24499  0.52062  1.0000
  Fe  Fe132     1.0  0.55547  0.19688  0.68314  1.0000
  C   C2036     1.0  0.61865  0.05243  0.56436  1.0000
  H   H1629     1.0  0.78816  0.22421  0.50015  1.0000
  H   H1630     1.0  0.61329  0.05351  0.84780  1.0000
  C   C2037     1.0  0.72920  0.22661  0.83964  1.0000
  H   H1631     1.0  0.57833  0.16187  0.70863  1.0000
  H   H1632     1.0  0.79423  0.16377  0.47413  1.0000
  H   H1633     1.0  0.81273  0.08019  0.66563  1.0000
  H   H1634     1.0  0.71494  0.21285  0.42592  1.0000
  C   C2038     1.0  0.78992  0.01680  0.70427  1.0000
  H   H1635     1.0  0.87074  0.21548  0.84634  1.0000
  C   C2039     1.0  0.51256  0.24607  0.60181  1.0000
  H   H1636     1.0  0.65077  0.23383  0.87578  1.0000
  C   C2040     1.0  0.51420  0.02276  0.45258  1.0000
  C   C2041     1.0  0.61372  0.21878  0.65654  1.0000
  H   H1637     1.0  0.49837  0.26420  0.64469  1.0000
  S   S268      1.0  0.53292  0.22454  0.54806  1.0000
  H   H1638     1.0  0.57730  0.26269  0.41149  1.0000
  H   H1639     1.0  0.89258  0.06774  0.84214  1.0000
  C   C2042     1.0  0.50051  0.03882  0.77097  1.0000
  H   H1640     1.0  0.80943  0.10171  0.52878  1.0000
  H   H1641     1.0  0.98167  0.21081  0.40083  1.0000
  C   C2043     1.0  0.59397  0.02448  0.69306  1.0000
  C   C2044     1.0  0.74894  0.22925  0.80626  1.0000
  H   H1642     1.0  0.53566  0.23576  0.45782  1.0000
  C   C2045     1.0  0.79412  0.19287  0.42657  1.0000
  S   S269      1.0  0.87384  0.20013  0.68435  1.0000
  P   P69       1.0  0.59277  0.12220  0.84309  1.0000
  C   C2046     1.0  0.69078  0.07487  0.77574  1.0000
  C   C2047     1.0  0.69663  0.25266  0.75597  1.0000
  H   H1643     1.0  0.50929  0.21980  0.83280  1.0000
  H   H1644     1.0  0.59877  0.21758  0.54101  1.0000
  H   H1645     1.0  0.77442  0.11912  0.64315  1.0000
  C   C2048     1.0  0.75410  0.20939  0.80617  1.0000
  H   H1646     1.0  0.63236  0.20945  0.50967  1.0000
  S   S270      1.0  0.55336  0.18484  0.61872  1.0000
  C   C2049     1.0  0.90242  0.21572  0.69001  1.0000
  C   C2050     1.0  0.67710  0.09856  0.47475  1.0000
  C   C2051     1.0  0.69543  0.12308  0.45887  1.0000
  C   C2052     1.0  0.70559  0.09875  0.77842  1.0000
  C   C2053     1.0  0.84625  0.26356  0.76294  1.0000
  S   S271      1.0  0.58907  0.21130  0.70307  1.0000
  H   H1647     1.0  0.81018  0.20822  0.55976  1.0000
  S   S272      1.0  0.82308  0.14372  0.78789  1.0000
  H   H1648     1.0  0.89066  0.25834  0.69230  1.0000
  H   H1649     1.0  0.57331  0.08437  0.79463  1.0000
  C   C2054     1.0  0.80269  0.08482  0.55572  1.0000
  H   H1650     1.0  0.62288  0.20289  0.79786  1.0000
  H   H1651     1.0  0.77750  0.19076  0.63312  1.0000
  H   H1652     1.0  0.62675  0.05564  0.59153  1.0000
  H   H1653     1.0  0.53590  0.21015  0.77824  1.0000
  H   H1654     1.0  0.69585  0.05637  0.43455  1.0000
  H   H1655     1.0  0.55899  0.08465  0.72679  1.0000
  C   C2055     1.0  0.73999  0.09190  0.75710  1.0000
  C   C2056     1.0  0.75927  0.07356  0.48362  1.0000
  C   C2057     1.0  0.74511  0.05798  0.46126  1.0000
  H   H1656     1.0  0.52906  0.03959  0.45236  1.0000
  C   C2058     1.0  0.85809  0.25799  0.72640  1.0000
  H   H1657     1.0  0.69344  0.17510  0.80032  1.0000
  H   H1658     1.0  0.67447  0.17906  0.73972  1.0000
  C   C2059     1.0  0.86697  0.11516  0.67790  1.0000
  C   C2060     1.0  0.63544  0.13979  0.86425  1.0000
  C   C2061     1.0  0.56673  0.10158  0.73736  1.0000
  C   C2062     1.0  0.80255  0.18879  0.57773  1.0000
  C   C2063     1.0  0.68785  0.22924  0.78627  1.0000
  H   H1659     1.0  0.54562  0.09661  0.47034  1.0000
  Fe  Fe133     1.0  0.79351  0.18666  0.77544  1.0000
  C   C2064     1.0  0.80574  0.04858  0.58911  1.0000
  H   H1660     1.0  0.91930  0.25163  0.44724  1.0000
  C   C2065     1.0  0.61702  0.23276  0.61327  1.0000
  Fe  Fe134     1.0  0.52070  0.15059  0.66335  1.0000
  C   C2066     1.0  0.78788  0.03126  0.73455  1.0000
  S   S273      1.0  0.87343  0.07389  0.45146  1.0000
  C   C2067     1.0  0.56408  0.15594  0.40758  1.0000
  C   C2068     1.0  0.65414  0.23198  0.58294  1.0000
  C   C2069     1.0  0.70073  0.05974  0.76287  1.0000
  H   H1661     1.0  0.96761  0.20015  0.69878  1.0000
  C   C2070     1.0  0.79635  0.26512  0.89375  1.0000
  H   H1662     1.0  0.62634  0.04056  0.45909  1.0000
  C   C2071     1.0  0.66280  0.01958  0.66007  1.0000
  H   H1663     1.0  0.74037  0.11351  0.48060  1.0000
  C   C2072     1.0  0.60147  0.05984  0.86508  1.0000
  H   H1664     1.0  0.96420  0.08767  0.60854  1.0000
  H   H1665     1.0  0.87243  0.12913  0.83656  1.0000
  H   H1666     1.0  0.90508  0.12488  0.45766  1.0000
  H   H1667     1.0  0.94364  0.06386  0.83757  1.0000
  C   C2073     1.0  0.81224  0.25914  0.86639  1.0000
  C   C2074     1.0  0.82904  0.11975  0.65636  1.0000
  C   C2075     1.0  0.77662  0.09795  0.45916  1.0000
  C   C2076     1.0  0.57414  0.02848  0.69924  1.0000
  C   C2077     1.0  0.60416  0.22443  0.80365  1.0000
  C   C2078     1.0  0.52676  0.03172  0.86620  1.0000
  P   P70       1.0  0.88974  0.11093  0.69680  1.0000
  H   H1668     1.0  0.95966  0.23700  0.62571  1.0000
  C   C2079     1.0  0.87754  0.09413  0.75701  1.0000
  C   C2080     1.0  0.70431  0.08490  0.49604  1.0000
  H   H1669     1.0  0.88166  0.22077  0.44010  1.0000
  C   C2081     1.0  0.84718  0.09417  0.67612  1.0000
  C   C2082     1.0  0.58495  0.21168  0.48408  1.0000
  C   C2083     1.0  0.83231  0.05775  0.42779  1.0000
  C   C2084     1.0  0.95700  0.16841  0.67048  1.0000
  C   C2085     1.0  0.62264  0.20233  0.44858  1.0000
  C   C2086     1.0  0.71948  0.19318  0.65743  1.0000
  C   C2087     1.0  0.94672  0.08212  0.82040  1.0000
  C   C2088     1.0  0.58769  0.20575  0.44198  1.0000
  P   P71       1.0  0.65771  0.04780  0.51746  1.0000
  C   C2089     1.0  0.72516  0.21762  0.51567  1.0000
  C   C2090     1.0  0.68137  0.07934  0.49399  1.0000
  C   C2091     1.0  0.89115  0.06794  0.67983  1.0000
  H   H1670     1.0  0.50009  0.07233  0.61678  1.0000
  H   H1671     1.0  0.57110  0.26418  0.56575  1.0000
  H   H1672     1.0  0.79438  0.25150  0.57319  1.0000
  H   H1673     1.0  0.69219  0.13791  0.44375  1.0000
  H   H1674     1.0  0.91561  0.01984  0.53609  1.0000
  P   P72       1.0  0.71736  0.26133  0.69962  1.0000
  H   H1675     1.0  0.92668  0.18775  0.74539  1.0000
  C   C2092     1.0  0.60414  0.08331  0.84620  1.0000
  H   H1676     1.0  0.91226  0.05431  0.58239  1.0000
  C   C2093     1.0  0.61829  0.04379  0.49031  1.0000
  S   S274      1.0  0.92629  0.06366  0.47465  1.0000
  C   C2094     1.0  0.92170  0.22074  0.65281  1.0000
  C   C2095     1.0  0.65020  0.21703  0.62587  1.0000
  H   H1677     1.0  0.50264  0.07389  0.74059  1.0000
  S   S275      1.0  0.82684  0.19789  0.79586  1.0000
  C   C2096     1.0  0.61200  0.20816  0.82117  1.0000
  H   H1678     1.0  0.69422  0.21649  0.77728  1.0000
  H   H1679     1.0  0.77532  0.03855  0.73577  1.0000
  H   H1680     1.0  0.86893  0.12905  0.52482  1.0000
  C   C2097     1.0  0.66045  0.02907  0.47862  1.0000
  H   H1681     1.0  0.96094  0.14837  0.75717  1.0000
  P   P73       1.0  0.83534  0.18705  0.50643  1.0000
  C   C2098     1.0  0.85419  0.15429  0.51652  1.0000
  H   H1682     1.0  0.63116  0.15778  0.75785  1.0000
  C   C2099     1.0  0.70841  0.20499  0.63683  1.0000
  H   H1683     1.0  0.75980  0.09155  0.88131  1.0000
  C   C2100     1.0  0.66354  0.16836  0.77468  1.0000
  S   S276      1.0  0.67358  0.26158  0.41515  1.0000
  H   H1684     1.0  0.63762  0.19927  0.43525  1.0000
  H   H1685     1.0  0.95915  0.07948  0.53425  1.0000
  H   H1686     1.0  0.98155  0.06667  0.65250  1.0000
  Fe  Fe135     1.0  0.98555  0.06123  0.87852  1.0000
  C   C2101     1.0  0.58382  0.22200  0.88128  1.0000
  H   H1687     1.0  0.82806  0.25983  0.76680  1.0000
  H   H1688     1.0  0.56984  0.05015  0.53795  1.0000
  H   H1689     1.0  0.91448  0.12323  0.59892  1.0000
  C   C2102     1.0  0.55616  0.13396  0.87497  1.0000
  H   H1690     1.0  0.73899  0.19336  0.70612  1.0000
  C   C2103     1.0  0.98631  0.04667  0.60273  1.0000
  H   H1691     1.0  0.94018  0.09244  0.88314  1.0000
  S   S277      1.0  0.68007  0.24075  0.53806  1.0000
  H   H1692     1.0  0.92416  0.09866  0.54924  1.0000
  Fe  Fe136     1.0  0.93124  0.03809  0.43372  1.0000
  C   C2104     1.0  0.68084  0.03834  0.44057  1.0000
  H   H1693     1.0  0.91212  0.13154  0.81370  1.0000
  C   C2105     1.0  0.89101  0.08612  0.77855  1.0000
  H   H1694     1.0  0.64012  0.25095  0.54343  1.0000
  C   C2106     1.0  0.96927  0.07466  0.59561  1.0000
  C   C2107     1.0  0.49876  0.13628  0.53078  1.0000
  H   H1695     1.0  0.89166  0.21996  0.75798  1.0000
  C   C2108     1.0  0.85577  0.12787  0.46630  1.0000
  H   H1696     1.0  0.80705  0.13616  0.57009  1.0000
  C   C2109     1.0  0.80497  0.23421  0.86604  1.0000
  C   C2110     1.0  0.63878  0.15640  0.78538  1.0000
  H   H1697     1.0  0.60383  0.23827  0.60836  1.0000
  H   H1698     1.0  0.89295  0.14974  0.74309  1.0000
  H   H1699     1.0  0.60894  0.23165  0.76686  1.0000
  C   C2111     1.0  0.78392  0.17891  0.61893  1.0000
  C   C2112     1.0  0.66017  0.15206  0.85358  1.0000
  H   H1700     1.0  0.57390  0.04334  0.71397  1.0000
  C   C2113     1.0  0.97759  0.21862  0.78920  1.0000
  C   C2114     1.0  0.68199  0.02439  0.40906  1.0000
  C   C2115     1.0  0.73014  0.20225  0.69025  1.0000
  C   C2116     1.0  0.92982  0.17626  0.72416  1.0000
  C   C2117     1.0  0.54010  0.22936  0.77650  1.0000
  H   H1701     1.0  0.66243  0.21006  0.63053  1.0000
  H   H1702     1.0  0.57512  0.20498  0.42354  1.0000
  H   H1703     1.0  0.77627  0.19672  0.88903  1.0000
  C   C2118     1.0  0.80184  0.03627  0.76421  1.0000
  C   C2119     1.0  0.66575  0.05263  0.60180  1.0000
  H   H1704     1.0  0.59796  0.07623  0.40961  1.0000
  C   C2120     1.0  0.91872  0.13773  0.42625  1.0000
  C   C2121     1.0  0.67274  0.26280  0.81302  1.0000
  H   H1705     1.0  0.77577  0.25155  0.41270  1.0000
  C   C2122     1.0  0.81199  0.25954  0.54886  1.0000
  C   C2123     1.0  0.81822  0.04751  0.40013  1.0000
  C   C2124     1.0  0.56601  0.24734  0.40004  1.0000
  H   H1706     1.0  0.77207  0.08759  0.59109  1.0000
  H   H1707     1.0  0.50391  0.22852  0.62791  1.0000
  C   C2125     1.0  0.58566  0.14504  0.76598  1.0000
  C   C2126     1.0  0.54236  0.23186  0.42656  1.0000
  C   C2127     1.0  0.62942  0.04775  0.52486  1.0000
  C   C2128     1.0  0.94925  0.24218  0.69269  1.0000
  H   H1708     1.0  0.71387  0.17859  0.52277  1.0000
  C   C2129     1.0  0.78179  0.21583  0.89027  1.0000
  H   H1709     1.0  0.97834  0.22837  0.46750  1.0000
  H   H1710     1.0  0.75968  0.14613  0.67477  1.0000
  C   C2130     1.0  0.95840  0.11339  0.74988  1.0000
  H   H1711     1.0  0.66469  0.20432  0.85264  1.0000
  C   C2131     1.0  0.55374  0.09114  0.44250  1.0000
  H   H1712     1.0  0.74102  0.25700  0.50567  1.0000
  H   H1713     1.0  0.69806  0.11063  0.78794  1.0000
  Fe  Fe137     1.0  0.50205  0.17989  0.71664  1.0000
  H   H1714     1.0  0.52777  0.12801  0.44033  1.0000
  H   H1715     1.0  0.57046  0.21551  0.49771  1.0000
  C   C2132     1.0  0.52514  0.23481  0.80731  1.0000
  H   H1716     1.0  0.68965  0.04162  0.75949  1.0000
  C   C2133     1.0  0.71811  0.12852  0.46172  1.0000
  C   C2134     1.0  0.53054  0.25958  0.80479  1.0000
  C   C2135     1.0  0.90601  0.13496  0.84617  1.0000
  H   H1717     1.0  0.51045  0.17540  0.52210  1.0000
  H   H1718     1.0  0.83132  0.07699  0.52808  1.0000
  H   H1719     1.0  0.51951  0.04637  0.76392  1.0000
  S   S278      1.0  0.77067  0.10212  0.74532  1.0000
  C   C2136     1.0  0.58288  0.07918  0.40861  1.0000
  H   H1720     1.0  0.58307  0.24276  0.81884  1.0000
  H   H1721     1.0  0.71617  0.02944  0.83697  1.0000
  C   C2137     1.0  0.82450  0.19942  0.46474  1.0000
  H   H1722     1.0  0.73697  0.05504  0.39756  1.0000
  C   C2138     1.0  0.90652  0.22382  0.72910  1.0000
  C   C2139     1.0  0.72261  0.10941  0.47982  1.0000
  C   C2140     1.0  0.89819  0.09323  0.66157  1.0000
  C   C2141     1.0  0.88223  0.07407  0.82560  1.0000
  C   C2142     1.0  0.98811  0.02569  0.44963  1.0000
  H   H1723     1.0  0.67128  0.05632  0.66763  1.0000
  H   H1724     1.0  0.67016  0.25246  0.69581  1.0000
  C   C2143     1.0  0.78157  0.07680  0.59074  1.0000
  H   H1725     1.0  0.54008  0.19742  0.86518  1.0000
  S   S279      1.0  0.66001  0.06456  0.78776  1.0000
  H   H1726     1.0  0.97899  0.04347  0.73683  1.0000
  C   C2144     1.0  0.98620  0.03120  0.72819  1.0000
  C   C2145     1.0  0.57282  0.08666  0.44421  1.0000
  H   H1727     1.0  0.65974  0.09474  0.47184  1.0000
  C   C2146     1.0  0.49905  0.02512  0.60021  1.0000
  C   C2147     1.0  0.56004  0.24861  0.74233  1.0000
  H   H1728     1.0  0.85792  0.16069  0.54629  1.0000
  C   C2148     1.0  0.58632  0.04931  0.53445  1.0000
  H   H1729     1.0  0.57133  0.24415  0.71835  1.0000
  H   H1730     1.0  0.70808  0.07021  0.50980  1.0000
  C   C2149     1.0  0.72867  0.19666  0.51817  1.0000
  C   C2150     1.0  0.80562  0.21822  0.40397  1.0000
  C   C2151     1.0  0.85635  0.06390  0.41454  1.0000
  C   C2152     1.0  0.95068  0.12288  0.82365  1.0000
  H   H1731     1.0  0.82867  0.03075  0.78723  1.0000
  C   C2153     1.0  0.77233  0.05453  0.62474  1.0000
  C   C2154     1.0  0.93005  0.23742  0.73015  1.0000
  C   C2155     1.0  0.74802  0.06689  0.41482  1.0000
  C   C2156     1.0  0.86012  0.07028  0.85158  1.0000
  C   C2157     1.0  0.82648  0.23426  0.41172  1.0000
  Fe  Fe138     1.0  0.63702  0.02286  0.81095  1.0000
  C   C2158     1.0  0.90263  0.23963  0.86010  1.0000
  C   C2159     1.0  0.54395  0.03106  0.83120  1.0000
  H   H1732     1.0  0.55108  0.13047  0.84451  1.0000
  C   C2160     1.0  0.88242  0.22391  0.47350  1.0000
  H   H1733     1.0  0.85338  0.06103  0.88808  1.0000
  C   C2161     1.0  0.71804  0.23464  0.68286  1.0000
  H   H1734     1.0  0.95538  0.07691  0.75280  1.0000
  C   C2162     1.0  0.67423  0.16608  0.80871  1.0000
  H   H1735     1.0  0.66853  0.15018  0.87980  1.0000
  H   H1736     1.0  0.89093  0.03456  0.66554  1.0000
  S   S280      1.0  0.52436  0.16140  0.72855  1.0000
  C   C2163     1.0  0.95337  0.08949  0.77243  1.0000
  C   C2164     1.0  0.94519  0.09863  0.84604  1.0000
  C   C2165     1.0  0.96636  0.06999  0.55376  1.0000
  C   C2166     1.0  0.99271  0.18240  0.79218  1.0000
  H   H1737     1.0  0.86024  0.11368  0.45738  1.0000
  H   H1738     1.0  0.79981  0.04325  0.41016  1.0000
  C   C2167     1.0  0.86224  0.21052  0.51232  1.0000
  H   H1739     1.0  0.83115  0.16291  0.42992  1.0000
  C   C2168     1.0  0.82828  0.09649  0.66554  1.0000
  C   C2169     1.0  0.73922  0.18671  0.83968  1.0000
  C   C2170     1.0  0.63040  0.21104  0.66296  1.0000
  H   H1740     1.0  0.80560  0.11063  0.88637  1.0000
  H   H1741     1.0  0.50174  0.13592  0.82935  1.0000
  H   H1742     1.0  0.97161  0.05103  0.50301  1.0000
  C   C2171     1.0  0.84680  0.07858  0.83056  1.0000
  C   C2172     1.0  0.60096  0.21289  0.50849  1.0000
  H   H1743     1.0  0.91866  0.21449  0.62262  1.0000
  C   C2173     1.0  0.88158  0.26282  0.72051  1.0000
  C   C2174     1.0  0.66702  0.04405  0.64528  1.0000
  H   H1744     1.0  0.76028  0.24679  0.78037  1.0000
  C   C2175     1.0  0.50933  0.26619  0.61120  1.0000
  H   H1745     1.0  0.73236  0.14748  0.44867  1.0000
  H   H1746     1.0  0.73281  0.05641  0.74369  1.0000
  H   H1747     1.0  0.85488  0.24808  0.89055  1.0000
  H   H1748     1.0  0.97168  0.23261  0.78758  1.0000
  H   H1749     1.0  0.62770  0.19988  0.69624  1.0000
  H   H1750     1.0  0.58913  0.05710  0.59938  1.0000
  Fe  Fe139     1.0  0.52878  0.20107  0.61481  1.0000
  Fe  Fe140     1.0  0.79018  0.13654  0.76724  1.0000
  C   C2176     1.0  0.74427  0.24110  0.50846  1.0000
  H   H1751     1.0  0.70000  0.23515  0.63145  1.0000
  H   H1752     1.0  0.61830  0.09498  0.81454  1.0000
  H   H1753     1.0  0.88695  0.23376  0.59323  1.0000
  H   H1754     1.0  0.94462  0.19031  0.83675  1.0000
  Fe  Fe141     1.0  0.83906  0.18217  0.74113  1.0000
  C   C2177     1.0  0.84501  0.13741  0.43989  1.0000
  C   C2178     1.0  0.63749  0.23985  0.57667  1.0000
  H   H1755     1.0  0.70762  0.21575  0.51840  1.0000
  H   H1756     1.0  0.81725  0.22882  0.84767  1.0000
  C   C2179     1.0  0.78409  0.03996  0.62347  1.0000
  C   C2180     1.0  0.96980  0.17622  0.81921  1.0000
  H   H1757     1.0  0.75414  0.18292  0.51485  1.0000
  S   S281      1.0  0.53361  0.21623  0.67560  1.0000
  C   C2181     1.0  0.89644  0.05407  0.65139  1.0000
  C   C2182     1.0  0.59725  0.05330  0.56898  1.0000
  H   H1758     1.0  0.53068  0.09283  0.40399  1.0000
  H   H1759     1.0  0.64951  0.08514  0.89087  1.0000
  C   C2183     1.0  0.86051  0.13642  0.50446  1.0000
  P   P74       1.0  0.49670  0.19219  0.44470  1.0000
  C   C2184     1.0  0.57490  0.10148  0.77581  1.0000
  C   C2185     1.0  0.88354  0.13367  0.85889  1.0000
  H   H1760     1.0  0.84487  0.09710  0.76844  1.0000
  H   H1761     1.0  0.85168  0.23790  0.44831  1.0000
  C   C2186     1.0  0.76724  0.24384  0.50302  1.0000
  S   S282      1.0  0.77884  0.21346  0.76292  1.0000
  S   S283      1.0  0.77428  0.14865  0.82471  1.0000
  C   C2187     1.0  0.61978  0.20821  0.49084  1.0000
  C   C2188     1.0  0.93798  0.14661  0.66936  1.0000
  C   C2189     1.0  0.90977  0.10407  0.61414  1.0000
  C   C2190     1.0  0.96223  0.19446  0.81696  1.0000
  Fe  Fe142     1.0  0.80847  0.15887  0.84147  1.0000
  H   H1762     1.0  0.97499  0.17368  0.65055  1.0000
  H   H1763     1.0  0.90830  0.08922  0.75898  1.0000
  C   C2191     1.0  0.54502  0.08855  0.40484  1.0000
  C   C2192     1.0  0.95292  0.18324  0.69784  1.0000
  C   C2193     1.0  0.90382  0.24128  0.47753  1.0000
  H   H1764     1.0  0.50449  0.13412  0.56102  1.0000
  S   S284      1.0  0.98349  0.12301  0.44903  1.0000
  C   C2194     1.0  0.88555  0.23129  0.55965  1.0000
  C   C2195     1.0  0.94261  0.14770  0.42431  1.0000
  C   C2196     1.0  0.52672  0.24860  0.55855  1.0000
  H   H1765     1.0  0.66919  0.07171  0.59078  1.0000
  S   S285      1.0  0.97892  0.25734  0.69292  1.0000
  C   C2197     1.0  0.94493  0.23358  0.65442  1.0000
  H   H1766     1.0  0.59247  0.16195  0.77705  1.0000
  C   C2198     1.0  0.72527  0.06827  0.75338  1.0000
  H   H1767     1.0  0.77806  0.18038  0.42016  1.0000
  C   C2199     1.0  0.81492  0.07086  0.55519  1.0000
  C   C2200     1.0  0.99285  0.23386  0.48224  1.0000
  C   C2201     1.0  0.91460  0.13979  0.69488  1.0000
  C   C2202     1.0  0.80340  0.18352  0.45702  1.0000
  H   H1768     1.0  0.82441  0.06037  0.45978  1.0000
  C   C2203     1.0  0.60570  0.19865  0.86869  1.0000
  C   C2204     1.0  0.57528  0.13103  0.88384  1.0000
  H   H1769     1.0  0.52235  0.03283  0.53322  1.0000
  P   P75       1.0  0.95041  0.14505  0.85612  1.0000
  C   C2205     1.0  0.67118  0.22237  0.82915  1.0000
  C   C2206     1.0  0.90844  0.06518  0.60447  1.0000
  C   C2207     1.0  0.84313  0.16380  0.49036  1.0000
  C   C2208     1.0  0.75135  0.19912  0.51364  1.0000
  C   C2209     1.0  0.98414  0.04252  0.55988  1.0000
  C   C2210     1.0  0.91512  0.09017  0.58584  1.0000
  C   C2211     1.0  0.83894  0.15548  0.45155  1.0000
  H   H1770     1.0  0.84604  0.07588  0.68423  1.0000
  C   C2212     1.0  0.58848  0.09145  0.86762  1.0000
  H   H1771     1.0  0.96421  0.11935  0.71262  1.0000
  C   C2213     1.0  0.71490  0.20439  0.87430  1.0000
  H   H1772     1.0  0.93336  0.24378  0.76006  1.0000
  C   C2214     1.0  0.50205  0.15960  0.50873  1.0000
  H   H1773     1.0  0.92203  0.25824  0.52383  1.0000
  H   H1774     1.0  0.97161  0.23261  0.54714  1.0000
  C   C2215     1.0  0.97372  0.05398  0.53589  1.0000
  H   H1775     1.0  0.95793  0.23338  0.40658  1.0000
  C   C2216     1.0  0.97911  0.06288  0.62024  1.0000
  C   C2217     1.0  0.77928  0.10685  0.41278  1.0000
  H   H1776     1.0  0.93237  0.25991  0.88286  1.0000
  H   H1777     1.0  0.73797  0.22983  0.72787  1.0000
  C   C2218     1.0  0.73013  0.10719  0.76941  1.0000
  H   H1778     1.0  0.84916  0.20329  0.58660  1.0000
  H   H1779     1.0  0.88118  0.05866  0.71571  1.0000
  H   H1780     1.0  0.81531  0.03783  0.58792  1.0000
  C   C2219     1.0  0.77382  0.15379  0.64234  1.0000
  H   H1781     1.0  0.74285  0.17116  0.83950  1.0000
  C   C2220     1.0  0.81139  0.17369  0.55991  1.0000
  S   S286      1.0  0.80714  0.17388  0.71682  1.0000
  H   H1782     1.0  0.91069  0.25219  0.82578  1.0000
  H   H1783     1.0  0.75597  0.04871  0.65166  1.0000
  C   C2221     1.0  0.78225  0.13854  0.62446  1.0000
  C   C2222     1.0  0.91481  0.24409  0.89275  1.0000
  H   H1784     1.0  0.72492  0.24175  0.83809  1.0000
  C   C2223     1.0  0.98907  0.23631  0.52714  1.0000
  Fe  Fe143     1.0  0.95953  0.09350  0.42128  1.0000
  C   C2224     1.0  0.72947  0.22292  0.70277  1.0000
  H   H1785     1.0  0.74141  0.12559  0.77166  1.0000
  C   C2225     1.0  0.85543  0.09050  0.78352  1.0000
  C   C2226     1.0  0.70797  0.22584  0.64899  1.0000
  C   C2227     1.0  0.86404  0.21407  0.55565  1.0000
  H   H1786     1.0  0.84945  0.15885  0.64946  1.0000
  C   C2228     1.0  0.83022  0.25785  0.56376  1.0000
  C   C2229     1.0  0.81827  0.02729  0.76342  1.0000
  H   H1787     1.0  0.84893  0.24962  0.70297  1.0000
  C   C2230     1.0  0.54082  0.14088  0.40834  1.0000
  H   H1788     1.0  0.71432  0.25210  0.39870  1.0000
  C   C2231     1.0  0.63910  0.09389  0.99874  1.0000
  C   C2232     1.0  0.85076  0.20723  0.20910  1.0000
  C   C2233     1.0  0.97903  0.04179  0.19464  1.0000
  S   S287      1.0  0.78722  0.04907  0.02915  1.0000
  H   H1789     1.0  0.70979  0.17442  0.01397  1.0000
  C   C2234     1.0  0.67445  0.19431  0.10293  1.0000
  H   H1790     1.0  0.55342  0.19221  0.00556  1.0000
  C   C2235     1.0  0.57959  0.13354  0.92610  1.0000
  C   C2236     1.0  0.91250  0.19514  0.05158  1.0000
  H   H1791     1.0  0.96100  0.19580  0.07008  1.0000
  H   H1792     1.0  0.56772  0.03629  0.20879  1.0000
  C   C2237     1.0  0.96058  0.17797  0.22713  1.0000
  S   S288      1.0  0.97806  0.08539  0.92029  1.0000
  H   H1793     1.0  0.61199  0.18439  0.00904  1.0000
  H   H1794     1.0  0.58685  0.19773  0.93531  1.0000
  H   H1795     1.0  0.67047  0.16945  0.01155  1.0000
  C   C2238     1.0  0.51720  0.11406  0.06766  1.0000
  S   S289      1.0  0.61667  0.04883  0.37218  1.0000
  C   C2239     1.0  0.73841  0.02627  0.19631  1.0000
  C   C2240     1.0  0.96061  0.13980  0.90518  1.0000
  S   S290      1.0  0.81013  0.02775  0.32718  1.0000
  C   C2241     1.0  0.82804  0.04312  0.35950  1.0000
  C   C2242     1.0  0.91453  0.20492  0.33158  1.0000
  C   C2243     1.0  0.55480  0.08067  0.36909  1.0000
  H   H1796     1.0  0.66255  0.18299  0.22303  1.0000
  S   S291      1.0  0.52443  0.09061  0.05766  1.0000
  C   C2244     1.0  0.57258  0.11348  0.22763  1.0000
  C   C2245     1.0  0.80263  0.07995  0.27454  1.0000
  H   H1797     1.0  0.68955  0.09767  0.89937  1.0000
  H   H1798     1.0  0.70857  0.16688  0.90023  1.0000
  S   S292      1.0  0.91090  0.05327  0.98883  1.0000
  C   C2246     1.0  0.54312  0.05430  0.29671  1.0000
  H   H1799     1.0  0.97376  0.24486  0.17043  1.0000
  C   C2247     1.0  0.67762  0.17688  0.03784  1.0000
  C   C2248     1.0  0.83188  0.13025  0.26543  1.0000
  P   P76       1.0  0.54656  0.08168  0.31663  1.0000
  H   H1800     1.0  0.58758  0.11195  0.09742  1.0000
  C   C2249     1.0  0.75402  0.06208  0.24454  1.0000
  Fe  Fe144     1.0  0.94285  0.07385  0.34238  1.0000
  H   H1801     1.0  0.63420  0.08061  0.21691  1.0000
  C   C2250     1.0  0.84971  0.02198  0.95803  1.0000
  H   H1802     1.0  0.66434  0.19976  0.12749  1.0000
  C   C2251     1.0  0.79254  0.09626  0.01896  1.0000
  C   C2252     1.0  0.51850  0.08242  0.32691  1.0000
  H   H1803     1.0  0.92680  0.10847  0.94673  1.0000
  H   H1804     1.0  0.61786  0.16414  0.26887  1.0000
  H   H1805     1.0  0.92885  0.19596  0.03258  1.0000
  H   H1806     1.0  0.55957  0.10007  0.21560  1.0000
  C   C2253     1.0  0.60873  0.15223  0.21028  1.0000
  C   C2254     1.0  0.58327  0.04435  0.90563  1.0000
  H   H1807     1.0  0.89106  0.04680  0.25142  1.0000
  C   C2255     1.0  0.72669  0.08056  0.99114  1.0000
  H   H1808     1.0  0.83048  0.23596  0.29796  1.0000
  H   H1809     1.0  0.52144  0.20822  0.00033  1.0000
  C   C2256     1.0  0.71150  0.06003  0.12478  1.0000
  C   C2257     1.0  0.52761  0.24341  0.05537  1.0000
  Fe  Fe145     1.0  0.54475  0.18747  0.20726  1.0000
  C   C2258     1.0  0.74026  0.24682  0.29568  1.0000
  H   H1810     1.0  0.67462  0.02404  0.98218  1.0000
  C   C2259     1.0  0.54259  0.14059  0.90644  1.0000
  C   C2260     1.0  0.82257  0.15039  0.08119  1.0000
  S   S293      1.0  0.75103  0.17026  0.25716  1.0000
  C   C2261     1.0  0.80360  0.15574  0.09137  1.0000
  C   C2262     1.0  0.95291  0.11579  0.98236  1.0000
  H   H1811     1.0  0.92920  0.19803  0.93688  1.0000
  H   H1812     1.0  0.56813  0.21889  0.31396  1.0000
  C   C2263     1.0  0.69700  0.19768  0.10397  1.0000
  C   C2264     1.0  0.74099  0.22460  0.31133  1.0000
  H   H1813     1.0  0.78831  0.09223  0.05598  1.0000
  H   H1814     1.0  0.83803  0.16237  0.05181  1.0000
  H   H1815     1.0  0.67280  0.15174  0.35667  1.0000
  H   H1816     1.0  0.86002  0.25420  0.12142  1.0000
  C   C2265     1.0  0.59858  0.12577  0.06487  1.0000
  C   C2266     1.0  0.52379  0.14944  0.09896  1.0000
  C   C2267     1.0  0.62188  0.08874  0.09865  1.0000
  C   C2268     1.0  0.56572  0.13981  0.95780  1.0000
  S   S294      1.0  0.79950  0.13775  0.38282  1.0000
  C   C2269     1.0  0.80246  0.12501  0.94564  1.0000
  C   C2270     1.0  0.57015  0.07571  0.90827  1.0000
  C   C2271     1.0  0.52975  0.13086  0.09009  1.0000
  C   C2272     1.0  0.60633  0.22950  0.16397  1.0000
  C   C2273     1.0  0.63482  0.08846  0.95775  1.0000
  H   H1817     1.0  0.60180  0.14260  0.39053  1.0000
  C   C2274     1.0  0.90835  0.12029  0.28839  1.0000
  H   H1818     1.0  0.86419  0.05693  0.08979  1.0000
  S   S295      1.0  0.90903  0.04267  0.39102  1.0000
  C   C2275     1.0  0.66005  0.01895  0.01255  1.0000
  C   C2276     1.0  0.61351  0.12112  0.03176  1.0000
  H   H1819     1.0  0.91901  0.06030  0.10531  1.0000
  C   C2277     1.0  0.63085  0.08297  0.18393  1.0000
  C   C2278     1.0  0.65950  0.14809  0.25661  1.0000
  S   S296      1.0  0.74421  0.13221  0.35174  1.0000
  H   H1820     1.0  0.78303  0.01694  0.12218  1.0000
  C   C2279     1.0  0.87009  0.01915  0.22132  1.0000
  H   H1821     1.0  0.63891  0.17681  0.95058  1.0000
  H   H1822     1.0  0.72264  0.17044  0.17491  1.0000
  Fe  Fe146     1.0  0.94452  0.05100  0.96162  1.0000
  H   H1823     1.0  0.85983  0.05684  0.17178  1.0000
  C   C2280     1.0  0.73059  0.04296  0.26045  1.0000
  C   C2281     1.0  0.54746  0.14368  0.94769  1.0000
  C   C2282     1.0  0.72217  0.22236  0.38959  1.0000
  C   C2283     1.0  0.89029  0.03986  0.96005  1.0000
  C   C2284     1.0  0.56774  0.05232  0.92727  1.0000
  H   H1824     1.0  0.83954  0.06879  0.05010  1.0000
  H   H1825     1.0  0.62919  0.12439  0.38624  1.0000
  C   C2285     1.0  0.98385  0.21594  0.16587  1.0000
  C   C2286     1.0  0.50900  0.06191  0.21890  1.0000
  H   H1826     1.0  0.61742  0.08303  0.95331  1.0000
  C   C2287     1.0  0.74736  0.08126  0.91544  1.0000
  C   C2288     1.0  0.78364  0.14031  0.12931  1.0000
  C   C2289     1.0  0.73174  0.21233  0.35836  1.0000
  H   H1827     1.0  0.57013  0.25925  0.19207  1.0000
  H   H1828     1.0  0.54371  0.12921  0.10140  1.0000
  H   H1829     1.0  0.83172  0.01851  0.97190  1.0000
  H   H1830     1.0  0.58072  0.02584  0.91954  1.0000
  C   C2290     1.0  0.68465  0.07192  0.09689  1.0000
  H   H1831     1.0  0.94061  0.22034  0.24116  1.0000
  C   C2291     1.0  0.50358  0.17556  0.90587  1.0000
  S   S297      1.0  0.50909  0.03991  0.99409  1.0000
  C   C2292     1.0  0.63619  0.14435  0.37436  1.0000
  C   C2293     1.0  0.98232  0.25691  0.06900  1.0000
  H   H1832     1.0  0.64039  0.13728  0.96484  1.0000
  C   C2294     1.0  0.65295  0.08975  0.92218  1.0000
  H   H1833     1.0  0.97277  0.08807  0.17314  1.0000
  C   C2295     1.0  0.79698  0.08321  0.94885  1.0000
  Fe  Fe147     1.0  0.49894  0.05181  0.93316  1.0000
  C   C2296     1.0  0.54556  0.26217  0.90755  1.0000
  C   C2297     1.0  0.66389  0.02338  0.05437  1.0000
  H   H1834     1.0  0.74038  0.04566  0.90361  1.0000
  H   H1835     1.0  0.96883  0.12418  0.28136  1.0000
  S   S298      1.0  0.78996  0.18756  0.31384  1.0000
  H   H1836     1.0  0.96307  0.03238  0.26791  1.0000
  H   H1837     1.0  0.52334  0.09922  0.17652  1.0000
  C   C2298     1.0  0.61608  0.06506  0.12491  1.0000
  C   C2299     1.0  0.52335  0.03108  0.32033  1.0000
  S   S299      1.0  0.95082  0.02766  0.91641  1.0000
  C   C2300     1.0  0.90031  0.17873  0.09561  1.0000
  H   H1838     1.0  0.87649  0.22203  0.04731  1.0000
  H   H1839     1.0  0.87804  0.08666  0.22381  1.0000
  C   C2301     1.0  0.66356  0.08159  0.35294  1.0000
  C   C2302     1.0  0.74271  0.09390  0.94711  1.0000
  H   H1840     1.0  0.63788  0.12808  0.09547  1.0000
  H   H1841     1.0  0.98966  0.18398  0.17002  1.0000
  Fe  Fe148     1.0  0.74771  0.13216  0.27809  1.0000
  P   P77       1.0  0.61558  0.09249  0.04421  1.0000
  H   H1842     1.0  0.55330  0.03992  0.95796  1.0000
  H   H1843     1.0  0.54637  0.15971  0.29540  1.0000
  C   C2303     1.0  0.87069  0.19289  0.10359  1.0000
  C   C2304     1.0  0.62432  0.22375  0.32402  1.0000
  Fe  Fe149     1.0  0.78364  0.14839  0.33123  1.0000
  H   H1844     1.0  0.50566  0.21821  0.34797  1.0000
  H   H1845     1.0  0.61095  0.18422  0.11801  1.0000
  H   H1846     1.0  0.56851  0.14083  0.99101  1.0000
  C   C2305     1.0  0.49392  0.13552  0.06008  1.0000
  C   C2306     1.0  0.94499  0.12046  0.94495  1.0000
  C   C2307     1.0  0.99027  0.24864  0.93596  1.0000
  C   C2308     1.0  0.53439  0.14231  0.36804  1.0000
  H   H1847     1.0  0.95706  0.15925  0.24237  1.0000
  C   C2309     1.0  0.51678  0.19914  0.97377  1.0000
  H   H1848     1.0  0.56488  0.08141  0.06578  1.0000
  H   H1849     1.0  0.96284  0.02952  0.18851  1.0000
  C   C2310     1.0  0.73638  0.05531  0.92807  1.0000
  C   C2311     1.0  0.95144  0.21225  0.22700  1.0000
  S   S300      1.0  0.57582  0.17992  0.19747  1.0000
  C   C2312     1.0  0.90401  0.21084  0.03350  1.0000
  C   C2313     1.0  0.79247  0.07799  0.99668  1.0000
  C   C2314     1.0  0.77001  0.06323  0.20465  1.0000
  H   H1850     1.0  0.74700  0.25607  0.25934  1.0000
  H   H1851     1.0  0.51626  0.13071  0.36881  1.0000
  C   C2315     1.0  0.58111  0.17327  0.36660  1.0000
  C   C2316     1.0  0.88194  0.20760  0.94901  1.0000
  C   C2317     1.0  0.86675  0.18549  0.33527  1.0000
  H   H1852     1.0  0.69926  0.24634  0.10002  1.0000
  C   C2318     1.0  0.77915  0.24705  0.07921  1.0000
  H   H1853     1.0  0.57619  0.07255  0.24037  1.0000
  C   C2319     1.0  0.77540  0.23384  0.15968  1.0000
  H   H1854     1.0  0.53656  0.14827  0.97246  1.0000
  C   C2320     1.0  0.71514  0.05438  0.00380  1.0000
  H   H1855     1.0  0.62703  0.20728  0.26699  1.0000
  H   H1856     1.0  0.96812  0.18254  0.31319  1.0000
  C   C2321     1.0  0.97712  0.12479  0.24670  1.0000
  H   H1857     1.0  0.60796  0.04861  0.11319  1.0000
  C   C2322     1.0  0.57370  0.21254  0.04587  1.0000
  C   C2323     1.0  0.80985  0.25139  0.27192  1.0000
  C   C2324     1.0  0.80976  0.08755  0.31173  1.0000
  C   C2325     1.0  0.62074  0.15475  0.37642  1.0000
  H   H1858     1.0  0.58679  0.18729  0.29367  1.0000
  C   C2326     1.0  0.59692  0.25708  0.01402  1.0000
  H   H1859     1.0  0.66123  0.11475  0.28343  1.0000
  H   H1860     1.0  0.91860  0.11898  0.31109  1.0000
  H   H1861     1.0  0.83198  0.06926  0.21354  1.0000
  H   H1862     1.0  0.58629  0.15185  0.08205  1.0000
  H   H1863     1.0  0.90174  0.26587  0.11685  1.0000
  C   C2327     1.0  0.62803  0.13976  0.99044  1.0000
  H   H1864     1.0  0.55738  0.08112  0.92479  1.0000
  H   H1865     1.0  0.92351  0.15156  0.93821  1.0000
  C   C2328     1.0  0.67556  0.09683  0.92695  1.0000
  C   C2329     1.0  0.87451  0.21322  0.20502  1.0000
  H   H1866     1.0  0.59300  0.25581  0.33737  1.0000
  S   S301      1.0  0.51089  0.15558  0.20915  1.0000
  H   H1867     1.0  0.61596  0.04391  0.18745  1.0000
  C   C2330     1.0  0.88951  0.04125  0.21999  1.0000
  H   H1868     1.0  0.70186  0.12965  0.23181  1.0000
  H   H1869     1.0  0.98284  0.02842  0.38289  1.0000
  C   C2331     1.0  0.69987  0.17977  0.03913  1.0000
  H   H1870     1.0  0.80361  0.07396  0.34433  1.0000
  C   C2332     1.0  0.57503  0.24315  0.35873  1.0000
  H   H1871     1.0  0.59386  0.13689  0.15919  1.0000
  Fe  Fe150     1.0  0.96972  0.01865  0.96284  1.0000
  C   C2333     1.0  0.70100  0.23163  0.16677  1.0000
  H   H1872     1.0  0.66592  0.10642  0.03354  1.0000
  H   H1873     1.0  0.62339  0.16870  0.18544  1.0000
  P   P78       1.0  0.69355  0.03688  0.05995  1.0000
  C   C2334     1.0  0.97924  0.10450  0.18561  1.0000
  C   C2335     1.0  0.97020  0.22623  0.18638  1.0000
  H   H1874     1.0  0.79287  0.23632  0.29362  1.0000
  H   H1875     1.0  0.86199  0.04169  0.00726  1.0000
  C   C2336     1.0  0.69485  0.08538  0.28882  1.0000
  H   H1876     1.0  0.69773  0.10852  0.97045  1.0000
  H   H1877     1.0  0.97877  0.17044  0.38144  1.0000
  P   P79       1.0  0.56412  0.22915  0.92015  1.0000
  C   C2337     1.0  0.67142  0.17164  0.22514  1.0000
  H   H1878     1.0  0.77339  0.04663  0.14811  1.0000
  C   C2338     1.0  0.83366  0.06971  0.17768  1.0000
  C   C2339     1.0  0.91248  0.14354  0.38704  1.0000
  C   C2340     1.0  0.58834  0.06520  0.04887  1.0000
  H   H1879     1.0  0.53321  0.16205  0.11709  1.0000
  C   C2341     1.0  0.88305  0.20966  0.05997  1.0000
  C   C2342     1.0  0.94659  0.18802  0.24782  1.0000
  C   C2343     1.0  0.82011  0.07709  0.15510  1.0000
  C   C2344     1.0  0.80965  0.09756  0.23267  1.0000
  C   C2345     1.0  0.63272  0.10956  0.11525  1.0000
  C   C2346     1.0  0.90733  0.05589  0.17841  1.0000
  H   H1880     1.0  0.81164  0.08136  0.09120  1.0000
  H   H1881     1.0  0.85259  0.18695  0.92494  1.0000
  H   H1882     1.0  0.52881  0.24741  0.93070  1.0000
  C   C2347     1.0  0.98874  0.22838  0.91896  1.0000
  H   H1883     1.0  0.75191  0.11408  0.93763  1.0000
  H   H1884     1.0  0.72580  0.07833  0.17398  1.0000
  C   C2348     1.0  0.65395  0.05497  0.30196  1.0000
  S   S302      1.0  0.96036  0.03897  0.01185  1.0000
  C   C2349     1.0  0.85198  0.06260  0.10796  1.0000
  H   H1885     1.0  0.83689  0.12638  0.10142  1.0000
  H   H1886     1.0  0.74775  0.20796  0.93439  1.0000
  H   H1887     1.0  0.76702  0.09811  0.35480  1.0000
  H   H1888     1.0  0.64761  0.18170  0.06869  1.0000
  H   H1889     1.0  0.69770  0.03168  0.37968  1.0000
  H   H1890     1.0  0.68346  0.06003  0.24720  1.0000
  C   C2350     1.0  0.76181  0.04555  0.17997  1.0000
  C   C2351     1.0  0.56561  0.21044  0.00731  1.0000
  H   H1891     1.0  0.79653  0.06920  0.93140  1.0000
  C   C2352     1.0  0.96667  0.21010  0.91963  1.0000
  C   C2353     1.0  0.83090  0.25118  0.27451  1.0000
  H   H1892     1.0  0.52676  0.19020  0.36296  1.0000
  C   C2354     1.0  0.53404  0.20492  0.93203  1.0000
  C   C2355     1.0  0.70938  0.18976  0.07253  1.0000
  C   C2356     1.0  0.64022  0.24657  0.24321  1.0000
  C   C2357     1.0  0.69857  0.24831  0.13452  1.0000
  H   H1893     1.0  0.79833  0.22537  0.38042  1.0000
  C   C2358     1.0  0.95406  0.16975  0.34418  1.0000
  C   C2359     1.0  0.97651  0.13025  0.98039  1.0000
  C   C2360     1.0  0.97337  0.21544  0.06160  1.0000
  C   C2361     1.0  0.84557  0.22198  0.17865  1.0000
  C   C2362     1.0  0.88764  0.24939  0.14217  1.0000
  H   H1894     1.0  0.71840  0.04219  0.29127  1.0000
  C   C2363     1.0  0.96023  0.16334  0.38314  1.0000
  C   C2364     1.0  0.55963  0.05578  0.25722  1.0000
  H   H1895     1.0  0.90192  0.08491  0.27596  1.0000
  S   S303      1.0  0.94610  0.07487  0.26802  1.0000
  H   H1896     1.0  0.79755  0.13370  0.01092  1.0000
  C   C2365     1.0  0.53752  0.20642  0.37297  1.0000
  C   C2366     1.0  0.77316  0.24668  0.91807  1.0000
  H   H1897     1.0  0.52774  0.14248  0.89955  1.0000
  C   C2367     1.0  0.90391  0.18349  0.31665  1.0000
  P   P80       1.0  0.70810  0.20824  0.14986  1.0000
  C   C2368     1.0  0.49436  0.10117  0.30765  1.0000
  C   C2369     1.0  0.97900  0.19183  0.18613  1.0000
  C   C2370     1.0  0.69643  0.05740  0.09717  1.0000
  C   C2371     1.0  0.71443  0.07664  0.15219  1.0000
  C   C2372     1.0  0.80149  0.11385  0.14683  1.0000
  C   C2373     1.0  0.73058  0.25681  0.32720  1.0000
  H   H1898     1.0  0.90730  0.16718  0.10997  1.0000
  C   C2374     1.0  0.82170  0.12973  0.10910  1.0000
  H   H1899     1.0  0.74831  0.21676  0.28710  1.0000
  C   C2375     1.0  0.89665  0.03222  0.92119  1.0000
  C   C2376     1.0  0.49924  0.11633  0.05273  1.0000
  H   H1900     1.0  0.65804  0.08758  0.38251  1.0000
  H   H1901     1.0  0.51130  0.02869  0.35265  1.0000
  H   H1902     1.0  0.84820  0.17791  0.33688  1.0000
  C   C2377     1.0  0.61537  0.20261  0.12228  1.0000
  C   C2378     1.0  0.56629  0.06508  0.06066  1.0000
  S   S304      1.0  0.79756  0.02668  0.91579  1.0000
  C   C2379     1.0  0.96987  0.25076  0.95366  1.0000
  H   H1903     1.0  0.80439  0.17192  0.07006  1.0000
  P   P81       1.0  0.61034  0.19460  0.36816  1.0000
  C   C2380     1.0  0.96609  0.23170  0.07853  1.0000
  C   C2381     1.0  0.72039  0.04188  0.97204  1.0000
  H   H1904     1.0  0.64520  0.12274  0.17059  1.0000
  C   C2382     1.0  0.90544  0.14155  0.27760  1.0000
  C   C2383     1.0  0.89893  0.10087  0.26825  1.0000
  C   C2384     1.0  0.94619  0.21227  0.93676  1.0000
  H   H1905     1.0  0.70361  0.22321  0.23561  1.0000
  C   C2385     1.0  0.80209  0.10674  0.92328  1.0000
  C   C2386     1.0  0.57009  0.11000  0.27488  1.0000
  H   H1906     1.0  0.78354  0.23333  0.18678  1.0000
  H   H1907     1.0  0.86002  0.04749  0.31348  1.0000
  H   H1908     1.0  0.89396  0.13528  0.38855  1.0000
  C   C2387     1.0  0.92748  0.26377  0.99171  1.0000
  C   C2388     1.0  0.67047  0.13298  0.25908  1.0000
  H   H1909     1.0  0.73690  0.03213  0.05105  1.0000
  C   C2389     1.0  0.79765  0.11973  0.99347  1.0000
  H   H1910     1.0  0.53351  0.23027  0.06730  1.0000
  S   S305      1.0  0.52560  0.25915  0.21886  1.0000
  H   H1911     1.0  0.93303  0.21267  0.33049  1.0000
  C   C2390     1.0  0.55503  0.03518  0.23916  1.0000
  H   H1912     1.0  0.59491  0.23747  0.07967  1.0000
  C   C2391     1.0  0.64673  0.06244  0.34047  1.0000
  S   S306      1.0  0.78691  0.14525  0.25881  1.0000
  C   C2392     1.0  0.68758  0.09320  0.32687  1.0000
  C   C2393     1.0  0.84955  0.06259  0.15409  1.0000
  H   H1913     1.0  0.76904  0.14460  0.13781  1.0000
  P   P82       1.0  0.92113  0.16831  0.29733  1.0000
  H   H1914     1.0  0.72115  0.04944  0.12519  1.0000
  H   H1915     1.0  0.71190  0.02173  0.98096  1.0000
  S   S307      1.0  0.72456  0.10049  0.25426  1.0000
  S   S308      1.0  0.69150  0.20198  0.91886  1.0000
  C   C2394     1.0  0.82228  0.07645  0.10906  1.0000
  H   H1916     1.0  0.59304  0.12989  0.93549  1.0000
  H   H1917     1.0  0.58449  0.12734  0.32555  1.0000
  C   C2395     1.0  0.86693  0.03541  0.97768  1.0000
  C   C2396     1.0  0.62984  0.18066  0.36156  1.0000
  C   C2397     1.0  0.90141  0.21666  0.34770  1.0000
  H   H1918     1.0  0.83001  0.13673  0.19656  1.0000
  H   H1919     1.0  0.83653  0.19100  0.23509  1.0000
  C   C2398     1.0  0.70519  0.16468  0.19811  1.0000
  C   C2399     1.0  0.89338  0.14326  0.24551  1.0000
  C   C2400     1.0  0.66200  0.10151  0.00287  1.0000
  H   H1920     1.0  0.64653  0.01907  0.12564  1.0000
  C   C2401     1.0  0.63700  0.10664  0.15784  1.0000
  C   C2402     1.0  0.58647  0.12870  0.28941  1.0000
  C   C2403     1.0  0.82459  0.12275  0.22819  1.0000
  C   C2404     1.0  0.89295  0.23426  0.17133  1.0000
  H   H1921     1.0  0.88349  0.14831  0.96098  1.0000
  C   C2405     1.0  0.93006  0.15973  0.34589  1.0000
  H   H1922     1.0  0.87062  0.15606  0.31179  1.0000
  H   H1923     1.0  0.92263  0.07272  0.17779  1.0000
  H   H1924     1.0  0.91470  0.03626  0.90670  1.0000
  C   C2406     1.0  0.56812  0.02207  0.04617  1.0000
  C   C2407     1.0  0.74001  0.22270  0.13542  1.0000
  H   H1925     1.0  0.72359  0.09083  0.01506  1.0000
  H   H1926     1.0  0.87332  0.12441  0.20303  1.0000
  C   C2408     1.0  0.82447  0.11261  0.30719  1.0000
  C   C2409     1.0  0.86991  0.20303  0.91609  1.0000
  H   H1927     1.0  0.76093  0.25137  0.93899  1.0000
  H   H1928     1.0  0.87863  0.20167  0.22794  1.0000
  H   H1929     1.0  0.59517  0.23193  0.19213  1.0000
  H   H1930     1.0  0.79152  0.06031  0.27873  1.0000
  C   C2410     1.0  0.88592  0.02678  0.13893  1.0000
  H   H1931     1.0  0.56795  0.19620  0.07343  1.0000
  C   C2411     1.0  0.66482  0.18392  0.06994  1.0000
  C   C2412     1.0  0.90537  0.04880  0.13779  1.0000
  H   H1932     1.0  0.52845  0.04361  0.07551  1.0000
  C   C2413     1.0  0.60089  0.20571  0.15876  1.0000
  C   C2414     1.0  0.50574  0.15168  0.08432  1.0000
  H   H1933     1.0  0.64176  0.14142  0.27924  1.0000
  H   H1934     1.0  0.76712  0.10804  0.18652  1.0000
  H   H1935     1.0  0.94094  0.10031  0.01224  1.0000
  Fe  Fe151     1.0  0.50749  0.18347  0.16010  1.0000
  C   C2415     1.0  0.97590  0.25674  0.33722  1.0000
  C   C2416     1.0  0.83821  0.06939  0.08554  1.0000
  S   S309      1.0  0.93963  0.10245  0.37616  1.0000
  C   C2417     1.0  0.63021  0.22418  0.27729  1.0000
  C   C2418     1.0  0.50740  0.08247  0.19716  1.0000
  C   C2419     1.0  0.69865  0.25554  0.22196  1.0000
  C   C2420     1.0  0.86723  0.26396  0.94338  1.0000
  C   C2421     1.0  0.78964  0.24578  0.11403  1.0000
  Fe  Fe152     1.0  0.77956  0.01973  0.99028  1.0000
  S   S310      1.0  0.49751  0.17414  0.09753  1.0000
  H   H1936     1.0  0.50134  0.05305  0.39058  1.0000
  Fe  Fe153     1.0  0.52211  0.22167  0.21523  1.0000
  C   C2422     1.0  0.62059  0.06227  0.16726  1.0000
  C   C2423     1.0  0.85904  0.26390  0.90498  1.0000
  C   C2424     1.0  0.90438  0.22845  0.93779  1.0000
  S   S311      1.0  0.80881  0.15462  0.91488  1.0000
  H   H1937     1.0  0.79014  0.25706  0.04394  1.0000
  C   C2425     1.0  0.70258  0.09095  0.15189  1.0000
  H   H1938     1.0  0.89226  0.16016  0.23443  1.0000
  C   C2426     1.0  0.98508  0.22534  0.37169  1.0000
  H   H1939     1.0  0.72633  0.19113  0.07384  1.0000
  C   C2427     1.0  0.66992  0.18547  0.34250  1.0000
  C   C2428     1.0  0.88310  0.12331  0.22686  1.0000
  P   P83       1.0  0.80048  0.08771  0.18450  1.0000
  C   C2429     1.0  0.58904  0.04344  0.04158  1.0000
  H   H1940     1.0  0.73998  0.21314  0.20601  1.0000
  H   H1941     1.0  0.64426  0.24665  0.20724  1.0000
  C   C2430     1.0  0.68011  0.10283  0.96714  1.0000
  H   H1942     1.0  0.96557  0.19431  0.90688  1.0000
  C   C2431     1.0  0.69332  0.14133  0.22995  1.0000
  C   C2432     1.0  0.88582  0.10207  0.23837  1.0000
  H   H1943     1.0  0.62710  0.24700  0.37156  1.0000
  H   H1944     1.0  0.70035  0.10834  0.33603  1.0000
  C   C2433     1.0  0.76580  0.22211  0.91595  1.0000
  H   H1945     1.0  0.98290  0.12603  0.00868  1.0000
  H   H1946     1.0  0.75947  0.07603  0.26334  1.0000
  H   H1947     1.0  0.64587  0.22133  0.06116  1.0000
  C   C2434     1.0  0.50358  0.23514  0.05929  1.0000
  C   C2435     1.0  0.85231  0.05051  0.34514  1.0000
  C   C2436     1.0  0.55132  0.15877  0.32679  1.0000
  C   C2437     1.0  0.86401  0.24299  0.14520  1.0000
  C   C2438     1.0  0.57332  0.23177  0.97148  1.0000
  H   H1948     1.0  0.70485  0.10368  0.17348  1.0000
  C   C2439     1.0  0.96870  0.10342  0.23088  1.0000
  C   C2440     1.0  0.67800  0.06617  0.27657  1.0000
  C   C2441     1.0  0.78257  0.11945  0.15688  1.0000
  C   C2442     1.0  0.94764  0.23253  0.95431  1.0000
  C   C2443     1.0  0.87951  0.17772  0.12167  1.0000
  H   H1949     1.0  0.85457  0.19215  0.12393  1.0000
  C   C2444     1.0  0.72286  0.02486  0.23674  1.0000
  C   C2445     1.0  0.86648  0.06109  0.37244  1.0000
  H   H1950     1.0  0.52613  0.06256  0.21476  1.0000
  H   H1951     1.0  0.67875  0.09989  0.12375  1.0000
  H   H1952     1.0  0.84273  0.14979  0.26235  1.0000
  H   H1953     1.0  0.67324  0.07044  0.07534  1.0000
  C   C2446     1.0  0.69447  0.18017  0.19596  1.0000
  C   C2447     1.0  0.54539  0.04354  0.06598  1.0000
  H   H1954     1.0  0.87370  0.19465  0.98280  1.0000
  H   H1955     1.0  0.90997  0.23345  0.35837  1.0000
  C   C2448     1.0  0.49953  0.06625  0.36653  1.0000
  C   C2449     1.0  0.99213  0.14965  0.94124  1.0000
  S   S312      1.0  0.96572  0.06741  0.38270  1.0000
  S   S313      1.0  0.92262  0.24153  0.16483  1.0000
  C   C2450     1.0  0.68778  0.08867  0.12412  1.0000
  H   H1956     1.0  0.94804  0.22465  0.10032  1.0000
  H   H1957     1.0  0.97161  0.26661  0.96675  1.0000
  C   C2451     1.0  0.63505  0.22346  0.09028  1.0000
  H   H1958     1.0  0.62505  0.12757  0.89833  1.0000
  C   C2452     1.0  0.62736  0.16240  0.98224  1.0000
  C   C2453     1.0  0.54628  0.02206  0.05866  1.0000
  Fe  Fe154     1.0  0.70008  0.23921  0.93420  1.0000
  Fe  Fe155     1.0  0.79013  0.18343  0.24294  1.0000
  C   C2454     1.0  0.49562  0.25203  0.04510  1.0000
  C   C2455     1.0  0.97920  0.04327  0.23937  1.0000
  C   C2456     1.0  0.60561  0.14971  0.25725  1.0000
  C   C2457     1.0  0.70101  0.23537  0.21063  1.0000
  H   H1959     1.0  0.87051  0.16561  0.15627  1.0000
  H   H1960     1.0  0.66213  0.21604  0.33412  1.0000
  C   C2458     1.0  0.59208  0.13425  0.19548  1.0000
  S   S314      1.0  0.54244  0.21490  0.15479  1.0000
  S   S315      1.0  0.81625  0.21383  0.18009  1.0000
  C   C2459     1.0  0.61233  0.16674  0.01523  1.0000
  H   H1961     1.0  0.86764  0.21663  0.36038  1.0000
  H   H1962     1.0  0.60574  0.04287  0.03267  1.0000
  P   P84       1.0  0.92085  0.23412  0.97895  1.0000
  C   C2460     1.0  0.65458  0.19594  0.34450  1.0000
  C   C2461     1.0  0.72171  0.24458  0.37410  1.0000
  S   S316      1.0  0.70408  0.24514  0.00272  1.0000
  C   C2462     1.0  0.57376  0.07583  0.37147  1.0000
  C   C2463     1.0  0.75069  0.22231  0.17040  1.0000
  C   C2464     1.0  0.58911  0.23583  0.04937  1.0000
  C   C2465     1.0  0.59792  0.14841  0.05648  1.0000
  C   C2466     1.0  0.75441  0.23595  0.08996  1.0000
  H   H1963     1.0  0.74665  0.23796  0.06278  1.0000
  C   C2467     1.0  0.58919  0.25510  0.97512  1.0000
  C   C2468     1.0  0.56094  0.22246  0.34552  1.0000
  C   C2469     1.0  0.64044  0.24723  0.09561  1.0000
  H   H1964     1.0  0.58193  0.07012  0.34410  1.0000
  H   H1965     1.0  0.68897  0.19738  0.33020  1.0000
  H   H1966     1.0  0.88523  0.06689  0.36108  1.0000
  S   S317      1.0  0.52770  0.19699  0.26730  1.0000
  H   H1967     1.0  0.88454  0.02188  0.10689  1.0000
  C   C2470     1.0  0.51562  0.09977  0.29713  1.0000
  C   C2471     1.0  0.87969  0.17338  0.32011  1.0000
  H   H1968     1.0  0.64103  0.04088  0.29114  1.0000
  S   S318      1.0  0.67859  0.25964  0.93113  1.0000
  H   H1969     1.0  0.52973  0.11260  0.26632  1.0000
  C   C2472     1.0  0.63048  0.24639  0.33595  1.0000
  H   H1970     1.0  0.80879  0.25429  0.10592  1.0000
  C   C2473     1.0  0.87763  0.20719  0.34888  1.0000
  Fe  Fe156     1.0  0.75069  0.17137  0.32959  1.0000
  H   H1971     1.0  0.50405  0.25977  0.31928  1.0000
  H   H1972     1.0  0.69895  0.25855  0.25568  1.0000
  H   H1973     1.0  0.93676  0.25406  0.05259  1.0000
  C   C2474     1.0  0.62637  0.25021  0.13282  1.0000
  C   C2475     1.0  0.66077  0.15972  0.35766  1.0000
  C   C2476     1.0  0.57451  0.17436  0.32601  1.0000
  Fe  Fe157     1.0  0.49998  0.06698  0.02282  1.0000
  H   H1974     1.0  0.86964  0.24843  0.95800  1.0000
  C   C2477     1.0  0.97169  0.23809  0.37495  1.0000
  H   H1975     1.0  0.82965  0.11831  0.33646  1.0000
  S   S319      1.0  0.73090  0.18396  0.37936  1.0000
  C   C2478     1.0  0.87938  0.01838  0.90207  1.0000
  C   C2479     1.0  0.59172  0.20555  0.89866  1.0000
  C   C2480     1.0  0.88981  0.14459  0.92894  1.0000
  C   C2481     1.0  0.76493  0.09135  0.39072  1.0000
  C   C2482     1.0  0.52725  0.19303  0.89803  1.0000
  C   C2483     1.0  0.91240  0.14616  0.91610  1.0000
  C   C2484     1.0  0.98427  0.15448  0.90385  1.0000
  H   H1976     1.0  0.85784  0.13708  0.91030  1.0000
  C   C2485     1.0  0.99353  0.26259  0.29610  1.0000
  C   C2486     1.0  0.87536  0.13829  0.90040  1.0000
  C   C2487     1.0  0.56565  0.25853  0.89542  1.0000
  H   H1977     1.0  0.83542  0.25394  0.39405  1.0000
  C   C2488     1.0  0.99054  0.43224  0.42277  1.0000
  C   C2489     1.0  0.56502  0.27341  0.73839  1.0000
  C   C2490     1.0  0.55062  0.27886  0.77092  1.0000
  C   C2491     1.0  0.61842  0.42681  0.56644  1.0000
  C   C2492     1.0  0.50967  0.46710  0.63578  1.0000
  C   C2493     1.0  0.60307  0.33586  0.43421  1.0000
  H   H1978     1.0  0.51275  0.33387  0.76990  1.0000
  C   C2494     1.0  0.76670  0.28619  0.66475  1.0000
  C   C2495     1.0  0.58678  0.32452  0.67746  1.0000
  Fe  Fe158     1.0  0.58602  0.38046  0.45193  1.0000
  H   H1979     1.0  0.50826  0.34698  0.69384  1.0000
  C   C2496     1.0  0.68924  0.26961  0.76992  1.0000
  H   H1980     1.0  0.61723  0.38735  0.63242  1.0000
  C   C2497     1.0  0.80642  0.42806  0.57797  1.0000
  H   H1981     1.0  0.65127  0.33064  0.48676  1.0000
  H   H1982     1.0  0.77444  0.47480  0.65906  1.0000
  C   C2498     1.0  0.79664  0.51452  0.41399  1.0000
  C   C2499     1.0  0.92913  0.36495  0.88542  1.0000
  H   H1983     1.0  0.95801  0.37103  0.48349  1.0000
  H   H1984     1.0  0.66452  0.41556  0.49170  1.0000
  C   C2500     1.0  0.83275  0.35662  0.88920  1.0000
  C   C2501     1.0  0.77314  0.30655  0.48896  1.0000
  C   C2502     1.0  0.74326  0.39660  0.85019  1.0000
  C   C2503     1.0  0.94471  0.44735  0.67265  1.0000
  H   H1985     1.0  0.49456  0.44962  0.41728  1.0000
  H   H1986     1.0  0.90965  0.42064  0.59097  1.0000
  H   H1987     1.0  0.87278  0.43877  0.55021  1.0000
  H   H1988     1.0  0.93706  0.38408  0.67544  1.0000
  C   C2504     1.0  0.66199  0.39707  0.49102  1.0000
  S   S320      1.0  0.86657  0.42570  0.45455  1.0000
  H   H1989     1.0  0.72327  0.40160  0.66004  1.0000
  C   C2505     1.0  0.64008  0.37651  0.51598  1.0000
  C   C2506     1.0  0.61649  0.49083  0.69138  1.0000
  C   C2507     1.0  0.86025  0.51050  0.87286  1.0000
  C   C2508     1.0  0.54094  0.36996  0.76464  1.0000
  C   C2509     1.0  0.49545  0.38975  0.43767  1.0000
  C   C2510     1.0  0.79715  0.48134  0.87377  1.0000
  H   H1990     1.0  0.53266  0.43817  0.53754  1.0000
  H   H1991     1.0  0.87543  0.28855  0.46357  1.0000
  S   S321      1.0  0.62922  0.28785  0.41643  1.0000
  C   C2511     1.0  0.56442  0.32068  0.67404  1.0000
  H   H1992     1.0  0.76434  0.27889  0.63525  1.0000
  H   H1993     1.0  0.52498  0.42822  0.46600  1.0000
  S   S322      1.0  0.57806  0.43052  0.56760  1.0000
  C   C2512     1.0  0.89331  0.27331  0.75109  1.0000
  P   P85       1.0  0.95179  0.43491  0.62538  1.0000
  C   C2513     1.0  0.60598  0.34866  0.66100  1.0000
  H   H1994     1.0  0.92909  0.37058  0.76665  1.0000
  H   H1995     1.0  0.56127  0.27231  0.64149  1.0000
  C   C2514     1.0  0.58506  0.27351  0.58029  1.0000
  S   S323      1.0  0.90011  0.34670  0.45477  1.0000
  H   H1996     1.0  0.54691  0.48051  0.62758  1.0000
  C   C2515     1.0  0.95985  0.45852  0.57342  1.0000
  H   H1997     1.0  0.54344  0.30889  0.50831  1.0000
  H   H1998     1.0  0.69657  0.28825  0.74790  1.0000
  H   H1999     1.0  0.84373  0.29211  0.43686  1.0000
  H   H2000     1.0  0.96568  0.44424  0.78108  1.0000
  H   H2001     1.0  0.78203  0.45462  0.79542  1.0000
  C   C2516     1.0  0.61514  0.30342  0.72022  1.0000
  H   H2002     1.0  0.77894  0.51179  0.42969  1.0000
  C   C2517     1.0  0.94399  0.33824  0.85573  1.0000
  C   C2518     1.0  0.72390  0.29516  0.61964  1.0000
  Fe  Fe159     1.0  0.85725  0.39397  0.51422  1.0000
  H   H2003     1.0  0.96898  0.40612  0.57572  1.0000
  C   C2519     1.0  0.65445  0.34913  0.48891  1.0000
  C   C2520     1.0  0.58672  0.44778  0.72846  1.0000
  C   C2521     1.0  0.80987  0.46942  0.51923  1.0000
  C   C2522     1.0  0.53503  0.40599  0.88288  1.0000
  C   C2523     1.0  0.80009  0.49441  0.40611  1.0000
  C   C2524     1.0  0.99155  0.43783  0.65047  1.0000
  C   C2525     1.0  0.96633  0.38434  0.75760  1.0000
  C   C2526     1.0  0.59777  0.28980  0.64245  1.0000
  S   S324      1.0  0.52329  0.39429  0.40597  1.0000
  C   C2527     1.0  0.50249  0.49993  0.84170  1.0000
  C   C2528     1.0  0.56885  0.45484  0.72869  1.0000
  C   C2529     1.0  0.63926  0.47034  0.59398  1.0000
  H   H2004     1.0  0.87350  0.44943  0.78846  1.0000
  S   S325      1.0  0.73348  0.36122  0.44984  1.0000
  H   H2005     1.0  0.83156  0.46215  0.46620  1.0000
  H   H2006     1.0  0.50813  0.45216  0.61983  1.0000
  H   H2007     1.0  0.61889  0.33670  0.53220  1.0000
  C   C2530     1.0  0.60539  0.31410  0.43697  1.0000
  C   C2531     1.0  0.85106  0.40989  0.61336  1.0000
  C   C2532     1.0  0.63697  0.39197  0.73341  1.0000
  H   H2008     1.0  0.53827  0.50599  0.47182  1.0000
  C   C2533     1.0  0.53452  0.29135  0.53415  1.0000
  C   C2534     1.0  0.83179  0.33817  0.77680  1.0000
  H   H2009     1.0  0.69841  0.37784  0.75372  1.0000
  H   H2010     1.0  0.57046  0.47270  0.53452  1.0000
  S   S326      1.0  0.85765  0.38335  0.85212  1.0000
  C   C2535     1.0  0.80480  0.39401  0.42174  1.0000
  H   H2011     1.0  0.86729  0.26721  0.54434  1.0000
  H   H2012     1.0  0.98024  0.46044  0.43526  1.0000
  H   H2013     1.0  0.82865  0.42564  0.51899  1.0000
  C   C2536     1.0  0.79314  0.30958  0.70460  1.0000
  S   S327      1.0  0.91971  0.42953  0.85861  1.0000
  H   H2014     1.0  0.74199  0.39770  0.81552  1.0000
  H   H2015     1.0  0.78500  0.47607  0.41532  1.0000
  C   C2537     1.0  0.71102  0.42870  0.66209  1.0000
  H   H2016     1.0  0.62468  0.46130  0.71048  1.0000
  C   C2538     1.0  0.83596  0.42473  0.81705  1.0000
  C   C2539     1.0  0.67929  0.36318  0.82607  1.0000
  H   H2017     1.0  0.62594  0.37917  0.53571  1.0000
  Fe  Fe160     1.0  0.56995  0.40376  0.52361  1.0000
  H   H2018     1.0  0.50390  0.46483  0.48395  1.0000
  C   C2540     1.0  0.67520  0.27853  0.63533  1.0000
  C   C2541     1.0  0.67658  0.36957  0.46483  1.0000
  C   C2542     1.0  0.52396  0.35286  0.74888  1.0000
  C   C2543     1.0  0.57959  0.27789  0.62345  1.0000
  C   C2544     1.0  0.86957  0.33274  0.79616  1.0000
  C   C2545     1.0  0.94446  0.46836  0.56754  1.0000
  C   C2546     1.0  0.74336  0.45116  0.53775  1.0000
  C   C2547     1.0  0.53732  0.27108  0.52443  1.0000
  C   C2548     1.0  0.78971  0.30045  0.66645  1.0000
  C   C2549     1.0  0.64069  0.43446  0.57321  1.0000
  Fe  Fe161     1.0  0.70114  0.50522  0.57558  1.0000
  C   C2550     1.0  0.84680  0.31215  0.81106  1.0000
  S   S328      1.0  0.67631  0.29951  0.48005  1.0000
  H   H2019     1.0  0.92185  0.32187  0.40532  1.0000
  Fe  Fe162     1.0  0.66540  0.29334  0.41700  1.0000
  H   H2020     1.0  0.58668  0.33494  0.45335  1.0000
  C   C2551     1.0  0.94540  0.38615  0.76595  1.0000
  H   H2021     1.0  0.61679  0.27005  0.70989  1.0000
  P   P86       1.0  0.57838  0.41605  0.75664  1.0000
  C   C2552     1.0  0.75055  0.28995  0.73994  1.0000
  H   H2022     1.0  0.81786  0.40521  0.43655  1.0000
  C   C2553     1.0  0.81086  0.34830  0.88049  1.0000
  S   S329      1.0  0.84848  0.36554  0.47363  1.0000
  C   C2554     1.0  0.56867  0.30511  0.86230  1.0000
  C   C2555     1.0  0.81453  0.42057  0.84675  1.0000
  Fe  Fe163     1.0  0.97357  0.31383  0.79395  1.0000
  Fe  Fe164     1.0  0.68692  0.26973  0.47523  1.0000
  H   H2023     1.0  0.54831  0.27305  0.49105  1.0000
  H   H2024     1.0  0.76329  0.34661  0.73606  1.0000
  C   C2556     1.0  0.53602  0.38466  0.67876  1.0000
  S   S330      1.0  0.72029  0.31876  0.82678  1.0000
  H   H2025     1.0  0.89427  0.46999  0.58917  1.0000
  H   H2026     1.0  0.80555  0.41210  0.60012  1.0000
  H   H2027     1.0  0.74708  0.36331  0.85573  1.0000
  H   H2028     1.0  0.92790  0.46209  0.59415  1.0000
  H   H2029     1.0  0.83647  0.41111  0.79885  1.0000
  H   H2030     1.0  0.56484  0.42030  0.67173  1.0000
  C   C2557     1.0  0.79679  0.46191  0.56578  1.0000
  S   S331      1.0  0.97791  0.27951  0.80862  1.0000
  C   C2558     1.0  0.62435  0.32381  0.73846  1.0000
  H   H2031     1.0  0.66759  0.27614  0.82424  1.0000
  H   H2032     1.0  0.77610  0.31090  0.77152  1.0000
  S   S332      1.0  0.67794  0.46417  0.59874  1.0000
  C   C2559     1.0  0.95419  0.48176  0.70817  1.0000
  H   H2033     1.0  0.73583  0.28596  0.76928  1.0000
  H   H2034     1.0  0.92819  0.47543  0.77134  1.0000
  Fe  Fe165     1.0  0.71242  0.32600  0.43181  1.0000
  H   H2035     1.0  0.80810  0.30172  0.55389  1.0000
  C   C2560     1.0  0.56108  0.34084  0.65690  1.0000
  C   C2561     1.0  0.81404  0.43789  0.87114  1.0000
  C   C2562     1.0  0.61379  0.49156  0.85149  1.0000
  H   H2036     1.0  0.54283  0.36393  0.79777  1.0000
  C   C2563     1.0  0.92652  0.40549  0.63110  1.0000
  C   C2564     1.0  0.72872  0.45988  0.52324  1.0000
  S   S333      1.0  0.89454  0.40031  0.50240  1.0000
  C   C2565     1.0  0.74866  0.34389  0.67939  1.0000
  C   C2566     1.0  0.88940  0.48860  0.46153  1.0000
  C   C2567     1.0  0.62669  0.29312  0.57442  1.0000
  C   C2568     1.0  0.63477  0.49783  0.45494  1.0000
  P   P87       1.0  0.77459  0.42815  0.65362  1.0000
  C   C2569     1.0  0.85579  0.28390  0.88592  1.0000
  H   H2037     1.0  0.93405  0.38774  0.52615  1.0000
  H   H2038     1.0  0.54141  0.30551  0.42451  1.0000
  C   C2570     1.0  0.61853  0.38136  0.77483  1.0000
  H   H2039     1.0  0.61901  0.42874  0.67628  1.0000
  H   H2040     1.0  0.49551  0.30542  0.51553  1.0000
  Fe  Fe166     1.0  0.54088  0.34879  0.53234  1.0000
  C   C2571     1.0  0.92322  0.43345  0.70847  1.0000
  H   H2041     1.0  0.97891  0.34586  0.85889  1.0000
  H   H2042     1.0  0.93805  0.49330  0.52193  1.0000
  H   H2043     1.0  0.90085  0.43264  0.77156  1.0000
  C   C2572     1.0  0.84604  0.40361  0.66130  1.0000
  C   C2573     1.0  0.51042  0.29167  0.40126  1.0000
  C   C2574     1.0  0.58284  0.41963  0.84375  1.0000
  Fe  Fe167     1.0  0.88675  0.37465  0.45700  1.0000
  C   C2575     1.0  0.76322  0.39489  0.66595  1.0000
  H   H2044     1.0  0.64723  0.48707  0.60488  1.0000
  H   H2045     1.0  0.74275  0.30159  0.61253  1.0000
  C   C2576     1.0  0.85447  0.35858  0.76244  1.0000
  C   C2577     1.0  0.96631  0.42765  0.77516  1.0000
  H   H2046     1.0  0.50080  0.29742  0.42594  1.0000
  H   H2047     1.0  0.79741  0.43416  0.89484  1.0000
  C   C2578     1.0  0.87604  0.44506  0.65711  1.0000
  H   H2048     1.0  0.76563  0.29942  0.46277  1.0000
  C   C2579     1.0  0.97223  0.49570  0.49364  1.0000
  H   H2049     1.0  0.85514  0.41593  0.71985  1.0000
  C   C2580     1.0  0.74702  0.43297  0.52015  1.0000
  P   P88       1.0  0.64413  0.50895  0.81418  1.0000
  H   H2050     1.0  0.61066  0.41023  0.55524  1.0000
  H   H2051     1.0  0.65010  0.34347  0.77083  1.0000
  H   H2052     1.0  0.53458  0.39027  0.64496  1.0000
  C   C2581     1.0  0.88854  0.38131  0.61932  1.0000
  C   C2582     1.0  0.54583  0.44942  0.50455  1.0000
  H   H2053     1.0  0.54967  0.30207  0.68321  1.0000
  H   H2054     1.0  0.55027  0.44119  0.74351  1.0000
  C   C2583     1.0  0.96811  0.37091  0.88609  1.0000
  C   C2584     1.0  0.65202  0.48572  0.79772  1.0000
  C   C2585     1.0  0.70765  0.27643  0.65961  1.0000
  S   S334      1.0  0.73483  0.27266  0.89450  1.0000
  H   H2055     1.0  0.89105  0.28731  0.81068  1.0000
  C   C2586     1.0  0.72214  0.43308  0.47152  1.0000
  H   H2056     1.0  0.81101  0.32069  0.70556  1.0000
  C   C2587     1.0  0.82795  0.31489  0.80053  1.0000
  H   H2057     1.0  0.78029  0.35324  0.54096  1.0000
  C   C2588     1.0  0.64300  0.32763  0.75701  1.0000
  Fe  Fe168     1.0  0.90337  0.43008  0.44024  1.0000
  C   C2589     1.0  0.71577  0.30562  0.58810  1.0000
  H   H2058     1.0  0.83256  0.38515  0.68163  1.0000
  C   C2590     1.0  0.78075  0.38730  0.44083  1.0000
  H   H2059     1.0  0.60721  0.47289  0.59475  1.0000
  C   C2591     1.0  0.60623  0.44048  0.57459  1.0000
  S   S335      1.0  0.54884  0.35399  0.45579  1.0000
  C   C2592     1.0  0.67548  0.34703  0.86753  1.0000
  H   H2060     1.0  0.87467  0.38038  0.60444  1.0000
  C   C2593     1.0  0.64252  0.28998  0.74199  1.0000
  C   C2594     1.0  0.58033  0.47769  0.41953  1.0000
  C   C2595     1.0  0.99126  0.46996  0.88754  1.0000
  C   C2596     1.0  0.61916  0.41617  0.70456  1.0000
  C   C2597     1.0  0.98710  0.40380  0.75931  1.0000
  H   H2061     1.0  0.74970  0.39195  0.60750  1.0000
  C   C2598     1.0  0.62192  0.35868  0.40655  1.0000
  C   C2599     1.0  0.83954  0.28229  0.47225  1.0000
  H   H2062     1.0  0.70342  0.45943  0.66413  1.0000
  C   C2600     1.0  0.88149  0.27877  0.78786  1.0000
  C   C2601     1.0  0.52136  0.36026  0.70613  1.0000
  C   C2602     1.0  0.62142  0.29778  0.61717  1.0000
  S   S336      1.0  0.98294  0.31903  0.71763  1.0000
  C   C2603     1.0  0.83508  0.45950  0.86595  1.0000
  H   H2063     1.0  0.84526  0.46014  0.70773  1.0000
  H   H2064     1.0  0.99319  0.39867  0.41722  1.0000
  H   H2065     1.0  0.80937  0.35823  0.85029  1.0000
  C   C2604     1.0  0.68025  0.39380  0.46436  1.0000
  H   H2066     1.0  0.65112  0.41694  0.66554  1.0000
  H   H2067     1.0  0.53149  0.40426  0.81598  1.0000
  C   C2605     1.0  0.57415  0.41746  0.89057  1.0000
  H   H2068     1.0  0.89069  0.37190  0.76221  1.0000
  C   C2606     1.0  0.94724  0.51021  0.82132  1.0000
  C   C2607     1.0  0.90855  0.40419  0.61170  1.0000
  Fe  Fe169     1.0  0.86076  0.39787  0.41292  1.0000
  H   H2069     1.0  0.76819  0.48240  0.85193  1.0000
  P   P89       1.0  0.84288  0.28226  0.83954  1.0000
  C   C2608     1.0  0.59860  0.49765  0.69181  1.0000
  S   S337      1.0  0.72412  0.29668  0.43116  1.0000
  C   C2609     1.0  0.95657  0.42548  0.48448  1.0000
  C   C2610     1.0  0.72826  0.42071  0.65994  1.0000
  C   C2611     1.0  0.82112  0.45618  0.50206  1.0000
  H   H2070     1.0  0.91163  0.27730  0.74618  1.0000
  H   H2071     1.0  0.60577  0.31761  0.83167  1.0000
  H   H2072     1.0  0.71953  0.35294  0.75510  1.0000
  S   S338      1.0  0.51736  0.31431  0.59010  1.0000
  C   C2612     1.0  0.96000  0.47176  0.67237  1.0000
  P   P90       1.0  0.59130  0.29809  0.69544  1.0000
  C   C2613     1.0  0.79691  0.30774  0.54006  1.0000
  C   C2614     1.0  0.96509  0.35122  0.86588  1.0000
  C   C2615     1.0  0.85689  0.44623  0.81149  1.0000
  H   H2073     1.0  0.94554  0.43270  0.50161  1.0000
  S   S339      1.0  0.53174  0.37986  0.53193  1.0000
  C   C2616     1.0  0.63617  0.35256  0.51433  1.0000
  C   C2617     1.0  0.57147  0.47132  0.86075  1.0000
  C   C2618     1.0  0.65106  0.45616  0.58702  1.0000
  S   S340      1.0  0.57869  0.37221  0.52851  1.0000
  S   S341      1.0  0.66327  0.37981  0.82236  1.0000
  C   C2619     1.0  0.75680  0.46178  0.65971  1.0000
  Fe  Fe170     1.0  0.54222  0.38680  0.45495  1.0000
  H   H2074     1.0  0.81151  0.48569  0.49659  1.0000
  H   H2075     1.0  0.64512  0.46669  0.86817  1.0000
  C   C2620     1.0  0.59500  0.48242  0.83254  1.0000
  H   H2076     1.0  0.66931  0.43535  0.76616  1.0000
  H   H2077     1.0  0.61269  0.27765  0.52222  1.0000
  C   C2621     1.0  0.98216  0.46858  0.54007  1.0000
  S   S342      1.0  0.61921  0.38600  0.40170  1.0000
  H   H2078     1.0  0.49476  0.36823  0.49992  1.0000
  C   C2622     1.0  0.78627  0.29696  0.50815  1.0000
  C   C2623     1.0  0.71669  0.45318  0.66297  1.0000
  H   H2079     1.0  0.73593  0.34698  0.62092  1.0000
  H   H2080     1.0  0.63989  0.44457  0.46898  1.0000
  C   C2624     1.0  0.61661  0.46224  0.58851  1.0000
  H   H2081     1.0  0.80334  0.33663  0.57563  1.0000
  C   C2625     1.0  0.88079  0.45149  0.60927  1.0000
  H   H2082     1.0  0.96633  0.36745  0.75135  1.0000
  S   S343      1.0  0.86865  0.50173  0.61760  1.0000
  C   C2626     1.0  0.56735  0.41378  0.81679  1.0000
  H   H2083     1.0  0.68204  0.47516  0.45393  1.0000
  C   C2627     1.0  0.57997  0.36496  0.64304  1.0000
  H   H2084     1.0  0.75146  0.45828  0.56325  1.0000
  Fe  Fe171     1.0  0.63616  0.37203  0.88854  1.0000
  C   C2628     1.0  0.99127  0.45867  0.85141  1.0000
  H   H2085     1.0  0.77651  0.39142  0.72420  1.0000
  H   H2086     1.0  0.66636  0.31368  0.77383  1.0000
  C   C2629     1.0  0.60858  0.28116  0.55565  1.0000
  C   C2630     1.0  0.89850  0.33814  0.40335  1.0000
  C   C2631     1.0  0.98740  0.42574  0.76863  1.0000
  C   C2632     1.0  0.58736  0.27862  0.86719  1.0000
  H   H2087     1.0  0.69053  0.36629  0.44621  1.0000
  H   H2088     1.0  0.50739  0.48534  0.84941  1.0000
  H   H2089     1.0  0.62378  0.35196  0.65964  1.0000
  H   H2090     1.0  0.60964  0.45869  0.47228  1.0000
  C   C2633     1.0  0.51474  0.47631  0.44937  1.0000
  H   H2091     1.0  0.72540  0.47345  0.53801  1.0000
  C   C2634     1.0  0.58468  0.48371  0.46002  1.0000
  H   H2092     1.0  0.97669  0.50945  0.46209  1.0000
  C   C2635     1.0  0.65903  0.48545  0.75153  1.0000
  C   C2636     1.0  0.61059  0.46603  0.71010  1.0000
  H   H2093     1.0  0.55477  0.29796  0.76997  1.0000
  C   C2637     1.0  0.81513  0.45867  0.75459  1.0000
  C   C2638     1.0  0.98374  0.40671  0.43646  1.0000
  C   C2639     1.0  0.60145  0.40683  0.74715  1.0000
  C   C2640     1.0  0.94537  0.40768  0.77489  1.0000
  C   C2641     1.0  0.86755  0.50749  0.49908  1.0000
  C   C2642     1.0  0.53152  0.48308  0.64021  1.0000
  H   H2094     1.0  0.76103  0.33401  0.48526  1.0000
  C   C2643     1.0  0.81961  0.43571  0.53164  1.0000
  C   C2644     1.0  0.75219  0.38212  0.63644  1.0000
  C   C2645     1.0  0.66518  0.46733  0.74019  1.0000
  C   C2646     1.0  0.71801  0.45080  0.49049  1.0000
  C   C2647     1.0  0.85774  0.27359  0.79439  1.0000
  C   C2648     1.0  0.52060  0.28893  0.57756  1.0000
  C   C2649     1.0  0.74467  0.35667  0.64354  1.0000
  C   C2650     1.0  0.85657  0.46342  0.83622  1.0000
  H   H2095     1.0  0.82407  0.44375  0.65302  1.0000
  H   H2096     1.0  0.80495  0.30436  0.63831  1.0000
  C   C2651     1.0  0.87568  0.51241  0.41687  1.0000
  C   C2652     1.0  0.76034  0.35658  0.70803  1.0000
  H   H2097     1.0  0.80388  0.47666  0.84340  1.0000
  C   C2653     1.0  0.60244  0.36881  0.64471  1.0000
  C   C2654     1.0  0.98033  0.41339  0.59670  1.0000
  H   H2098     1.0  0.65632  0.27158  0.64068  1.0000
  C   C2655     1.0  0.62406  0.28626  0.72288  1.0000
  P   P91       1.0  0.70781  0.42086  0.43006  1.0000
  H   H2099     1.0  0.77528  0.39314  0.47064  1.0000
  H   H2100     1.0  0.56084  0.48485  0.71103  1.0000
  H   H2101     1.0  0.72818  0.32003  0.55713  1.0000
  H   H2102     1.0  0.63495  0.50480  0.67657  1.0000
  C   C2656     1.0  0.85884  0.42098  0.68295  1.0000
  H   H2103     1.0  0.72855  0.50681  0.73600  1.0000
  C   C2657     1.0  0.57479  0.47966  0.71043  1.0000
  C   C2658     1.0  0.81644  0.31125  0.40230  1.0000
  H   H2104     1.0  0.73856  0.40901  0.47534  1.0000
  H   H2105     1.0  0.70621  0.45735  0.48078  1.0000
  H   H2106     1.0  0.88092  0.48601  0.53386  1.0000
  Fe  Fe172     1.0  0.89000  0.50285  0.66593  1.0000
  C   C2659     1.0  0.97641  0.42841  0.62418  1.0000
  H   H2107     1.0  0.50274  0.38448  0.78141  1.0000
  H   H2108     1.0  0.65105  0.38676  0.72878  1.0000
  H   H2109     1.0  0.96577  0.50070  0.70778  1.0000
  C   C2660     1.0  0.53335  0.29611  0.40077  1.0000
  H   H2110     1.0  0.92887  0.40856  0.78273  1.0000
  H   H2111     1.0  0.90206  0.34390  0.68724  1.0000
  C   C2661     1.0  0.77357  0.30419  0.74147  1.0000
  H   H2112     1.0  0.75812  0.42592  0.53192  1.0000
  C   C2662     1.0  0.73615  0.42366  0.48766  1.0000
  C   C2663     1.0  0.85764  0.28029  0.48722  1.0000
  C   C2664     1.0  0.69149  0.29741  0.59605  1.0000
  H   H2113     1.0  0.91048  0.41509  0.70876  1.0000
  H   H2114     1.0  0.69325  0.41596  0.66284  1.0000
  H   H2115     1.0  0.68533  0.30535  0.57120  1.0000
  C   C2665     1.0  0.79060  0.44011  0.69293  1.0000
  H   H2116     1.0  0.76000  0.43722  0.74268  1.0000
  C   C2666     1.0  0.79102  0.45192  0.76468  1.0000
  H   H2117     1.0  0.57735  0.38057  0.62962  1.0000
  H   H2118     1.0  0.63594  0.30798  0.62985  1.0000
  S   S344      1.0  0.83561  0.38739  0.58667  1.0000
  C   C2667     1.0  0.81458  0.44597  0.68394  1.0000
  C   C2668     1.0  0.78149  0.33721  0.53266  1.0000
  H   H2119     1.0  0.64937  0.27675  0.74372  1.0000
  H   H2120     1.0  0.64489  0.29896  0.55582  1.0000
  C   C2669     1.0  0.55536  0.39465  0.73772  1.0000
  H   H2121     1.0  0.96331  0.48916  0.84726  1.0000
  C   C2670     1.0  0.73954  0.46966  0.66214  1.0000
  C   C2671     1.0  0.96364  0.39083  0.47403  1.0000
  H   H2122     1.0  0.87070  0.34198  0.65197  1.0000
  C   C2672     1.0  0.66898  0.48152  0.45317  1.0000
  C   C2673     1.0  0.58882  0.30183  0.85110  1.0000
  H   H2123     1.0  0.83272  0.51297  0.59060  1.0000
  S   S345      1.0  0.89133  0.46686  0.68520  1.0000
  H   H2124     1.0  0.78859  0.47267  0.57830  1.0000
  H   H2125     1.0  0.55697  0.46459  0.84603  1.0000
  S   S346      1.0  0.93519  0.46638  0.42745  1.0000
  H   H2126     1.0  0.65953  0.49881  0.72397  1.0000
  H   H2127     1.0  0.74267  0.32418  0.68504  1.0000
  H   H2128     1.0  0.86052  0.51184  0.52959  1.0000
  C   C2674     1.0  0.53414  0.49948  0.44241  1.0000
  C   C2675     1.0  0.55315  0.40173  0.69421  1.0000
  H   H2129     1.0  0.65720  0.43573  0.84763  1.0000
  C   C2676     1.0  0.65080  0.46716  0.83225  1.0000
  H   H2130     1.0  0.54396  0.33763  0.65317  1.0000
  C   C2677     1.0  0.65887  0.51509  0.44370  1.0000
  C   C2678     1.0  0.77869  0.44234  0.73431  1.0000
  H   H2131     1.0  0.81714  0.34061  0.77029  1.0000
  C   C2679     1.0  0.74691  0.28106  0.70122  1.0000
  C   C2680     1.0  0.75147  0.43738  0.65794  1.0000
  C   C2681     1.0  0.68806  0.33325  0.86846  1.0000
  C   C2682     1.0  0.92383  0.38356  0.65893  1.0000
  C   C2683     1.0  0.76752  0.38201  0.70155  1.0000
  C   C2684     1.0  0.88626  0.35961  0.64623  1.0000
  C   C2685     1.0  0.54163  0.44362  0.46422  1.0000
  C   C2686     1.0  0.62673  0.31524  0.41298  1.0000
  C   C2687     1.0  0.67588  0.50694  0.44326  1.0000
  C   C2688     1.0  0.79436  0.44068  0.59525  1.0000
  C   C2689     1.0  0.80053  0.28596  0.42349  1.0000
  C   C2690     1.0  0.70766  0.35153  0.78667  1.0000
  C   C2691     1.0  0.87920  0.49308  0.50142  1.0000
  C   C2692     1.0  0.77075  0.32650  0.50121  1.0000
  C   C2693     1.0  0.64520  0.46428  0.46203  1.0000
  S   S347      1.0  0.81493  0.51218  0.68439  1.0000
  C   C2694     1.0  0.98837  0.48732  0.50070  1.0000
  C   C2695     1.0  0.62808  0.47237  0.46347  1.0000
  C   C2696     1.0  0.78849  0.27100  0.39746  1.0000
  C   C2697     1.0  0.77704  0.48484  0.87826  1.0000
  C   C2698     1.0  0.70133  0.44294  0.39816  1.0000
  C   C2699     1.0  0.76373  0.37209  0.42260  1.0000
  S   S348      1.0  0.57992  0.41376  0.44649  1.0000
  H   H2132     1.0  0.61821  0.36780  0.80208  1.0000
  C   C2700     1.0  0.95006  0.40021  0.49804  1.0000
  Fe  Fe173     1.0  0.98965  0.28636  0.73192  1.0000
  C   C2701     1.0  0.60074  0.38859  0.78161  1.0000
  C   C2702     1.0  0.91759  0.44342  0.74431  1.0000
  C   C2703     1.0  0.97660  0.44137  0.44696  1.0000
  C   C2704     1.0  0.96596  0.50476  0.82134  1.0000
  C   C2705     1.0  0.87332  0.35587  0.77220  1.0000
  S   S349      1.0  0.91987  0.49288  0.86426  1.0000
  C   C2706     1.0  0.65745  0.44943  0.82077  1.0000
  C   C2707     1.0  0.79437  0.32769  0.55241  1.0000
  C   C2708     1.0  0.54354  0.40765  0.83641  1.0000
  C   C2709     1.0  0.86866  0.43381  0.58728  1.0000
  C   C2710     1.0  0.70415  0.33550  0.82781  1.0000
  H   H2133     1.0  0.97486  0.44952  0.84381  1.0000
  H   H2134     1.0  0.61689  0.33649  0.73930  1.0000
  H   H2135     1.0  0.64990  0.42358  0.56773  1.0000
  H   H2136     1.0  0.82559  0.32330  0.42181  1.0000
  H   H2137     1.0  0.59083  0.29645  0.45836  1.0000
  H   H2138     1.0  0.89899  0.47803  0.46338  1.0000
  H   H2139     1.0  0.98883  0.44926  0.67195  1.0000
  H   H2140     1.0  0.82504  0.46681  0.77714  1.0000
  C   C2711     1.0  0.90394  0.36072  0.66597  1.0000
  C   C2712     1.0  0.55885  0.45763  0.42175  1.0000
  C   C2713     1.0  0.93303  0.46754  0.74417  1.0000
  H   H2141     1.0  0.74406  0.48864  0.66303  1.0000
  C   C2714     1.0  0.95038  0.48644  0.52728  1.0000
  C   C2715     1.0  0.72924  0.50291  0.84696  1.0000
  C   C2716     1.0  0.82670  0.45518  0.71488  1.0000
  C   C2717     1.0  0.56729  0.46925  0.50254  1.0000
  C   C2718     1.0  0.63715  0.40917  0.69811  1.0000
  H   H2142     1.0  0.97619  0.48319  0.64414  1.0000
  H   H2143     1.0  0.67038  0.46717  0.70445  1.0000
  C   C2719     1.0  0.66449  0.44939  0.77480  1.0000
  C   C2720     1.0  0.53355  0.50267  0.65994  1.0000
  H   H2144     1.0  0.85734  0.37670  0.74494  1.0000
  C   C2721     1.0  0.65208  0.31075  0.75888  1.0000
  C   C2722     1.0  0.69553  0.36553  0.78584  1.0000
  C   C2723     1.0  0.72250  0.49561  0.80916  1.0000
  H   H2145     1.0  0.56996  0.32323  0.85022  1.0000
  C   C2724     1.0  0.88765  0.49822  0.41928  1.0000
  H   H2146     1.0  0.58650  0.37997  0.81394  1.0000
  H   H2147     1.0  0.81034  0.29921  0.81054  1.0000
  C   C2725     1.0  0.51379  0.50632  0.67509  1.0000
  H   H2148     1.0  0.59855  0.48438  0.79588  1.0000
  H   H2149     1.0  0.70809  0.47726  0.81399  1.0000
  H   H2150     1.0  0.88440  0.33092  0.80339  1.0000
  S   S350      1.0  0.93972  0.31354  0.83046  1.0000
  H   H2151     1.0  0.60156  0.42567  0.82878  1.0000
  H   H2152     1.0  0.87322  0.47948  0.83251  1.0000
  H   H2153     1.0  0.60337  0.27669  0.85912  1.0000
  H   H2154     1.0  0.79841  0.40376  0.85114  1.0000
  C   C2726     1.0  0.54710  0.28536  0.89085  1.0000
  C   C2727     1.0  0.50952  0.46765  0.41170  1.0000
  C   C2728     1.0  0.81656  0.27191  0.50305  1.0000
  H   H2155     1.0  0.71983  0.49031  0.88119  1.0000
  C   C2729     1.0  0.92594  0.34499  0.86593  1.0000
  H   H2156     1.0  0.90972  0.33516  0.85770  1.0000
  S   S351      1.0  0.61302  0.39033  0.88784  1.0000
  C   C2730     1.0  0.73405  0.51219  0.76526  1.0000
  P   P92       1.0  0.61285  0.50857  0.45823  1.0000
  H   H2157     1.0  0.68466  0.50772  0.84227  1.0000
  H   H2158     1.0  0.73911  0.42910  0.85513  1.0000
  Fe  Fe174     1.0  0.71367  0.29336  0.89428  1.0000
  P   P93       1.0  0.79281  0.27440  0.48512  1.0000
  H   H2159     1.0  0.55054  0.51535  0.66259  1.0000
  C   C2731     1.0  0.68318  0.26783  0.66664  1.0000
  C   C2732     1.0  0.85304  0.26822  0.53289  1.0000
  H   H2160     1.0  0.49408  0.37373  0.62534  1.0000
  H   H2161     1.0  0.66743  0.41501  0.39684  1.0000
  H   H2162     1.0  0.98437  0.38087  0.89396  1.0000
  C   C2733     1.0  0.74602  0.37713  0.87291  1.0000
  C   C2734     1.0  0.54786  0.51439  0.39770  1.0000
  H   H2163     1.0  0.91536  0.37041  0.89187  1.0000
  Fe  Fe175     1.0  0.88141  0.40215  0.89239  1.0000
  H   H2164     1.0  0.85759  0.31911  0.89265  1.0000
  C   C2735     1.0  0.74162  0.41423  0.87259  1.0000
  H   H2165     1.0  0.75960  0.43918  0.39547  1.0000
  H   H2166     1.0  0.56251  0.27509  0.03388  1.0000
  P   P94       1.0  0.63434  0.44447  0.16457  1.0000
  H   H2167     1.0  0.97132  0.48923  0.25701  1.0000
  C   C2736     1.0  0.49774  0.35731  0.97293  1.0000
  P   P95       1.0  0.83496  0.48028  0.90159  1.0000
  H   H2168     1.0  0.74888  0.29353  0.20505  1.0000
  C   C2737     1.0  0.87974  0.42147  0.12454  1.0000
  H   H2169     1.0  0.93871  0.47821  0.20899  1.0000
  C   C2738     1.0  0.53642  0.28529  0.01937  1.0000
  C   C2739     1.0  0.49477  0.49616  0.02238  1.0000
  C   C2740     1.0  0.52397  0.43771  0.23467  1.0000
  S   S352      1.0  0.49692  0.48420  0.97447  1.0000
  C   C2741     1.0  0.92043  0.40931  0.26457  1.0000
  C   C2742     1.0  0.83458  0.34383  0.92833  1.0000
  C   C2743     1.0  0.74663  0.37494  0.91831  1.0000
  H   H2170     1.0  0.56360  0.29171  0.36964  1.0000
  C   C2744     1.0  0.69032  0.47703  0.35063  1.0000
  H   H2171     1.0  0.54922  0.30466  0.00320  1.0000
  H   H2172     1.0  0.60712  0.36128  0.08911  1.0000
  H   H2173     1.0  0.83120  0.34133  0.34108  1.0000
  S   S353      1.0  0.62648  0.43729  0.96205  1.0000
  H   H2174     1.0  0.89593  0.49492  0.38857  1.0000
  H   H2175     1.0  0.55542  0.45258  0.39086  1.0000
  C   C2745     1.0  0.55146  0.33978  0.27799  1.0000
  C   C2746     1.0  0.73769  0.44642  0.04083  1.0000
  C   C2747     1.0  0.59067  0.28820  0.12892  1.0000
  Fe  Fe176     1.0  0.93772  0.27311  0.19608  1.0000
  H   H2176     1.0  0.58602  0.42140  0.91159  1.0000
  H   H2177     1.0  0.49893  0.44575  0.27811  1.0000
  H   H2178     1.0  0.96790  0.36397  0.09951  1.0000
  C   C2748     1.0  0.86047  0.30377  0.90618  1.0000
  H   H2179     1.0  0.56141  0.43000  0.27983  1.0000
  H   H2180     1.0  0.57000  0.48508  0.32177  1.0000
  H   H2181     1.0  0.91037  0.34569  0.01033  1.0000
  H   H2182     1.0  0.74797  0.35921  0.93578  1.0000
  H   H2183     1.0  0.88311  0.50536  0.91066  1.0000
  H   H2184     1.0  0.69481  0.47805  0.23890  1.0000
  C   C2749     1.0  0.59978  0.37422  0.14896  1.0000
  H   H2185     1.0  0.54331  0.40831  0.94667  1.0000
  C   C2750     1.0  0.96751  0.39596  0.26213  1.0000
  H   H2186     1.0  0.84913  0.48395  0.05284  1.0000
  C   C2751     1.0  0.83029  0.43196  0.01501  1.0000
  H   H2187     1.0  0.58749  0.44020  0.20071  1.0000
  C   C2752     1.0  0.86870  0.30383  0.94458  1.0000
  C   C2753     1.0  0.64539  0.26887  0.25539  1.0000
  H   H2188     1.0  0.87237  0.31931  0.95991  1.0000
  C   C2754     1.0  0.69655  0.27225  0.18946  1.0000
  C   C2755     1.0  0.80982  0.51466  0.19449  1.0000
  C   C2756     1.0  0.56654  0.46850  0.90821  1.0000
  C   C2757     1.0  0.91699  0.36216  0.15888  1.0000
  C   C2758     1.0  0.95639  0.39387  0.30803  1.0000
  C   C2759     1.0  0.75962  0.36269  0.05719  1.0000
  H   H2189     1.0  0.76198  0.47493  0.06467  1.0000
  H   H2190     1.0  0.60896  0.27514  0.01697  1.0000
  S   S354      1.0  0.86205  0.40044  0.05980  1.0000
  C   C2760     1.0  0.50173  0.43175  0.26385  1.0000
  C   C2761     1.0  0.83651  0.44693  0.04471  1.0000
  C   C2762     1.0  0.89155  0.44173  0.14139  1.0000
  C   C2763     1.0  0.82994  0.44203  0.97160  1.0000
  H   H2191     1.0  0.59568  0.27195  0.94835  1.0000
  H   H2192     1.0  0.78184  0.27000  0.33213  1.0000
  H   H2193     1.0  0.81634  0.31291  0.98888  1.0000
  H   H2194     1.0  0.53746  0.38709  0.27070  1.0000
  H   H2195     1.0  0.69443  0.42034  0.19335  1.0000
  H   H2196     1.0  0.50926  0.34749  0.91138  1.0000
  C   C2764     1.0  0.88553  0.44981  0.05435  1.0000
  C   C2765     1.0  0.97606  0.44910  0.33798  1.0000
  H   H2197     1.0  0.58108  0.39436  0.06412  1.0000
  C   C2766     1.0  0.54397  0.26856  0.03606  1.0000
  H   H2198     1.0  0.64157  0.51597  0.23337  1.0000
  C   C2767     1.0  0.54104  0.41614  0.06788  1.0000
  C   C2768     1.0  0.88382  0.33714  0.33723  1.0000
  H   H2199     1.0  0.53174  0.28830  0.90114  1.0000
  C   C2769     1.0  0.51237  0.49703  0.20815  1.0000
  C   C2770     1.0  0.93501  0.26817  0.03050  1.0000
  C   C2771     1.0  0.67439  0.45161  0.36381  1.0000
  H   H2200     1.0  0.95194  0.38014  0.37960  1.0000
  C   C2772     1.0  0.92993  0.30487  0.97591  1.0000
  Fe  Fe177     1.0  0.88272  0.41236  0.98561  1.0000
  C   C2773     1.0  0.58564  0.42479  0.31246  1.0000
  H   H2201     1.0  0.87818  0.28373  0.99308  1.0000
  H   H2202     1.0  0.78593  0.30529  0.22541  1.0000
  S   S355      1.0  0.88780  0.38424  0.95322  1.0000
  C   C2774     1.0  0.75206  0.49624  0.23743  1.0000
  C   C2775     1.0  0.56584  0.39694  0.07803  1.0000
  H   H2203     1.0  0.91480  0.38992  0.28021  1.0000
  C   C2776     1.0  0.72991  0.39236  0.32862  1.0000
  H   H2204     1.0  0.95658  0.46784  0.11910  1.0000
  S   S356      1.0  0.95901  0.27253  0.34269  1.0000
  H   H2205     1.0  0.51653  0.40095  0.89774  1.0000
  H   H2206     1.0  0.57165  0.42186  0.01464  1.0000
  C   C2777     1.0  0.76871  0.49207  0.91617  1.0000
  H   H2207     1.0  0.61324  0.42113  0.33549  1.0000
  C   C2778     1.0  0.67121  0.44754  0.96582  1.0000
  H   H2208     1.0  0.92046  0.31087  0.33157  1.0000
  H   H2209     1.0  0.98111  0.36418  0.36333  1.0000
  C   C2779     1.0  0.93711  0.30888  0.01487  1.0000
  H   H2210     1.0  0.67490  0.34815  0.14380  1.0000
  H   H2211     1.0  0.87078  0.30551  0.19541  1.0000
  H   H2212     1.0  0.76389  0.48826  0.23828  1.0000
  C   C2780     1.0  0.60587  0.49814  0.28019  1.0000
  C   C2781     1.0  0.69636  0.48295  0.98895  1.0000
  C   C2782     1.0  0.71769  0.46842  0.38331  1.0000
  S   S357      1.0  0.97412  0.28850  0.20429  1.0000
  C   C2783     1.0  0.93734  0.43146  0.11151  1.0000
  H   H2213     1.0  0.82627  0.41264  0.02540  1.0000
  C   C2784     1.0  0.63365  0.47114  0.13279  1.0000
  H   H2214     1.0  0.74818  0.28975  0.12601  1.0000
  C   C2785     1.0  0.66840  0.43147  0.18193  1.0000
  H   H2215     1.0  0.64760  0.31980  0.10821  1.0000
  C   C2786     1.0  0.50111  0.36045  0.01537  1.0000
  H   H2216     1.0  0.96469  0.43227  0.36555  1.0000
  C   C2787     1.0  0.80637  0.30647  0.11322  1.0000
  C   C2788     1.0  0.78398  0.38170  0.97760  1.0000
  H   H2217     1.0  0.54441  0.26818  0.31786  1.0000
  C   C2789     1.0  0.53165  0.38788  0.14179  1.0000
  H   H2218     1.0  0.54464  0.42462  0.19301  1.0000
  H   H2219     1.0  0.49394  0.28607  0.27320  1.0000
  C   C2790     1.0  0.93373  0.45898  0.22470  1.0000
  C   C2791     1.0  0.79493  0.37171  0.36439  1.0000
  C   C2792     1.0  0.97763  0.37342  0.33521  1.0000
  C   C2793     1.0  0.65383  0.45535  0.97031  1.0000
  H   H2220     1.0  0.61478  0.45227  0.08819  1.0000
  H   H2221     1.0  0.94077  0.32623  0.02389  1.0000
  H   H2222     1.0  0.61286  0.48879  0.04865  1.0000
  H   H2223     1.0  0.65763  0.37737  0.36050  1.0000
  C   C2794     1.0  0.62283  0.43168  0.26129  1.0000
  C   C2795     1.0  0.86558  0.46774  0.30218  1.0000
  H   H2224     1.0  0.69430  0.28124  0.12079  1.0000
  H   H2225     1.0  0.74421  0.35840  0.08514  1.0000
  C   C2796     1.0  0.50847  0.39551  0.22602  1.0000
  H   H2226     1.0  0.92708  0.49453  0.27758  1.0000
  S   S358      1.0  0.92118  0.44078  0.95899  1.0000
  C   C2797     1.0  0.79186  0.28140  0.35144  1.0000
  H   H2227     1.0  0.51185  0.40716  0.12675  1.0000
  H   H2228     1.0  0.86944  0.36519  0.11007  1.0000
  S   S359      1.0  0.64636  0.38389  0.94914  1.0000
  C   C2798     1.0  0.63070  0.51242  0.08811  1.0000
  H   H2229     1.0  0.66217  0.33903  0.36721  1.0000
  Fe  Fe178     1.0  0.58346  0.35421  0.93431  1.0000
  H   H2230     1.0  0.65358  0.41356  0.20179  1.0000
  H   H2231     1.0  0.68177  0.48754  0.11339  1.0000
  C   C2799     1.0  0.69757  0.34920  0.01624  1.0000
  C   C2800     1.0  0.85271  0.27061  0.24643  1.0000
  C   C2801     1.0  0.56060  0.41262  0.05012  1.0000
  C   C2802     1.0  0.62900  0.40068  0.07583  1.0000
  C   C2803     1.0  0.64317  0.35977  0.38218  1.0000
  C   C2804     1.0  0.86447  0.48096  0.33508  1.0000
  H   H2232     1.0  0.92801  0.31914  0.95465  1.0000
  H   H2233     1.0  0.64944  0.43916  0.07278  1.0000
  C   C2805     1.0  0.79278  0.31475  0.95069  1.0000
  C   C2806     1.0  0.54578  0.28809  0.37014  1.0000
  C   C2807     1.0  0.51210  0.27056  0.34135  1.0000
  H   H2234     1.0  0.60542  0.28417  0.12379  1.0000
  C   C2808     1.0  0.97955  0.48103  0.27634  1.0000
  C   C2809     1.0  0.96767  0.44975  0.02143  1.0000
  C   C2810     1.0  0.62120  0.49007  0.07572  1.0000
  Fe  Fe179     1.0  0.92556  0.30873  0.24197  1.0000
  C   C2811     1.0  0.51121  0.34906  0.94493  1.0000
  C   C2812     1.0  0.54062  0.32821  0.24733  1.0000
  C   C2813     1.0  0.93391  0.41632  0.08145  1.0000
  H   H2235     1.0  0.91361  0.38137  0.20936  1.0000
  C   C2814     1.0  0.93781  0.48857  0.38113  1.0000
  H   H2236     1.0  0.79111  0.45869  0.05699  1.0000
  H   H2237     1.0  0.53851  0.45638  0.22642  1.0000
  H   H2238     1.0  0.86907  0.27048  0.24837  1.0000
  C   C2815     1.0  0.99327  0.34299  0.96710  1.0000
  H   H2239     1.0  0.58633  0.35586  0.17013  1.0000
  C   C2816     1.0  0.70485  0.36493  0.08206  1.0000
  C   C2817     1.0  0.79605  0.36013  0.03075  1.0000
  S   S360      1.0  0.58998  0.36538  0.99811  1.0000
  S   S361      1.0  0.70087  0.32229  0.36835  1.0000
  H   H2240     1.0  0.77460  0.50272  0.97751  1.0000
  C   C2818     1.0  0.82897  0.50883  0.26559  1.0000
  H   H2241     1.0  0.82543  0.43004  0.94917  1.0000
  H   H2242     1.0  0.62270  0.49302  0.91546  1.0000
  H   H2243     1.0  0.94577  0.29376  0.07186  1.0000
  C   C2819     1.0  0.89728  0.32609  0.31933  1.0000
  H   H2244     1.0  0.98389  0.39129  0.14798  1.0000
  H   H2245     1.0  0.65753  0.44494  0.35659  1.0000
  C   C2820     1.0  0.89650  0.46998  0.07188  1.0000
  C   C2821     1.0  0.82308  0.49775  0.38813  1.0000
  S   S362      1.0  0.94096  0.31041  0.16870  1.0000
  C   C2822     1.0  0.53661  0.50428  0.19298  1.0000
  H   H2246     1.0  0.55843  0.36981  0.31041  1.0000
  C   C2823     1.0  0.58563  0.50075  0.29733  1.0000
  S   S363      1.0  0.91931  0.27002  0.26821  1.0000
  C   C2824     1.0  0.95075  0.51370  0.37860  1.0000
  H   H2247     1.0  0.72309  0.46113  0.24085  1.0000
  H   H2248     1.0  0.91968  0.28007  0.93381  1.0000
  C   C2825     1.0  0.90000  0.46598  0.11487  1.0000
  H   H2249     1.0  0.86293  0.33607  0.23402  1.0000
  C   C2826     1.0  0.66442  0.45054  0.16070  1.0000
  H   H2250     1.0  0.53690  0.30148  0.14596  1.0000
  H   H2251     1.0  0.78777  0.39244  0.94329  1.0000
  Fe  Fe180     1.0  0.95584  0.28783  0.27533  1.0000
  H   H2252     1.0  0.89429  0.43863  0.17466  1.0000
  H   H2253     1.0  0.91717  0.46212  0.34864  1.0000
  C   C2827     1.0  0.77491  0.44929  0.04809  1.0000
  C   C2828     1.0  0.67996  0.43463  0.38713  1.0000
  C   C2829     1.0  0.85856  0.32591  0.12211  1.0000
  C   C2830     1.0  0.60778  0.42551  0.30587  1.0000
  C   C2831     1.0  0.89602  0.34008  0.04168  1.0000
  H   H2254     1.0  0.94411  0.40111  0.31661  1.0000
  C   C2832     1.0  0.80058  0.49237  0.94507  1.0000
  H   H2255     1.0  0.54146  0.31163  0.24111  1.0000
  C   C2833     1.0  0.98938  0.37616  0.28978  1.0000
  H   H2256     1.0  0.98878  0.35349  0.03077  1.0000
  H   H2257     1.0  0.70318  0.34889  0.98088  1.0000
  H   H2258     1.0  0.65141  0.49533  0.17217  1.0000
  C   C2834     1.0  0.84659  0.38126  0.24145  1.0000
  H   H2259     1.0  0.55575  0.37221  0.14385  1.0000
  H   H2260     1.0  0.72170  0.37918  0.30999  1.0000
  C   C2835     1.0  0.61145  0.37719  0.10327  1.0000
  H   H2261     1.0  0.92507  0.34489  0.10671  1.0000
  C   C2836     1.0  0.75101  0.42588  0.37754  1.0000
  H   H2262     1.0  0.73457  0.47513  0.39036  1.0000
  C   C2837     1.0  0.55141  0.27902  0.17375  1.0000
  C   C2838     1.0  0.81187  0.38619  0.38350  1.0000
  C   C2839     1.0  0.74474  0.39240  0.94139  1.0000
  S   S364      1.0  0.89774  0.32041  0.26517  1.0000
  C   C2840     1.0  0.62251  0.46941  0.09811  1.0000
  C   C2841     1.0  0.72617  0.41389  0.38758  1.0000
  C   C2842     1.0  0.54221  0.50620  0.35951  1.0000
  H   H2263     1.0  0.69524  0.28815  0.19803  1.0000
  C   C2843     1.0  0.94920  0.42534  0.03654  1.0000
  C   C2844     1.0  0.57071  0.27414  0.16748  1.0000
  H   H2264     1.0  0.72212  0.49362  0.10509  1.0000
  C   C2845     1.0  0.69231  0.46113  0.97555  1.0000
  S   S365      1.0  0.49683  0.42735  0.94982  1.0000
  C   C2846     1.0  0.52872  0.33797  0.22458  1.0000
  C   C2847     1.0  0.79080  0.32735  0.91138  1.0000
  C   C2848     1.0  0.51681  0.50992  0.27756  1.0000
  H   H2265     1.0  0.92510  0.42461  0.14601  1.0000
  C   C2849     1.0  0.70712  0.47646  0.12737  1.0000
  C   C2850     1.0  0.91121  0.32614  0.38642  1.0000
  C   C2851     1.0  0.59128  0.30690  0.09618  1.0000
  C   C2852     1.0  0.88454  0.34333  0.37902  1.0000
  C   C2853     1.0  0.64572  0.33812  0.38592  1.0000
  C   C2854     1.0  0.81468  0.32289  0.95899  1.0000
  S   S366      1.0  0.54816  0.33877  0.92076  1.0000
  H   H2266     1.0  0.80872  0.35409  0.03763  1.0000
  C   C2855     1.0  0.96561  0.45869  0.31080  1.0000
  C   C2856     1.0  0.85357  0.29044  0.21616  1.0000
  C   C2857     1.0  0.57852  0.43034  0.27447  1.0000
  C   C2858     1.0  0.50255  0.50018  0.25006  1.0000
  H   H2267     1.0  0.54832  0.45992  0.93009  1.0000
  C   C2859     1.0  0.68403  0.47294  0.13258  1.0000
  C   C2860     1.0  0.88224  0.31501  0.06613  1.0000
  H   H2268     1.0  0.88776  0.40732  0.30273  1.0000
  H   H2269     1.0  0.66200  0.32049  0.02721  1.0000
  C   C2861     1.0  0.57196  0.31187  0.10244  1.0000
  H   H2270     1.0  0.91892  0.39790  0.09264  1.0000
  C   C2862     1.0  0.51239  0.27707  0.02341  1.0000
  Fe  Fe181     1.0  0.61420  0.34825  0.99094  1.0000
  H   H2271     1.0  0.97855  0.45679  0.98593  1.0000
  H   H2272     1.0  0.82394  0.49210  0.16647  1.0000
  H   H2273     1.0  0.71696  0.41605  0.01620  1.0000
  C   C2863     1.0  0.83106  0.49726  0.23041  1.0000
  H   H2274     1.0  0.83759  0.50766  0.29147  1.0000
  H   H2275     1.0  0.71647  0.37735  0.09789  1.0000
  Fe  Fe182     1.0  0.97620  0.32605  0.18257  1.0000
  P   P96       1.0  0.74329  0.38784  0.00162  1.0000
  C   C2864     1.0  0.98433  0.38731  0.25343  1.0000
  C   C2865     1.0  0.93217  0.35762  0.12689  1.0000
  S   S367      1.0  0.95409  0.40209  0.92231  1.0000
  H   H2276     1.0  0.81818  0.35495  0.16789  1.0000
  H   H2277     1.0  0.81578  0.37782  0.95911  1.0000
  C   C2866     1.0  0.77061  0.42825  0.03168  1.0000
  C   C2867     1.0  0.64287  0.49359  0.14536  1.0000
  H   H2278     1.0  0.85147  0.34956  0.93432  1.0000
  H   H2279     1.0  0.63085  0.26863  0.13714  1.0000
  H   H2280     1.0  0.78496  0.29884  0.06726  1.0000
  C   C2868     1.0  0.52735  0.41968  0.21579  1.0000
  C   C2869     1.0  0.76340  0.37604  0.01266  1.0000
  H   H2281     1.0  0.64491  0.48389  0.98548  1.0000
  H   H2282     1.0  0.49946  0.36530  0.34771  1.0000
  H   H2283     1.0  0.90288  0.48865  0.05155  1.0000
  C   C2870     1.0  0.52336  0.48230  0.36698  1.0000
  C   C2871     1.0  0.83198  0.37657  0.21308  1.0000
  H   H2284     1.0  0.85465  0.47068  0.37064  1.0000
  P   P97       1.0  0.99251  0.49784  0.02951  1.0000
  C   C2872     1.0  0.49987  0.27959  0.37054  1.0000
  H   H2285     1.0  0.72884  0.46049  0.14523  1.0000
  C   C2873     1.0  0.92523  0.28249  0.96413  1.0000
  S   S368      1.0  0.84176  0.39419  0.35945  1.0000
  H   H2286     1.0  0.50127  0.48967  0.18677  1.0000
  H   H2287     1.0  0.85236  0.28835  0.12364  1.0000
  C   C2874     1.0  0.96124  0.38240  0.34431  1.0000
  H   H2288     1.0  0.58122  0.47316  0.96461  1.0000
  H   H2289     1.0  0.77305  0.34477  0.10060  1.0000
  C   C2875     1.0  0.52833  0.34449  0.95910  1.0000
  H   H2290     1.0  0.57398  0.41991  0.34705  1.0000
  C   C2876     1.0  0.52681  0.40406  0.11361  1.0000
  C   C2877     1.0  0.62364  0.41842  0.14007  1.0000
  C   C2878     1.0  0.53040  0.34592  0.00292  1.0000
  H   H2291     1.0  0.80035  0.36556  0.33495  1.0000
  H   H2292     1.0  0.89814  0.35300  0.16353  1.0000
  C   C2879     1.0  0.71319  0.36548  0.03574  1.0000
  S   S369      1.0  0.87312  0.42784  0.92772  1.0000
  C   C2880     1.0  0.81062  0.27098  0.24105  1.0000
  C   C2881     1.0  0.87882  0.48054  0.25622  1.0000
  H   H2293     1.0  0.80930  0.31484  0.29578  1.0000
  H   H2294     1.0  0.79405  0.27037  0.23943  1.0000
  S   S370      1.0  0.89864  0.40512  0.39351  1.0000
  H   H2295     1.0  0.94482  0.48981  0.03186  1.0000
  H   H2296     1.0  0.83704  0.43915  0.07812  1.0000
  C   C2882     1.0  0.76489  0.29703  0.17937  1.0000
  C   C2883     1.0  0.60576  0.39477  0.16740  1.0000
  C   C2884     1.0  0.71976  0.51485  0.23835  1.0000
  H   H2297     1.0  0.75773  0.35251  0.37030  1.0000
  C   C2885     1.0  0.55016  0.41031  0.91028  1.0000
  C   C2886     1.0  0.94289  0.42444  0.23198  1.0000
  H   H2298     1.0  0.84838  0.50205  0.97625  1.0000
  H   H2299     1.0  0.68246  0.50830  0.00161  1.0000
  H   H2300     1.0  0.94654  0.44924  0.31764  1.0000
  S   S371      1.0  0.72279  0.49929  0.00155  1.0000
  H   H2301     1.0  0.84094  0.48687  0.22969  1.0000
  H   H2302     1.0  0.84927  0.39620  0.25804  1.0000
  S   S372      1.0  0.60592  0.33488  0.92990  1.0000
  H   H2303     1.0  0.50880  0.51204  0.31013  1.0000
  C   C2887     1.0  0.93313  0.49984  0.30626  1.0000
  S   S373      1.0  0.66418  0.27369  0.05581  1.0000
  C   C2888     1.0  0.83253  0.29081  0.21305  1.0000
  H   H2304     1.0  0.87387  0.40278  0.14425  1.0000
  H   H2305     1.0  0.66289  0.34514  0.89881  1.0000
  S   S374      1.0  0.72906  0.28423  0.30856  1.0000
  H   H2306     1.0  0.98561  0.35350  0.95205  1.0000
  C   C2889     1.0  0.68132  0.34845  0.10824  1.0000
  C   C2890     1.0  0.92787  0.48156  0.34608  1.0000
  H   H2307     1.0  0.90162  0.37745  0.03848  1.0000
  H   H2308     1.0  0.82217  0.31024  0.08678  1.0000
  C   C2891     1.0  0.89121  0.35804  0.05762  1.0000
  P   P98       1.0  0.83408  0.31661  0.17325  1.0000
  C   C2892     1.0  0.75447  0.40339  0.32058  1.0000
  C   C2893     1.0  0.87273  0.35103  0.09792  1.0000
  H   H2309     1.0  0.69688  0.38915  0.36729  1.0000
  H   H2310     1.0  0.53663  0.42791  0.04606  1.0000
  C   C2894     1.0  0.55135  0.38442  0.12348  1.0000
  C   C2895     1.0  0.59334  0.43612  0.22984  1.0000
  H   H2311     1.0  0.78334  0.42128  0.02916  1.0000
  C   C2896     1.0  0.51686  0.35397  0.03103  1.0000
  C   C2897     1.0  0.53841  0.37086  0.26336  1.0000
  H   H2312     1.0  0.74098  0.42603  0.93451  1.0000
  C   C2898     1.0  0.92603  0.37833  0.18540  1.0000
  H   H2313     1.0  0.51900  0.47492  0.33851  1.0000
  C   C2899     1.0  0.87662  0.42554  0.08117  1.0000
  Fe  Fe183     1.0  0.62130  0.40014  0.95122  1.0000
  H   H2314     1.0  0.78409  0.42883  0.33847  1.0000
  C   C2900     1.0  0.98129  0.50975  0.98802  1.0000
  C   C2901     1.0  0.69613  0.26841  0.14602  1.0000
  C   C2902     1.0  0.55030  0.36105  0.28610  1.0000
  H   H2315     1.0  0.54437  0.50290  0.15947  1.0000
  H   H2316     1.0  0.88356  0.45305  0.02036  1.0000
  H   H2317     1.0  0.68528  0.32090  0.90048  1.0000
  C   C2903     1.0  0.90495  0.41902  0.27731  1.0000
  C   C2904     1.0  0.85804  0.36691  0.24793  1.0000
  H   H2318     1.0  0.66844  0.43096  0.95513  1.0000
  C   C2905     1.0  0.81966  0.32157  0.35637  1.0000
  H   H2319     1.0  0.63800  0.40291  0.04041  1.0000
  H   H2320     1.0  0.88615  0.30103  0.05459  1.0000
  C   C2906     1.0  0.78597  0.30361  0.19086  1.0000
  H   H2321     1.0  0.96663  0.46169  0.18736  1.0000
  C   C2907     1.0  0.69154  0.43514  0.17684  1.0000
  H   H2322     1.0  0.72502  0.45362  0.04402  1.0000
  C   C2908     1.0  0.91059  0.32011  0.34443  1.0000
  C   C2909     1.0  0.71585  0.39785  0.36151  1.0000
  C   C2910     1.0  0.67937  0.49131  0.99196  1.0000
  C   C2911     1.0  0.78527  0.30004  0.10185  1.0000
  S   S375      1.0  0.76822  0.28838  0.98904  1.0000
  H   H2323     1.0  0.80968  0.49598  0.97079  1.0000
  C   C2912     1.0  0.74986  0.41615  0.01955  1.0000
  H   H2324     1.0  0.59687  0.39194  0.20314  1.0000
  H   H2325     1.0  0.65313  0.28620  0.22889  1.0000
  C   C2913     1.0  0.64097  0.26883  0.30174  1.0000
  C   C2914     1.0  0.66592  0.33250  0.08836  1.0000
  H   H2326     1.0  0.56067  0.33221  0.29562  1.0000
  C   C2915     1.0  0.72873  0.48058  0.23917  1.0000
  H   H2327     1.0  0.75322  0.49492  0.91988  1.0000
  H   H2328     1.0  0.89972  0.45128  0.26819  1.0000
  H   H2329     1.0  0.63997  0.43245  0.25740  1.0000
  H   H2330     1.0  0.82365  0.38818  0.20699  1.0000
  C   C2916     1.0  0.96530  0.38391  0.15050  1.0000
  H   H2331     1.0  0.52054  0.32887  0.20065  1.0000
  H   H2332     1.0  0.97649  0.26915  0.08332  1.0000
  H   H2333     1.0  0.68582  0.49025  0.33334  1.0000
  C   C2917     1.0  0.55209  0.29811  0.14165  1.0000
  H   H2334     1.0  0.87300  0.34108  0.31859  1.0000
  H   H2335     1.0  0.50483  0.32782  0.35187  1.0000
  H   H2336     1.0  0.60594  0.48073  0.29208  1.0000
  H   H2337     1.0  0.87977  0.47047  0.23044  1.0000
  C   C2918     1.0  0.86329  0.30789  0.10567  1.0000
  C   C2919     1.0  0.83948  0.34231  0.19908  1.0000
  C   C2920     1.0  0.71206  0.48541  0.35989  1.0000
  C   C2921     1.0  0.80874  0.48446  0.90776  1.0000
  H   H2338     1.0  0.85641  0.44755  0.31244  1.0000
  P   P99       1.0  0.51297  0.37241  0.20106  1.0000
  C   C2922     1.0  0.95562  0.45593  0.09636  1.0000
  C   C2923     1.0  0.85433  0.34732  0.22734  1.0000
  C   C2924     1.0  0.94764  0.50998  0.96604  1.0000
  H   H2339     1.0  0.98473  0.40820  0.00082  1.0000
  H   H2340     1.0  0.59356  0.48817  0.38647  1.0000
  C   C2925     1.0  0.77593  0.35485  0.06614  1.0000
  S   S376      1.0  0.61657  0.32363  0.04817  1.0000
  C   C2926     1.0  0.80685  0.30805  0.15805  1.0000
  C   C2927     1.0  0.99186  0.43706  0.18169  1.0000
  C   C2928     1.0  0.83597  0.46731  0.95736  1.0000
  P   P100      1.0  0.96264  0.41168  0.21380  1.0000
  C   C2929     1.0  0.94002  0.29069  0.04173  1.0000
  C   C2930     1.0  0.82150  0.50021  0.19482  1.0000
  H   H2341     1.0  0.87418  0.35201  0.39245  1.0000
  C   C2931     1.0  0.94944  0.44943  0.21229  1.0000
  H   H2342     1.0  0.51897  0.35569  0.06445  1.0000
  H   H2343     1.0  0.94618  0.41377  0.01283  1.0000
  C   C2932     1.0  0.97120  0.46521  0.05135  1.0000
  C   C2933     1.0  0.65810  0.47750  0.98267  1.0000
  C   C2934     1.0  0.95043  0.38977  0.18102  1.0000
  H   H2344     1.0  0.72434  0.50515  0.34929  1.0000
  C   C2935     1.0  0.80004  0.37353  0.98649  1.0000
  H   H2345     1.0  0.54231  0.34071  0.01540  1.0000
  C   C2936     1.0  0.76449  0.29497  0.13502  1.0000
  C   C2937     1.0  0.61560  0.43676  0.22283  1.0000
  C   C2938     1.0  0.84325  0.47220  0.03040  1.0000
  Fe  Fe184     1.0  0.92560  0.41343  0.92214  1.0000
  H   H2346     1.0  0.70550  0.45472  0.97270  1.0000
  C   C2939     1.0  0.67405  0.33295  0.04245  1.0000
  C   C2940     1.0  0.63525  0.42119  0.09420  1.0000
  H   H2347     1.0  0.64538  0.28612  0.31153  1.0000
  C   C2941     1.0  0.76504  0.42038  0.34463  1.0000
  C   C2942     1.0  0.91164  0.44382  0.25762  1.0000
  H   H2348     1.0  0.57212  0.32599  0.07702  1.0000
  S   S377      1.0  0.71969  0.30408  0.95855  1.0000
  H   H2349     1.0  0.97509  0.46967  0.90639  1.0000
  C   C2943     1.0  0.82880  0.35753  0.19121  1.0000
  C   C2944     1.0  0.89151  0.50646  0.24349  1.0000
  H   H2350     1.0  0.99077  0.43238  0.11366  1.0000
  C   C2945     1.0  0.95683  0.50210  0.99858  1.0000
  C   C2946     1.0  0.95632  0.36849  0.12272  1.0000
  C   C2947     1.0  0.77083  0.36431  0.38439  1.0000
  C   C2948     1.0  0.78070  0.49626  0.94905  1.0000
  C   C2949     1.0  0.58509  0.47607  0.92766  1.0000
  C   C2950     1.0  0.87615  0.50714  0.32203  1.0000
  C   C2951     1.0  0.87202  0.28388  0.96319  1.0000
  Fe  Fe185     1.0  0.91191  0.45430  0.89797  1.0000
  C   C2952     1.0  0.74252  0.41228  0.91790  1.0000
  H   H2351     1.0  0.76529  0.39861  0.29605  1.0000
  C   C2953     1.0  0.71274  0.49003  0.23855  1.0000
  C   C2954     1.0  0.53505  0.27504  0.34084  1.0000
  Fe  Fe186     1.0  0.73719  0.27991  0.96259  1.0000
  C   C2955     1.0  0.55092  0.51383  0.22054  1.0000
  C   C2956     1.0  0.73333  0.42532  0.02456  1.0000
  C   C2957     1.0  0.75845  0.45837  0.05268  1.0000
  C   C2958     1.0  0.80730  0.30669  0.33097  1.0000
  S   S378      1.0  0.96085  0.32656  0.25412  1.0000
  C   C2959     1.0  0.52766  0.35949  0.23217  1.0000
  S   S379      1.0  0.91578  0.49128  0.13462  1.0000
  H   H2352     1.0  0.90251  0.51640  0.20823  1.0000
  C   C2960     1.0  0.71090  0.45766  0.14963  1.0000
  C   C2961     1.0  0.84292  0.48237  0.98699  1.0000
  H   H2353     1.0  0.92875  0.50375  0.97399  1.0000
  H   H2354     1.0  0.86950  0.37077  0.26959  1.0000
  Fe  Fe187     1.0  0.71002  0.29085  0.37105  1.0000
  Fe  Fe188     1.0  0.68615  0.26878  0.99578  1.0000
  H   H2355     1.0  0.82521  0.48170  0.38378  1.0000
  H   H2356     1.0  0.50707  0.29034  0.00951  1.0000
  C   C2962     1.0  0.99330  0.51200  0.07702  1.0000
  C   C2963     1.0  0.64145  0.51413  0.12302  1.0000
  H   H2357     1.0  0.77385  0.32103  0.90481  1.0000
  H   H2358     1.0  0.99360  0.38909  0.21852  1.0000
  C   C2964     1.0  0.54103  0.51631  0.26350  1.0000
  C   C2965     1.0  0.60865  0.48745  0.89951  1.0000
  C   C2966     1.0  0.95016  0.37781  0.89591  1.0000
  H   H2359     1.0  0.80194  0.28394  0.89685  1.0000
  C   C2967     1.0  0.58611  0.67552  0.68972  1.0000
  C   C2968     1.0  0.92062  0.67322  0.46499  1.0000
  H   H2360     1.0  0.60036  0.69934  0.50324  1.0000
  C   C2969     1.0  0.88225  0.60145  0.41999  1.0000
  C   C2970     1.0  0.50988  0.60659  0.79648  1.0000
  H   H2361     1.0  0.52789  0.51732  0.77398  1.0000
  H   H2362     1.0  0.55099  0.64477  0.70697  1.0000
  C   C2971     1.0  0.59250  0.66759  0.60208  1.0000
  Fe  Fe189     1.0  0.84985  0.69677  0.70533  1.0000
  Fe  Fe190     1.0  0.90033  0.55637  0.66924  1.0000
  C   C2972     1.0  0.90156  0.66231  0.88872  1.0000
  C   C2973     1.0  0.87680  0.58396  0.49956  1.0000
  H   H2363     1.0  0.59330  0.72385  0.72085  1.0000
  H   H2364     1.0  0.68273  0.56893  0.65966  1.0000
  C   C2974     1.0  0.95651  0.71658  0.39958  1.0000
  H   H2365     1.0  0.54280  0.61869  0.88843  1.0000
  H   H2366     1.0  0.60117  0.54639  0.61437  1.0000
  C   C2975     1.0  0.84313  0.59592  0.65312  1.0000
  C   C2976     1.0  0.51311  0.76429  0.62374  1.0000
  H   H2367     1.0  0.93396  0.72309  0.54496  1.0000
  H   H2368     1.0  0.98416  0.54532  0.49934  1.0000
  C   C2977     1.0  0.93772  0.62703  0.86954  1.0000
  C   C2978     1.0  0.53820  0.74686  0.59207  1.0000
  C   C2979     1.0  0.73891  0.67486  0.73371  1.0000
  C   C2980     1.0  0.66616  0.54349  0.72757  1.0000
  C   C2981     1.0  0.78918  0.63296  0.43783  1.0000
  C   C2982     1.0  0.70834  0.68405  0.43020  1.0000
  C   C2983     1.0  0.90518  0.61946  0.41571  1.0000
  C   C2984     1.0  0.68903  0.70665  0.40215  1.0000
  H   H2369     1.0  0.74165  0.60797  0.57897  1.0000
  C   C2985     1.0  0.98101  0.63682  0.40306  1.0000
  C   C2986     1.0  0.54921  0.54286  0.89472  1.0000
  H   H2370     1.0  0.79008  0.65806  0.76955  1.0000
  H   H2371     1.0  0.95338  0.64398  0.84903  1.0000
  Fe  Fe191     1.0  0.55591  0.74919  0.80499  1.0000
  C   C2987     1.0  0.95274  0.72867  0.53158  1.0000
  C   C2988     1.0  0.55268  0.69004  0.43886  1.0000
  C   C2989     1.0  0.50747  0.53658  0.78971  1.0000
  C   C2990     1.0  0.58881  0.66254  0.81374  1.0000
  S   S380      1.0  0.53649  0.74237  0.87854  1.0000
  H   H2372     1.0  0.78319  0.64817  0.68498  1.0000
  C   C2991     1.0  0.77419  0.63938  0.66186  1.0000
  H   H2373     1.0  0.54195  0.58863  0.42132  1.0000
  S   S381      1.0  0.52509  0.52398  0.54942  1.0000
  S   S382      1.0  0.57134  0.72356  0.82026  1.0000
  H   H2374     1.0  0.53197  0.69146  0.55746  1.0000
  H   H2375     1.0  0.51047  0.58405  0.61011  1.0000
  S   S383      1.0  0.70649  0.57161  0.45329  1.0000
  H   H2376     1.0  0.81222  0.55040  0.75261  1.0000
  C   C2992     1.0  0.57549  0.73272  0.54985  1.0000
  S   S384      1.0  0.63074  0.71447  0.66723  1.0000
  H   H2377     1.0  0.85885  0.65791  0.75650  1.0000
  C   C2993     1.0  0.85941  0.52631  0.83619  1.0000
  H   H2378     1.0  0.79066  0.67445  0.83553  1.0000
  C   C2994     1.0  0.77178  0.69127  0.48508  1.0000
  C   C2995     1.0  0.57118  0.65175  0.63702  1.0000
  C   C2996     1.0  0.60891  0.51940  0.50930  1.0000
  H   H2379     1.0  0.88856  0.60214  0.81878  1.0000
  C   C2997     1.0  0.68263  0.65530  0.67541  1.0000
  C   C2998     1.0  0.91185  0.61517  0.66301  1.0000
  C   C2999     1.0  0.53187  0.60675  0.78884  1.0000
  H   H2380     1.0  0.93596  0.53431  0.78715  1.0000
  C   C3000     1.0  0.56402  0.65842  0.46139  1.0000
  H   H2381     1.0  0.77244  0.66881  0.43820  1.0000
  C   C3001     1.0  0.81098  0.65122  0.40626  1.0000
  H   H2382     1.0  0.65807  0.63548  0.74351  1.0000
  Fe  Fe192     1.0  0.75384  0.54077  0.53166  1.0000
  H   H2383     1.0  0.70749  0.66414  0.85395  1.0000
  C   C3002     1.0  0.90288  0.64999  0.65927  1.0000
  C   C3003     1.0  0.86807  0.58361  0.46188  1.0000
  C   C3004     1.0  0.98841  0.52025  0.78907  1.0000
  C   C3005     1.0  0.69409  0.74364  0.77512  1.0000
  S   S385      1.0  0.58068  0.63635  0.40269  1.0000
  Fe  Fe193     1.0  0.57848  0.61488  0.47005  1.0000
  Fe  Fe194     1.0  0.87361  0.68740  0.61957  1.0000
  S   S386      1.0  0.78912  0.54179  0.50713  1.0000
  C   C3006     1.0  0.73392  0.67681  0.54331  1.0000
  H   H2384     1.0  0.57647  0.56784  0.69167  1.0000
  C   C3007     1.0  0.80068  0.71308  0.83022  1.0000
  C   C3008     1.0  0.67911  0.74252  0.70973  1.0000
  H   H2385     1.0  0.66445  0.53486  0.43651  1.0000
  C   C3009     1.0  0.60728  0.73593  0.46933  1.0000
  H   H2386     1.0  0.86695  0.69461  0.47262  1.0000
  S   S387      1.0  0.91515  0.59108  0.69464  1.0000
  C   C3010     1.0  0.62255  0.53409  0.57204  1.0000
  S   S388      1.0  0.72420  0.52258  0.50240  1.0000
  C   C3011     1.0  0.90112  0.64955  0.61486  1.0000
  H   H2387     1.0  0.65009  0.57991  0.66326  1.0000
  C   C3012     1.0  0.59668  0.71471  0.50619  1.0000
  H   H2388     1.0  0.93374  0.73297  0.41840  1.0000
  H   H2389     1.0  0.49750  0.65948  0.84242  1.0000
  S   S389      1.0  0.69166  0.53589  0.58091  1.0000
  H   H2390     1.0  0.81879  0.66277  0.51969  1.0000
  H   H2391     1.0  0.49769  0.65354  0.72584  1.0000
  C   C3013     1.0  0.70953  0.63938  0.64730  1.0000
  C   C3014     1.0  0.82734  0.60406  0.52033  1.0000
  H   H2392     1.0  0.98396  0.66841  0.88415  1.0000
  C   C3015     1.0  0.86567  0.60631  0.78166  1.0000
  S   S390      1.0  0.86622  0.71314  0.57371  1.0000
  H   H2393     1.0  0.98127  0.62893  0.43637  1.0000
  C   C3016     1.0  0.86613  0.51749  0.45691  1.0000
  C   C3017     1.0  0.77206  0.71082  0.73941  1.0000
  C   C3018     1.0  0.81614  0.53804  0.40350  1.0000
  H   H2394     1.0  0.61897  0.73687  0.43771  1.0000
  C   C3019     1.0  0.80549  0.58158  0.73338  1.0000
  S   S391      1.0  0.84067  0.72312  0.66617  1.0000
  H   H2395     1.0  0.88027  0.73848  0.47424  1.0000
  C   C3020     1.0  0.97128  0.68363  0.73306  1.0000
  H   H2396     1.0  0.77745  0.54875  0.59799  1.0000
  C   C3021     1.0  0.82168  0.64668  0.51936  1.0000
  C   C3022     1.0  0.72406  0.65606  0.52613  1.0000
  C   C3023     1.0  0.74730  0.58707  0.80753  1.0000
  H   H2397     1.0  0.72415  0.68353  0.43468  1.0000
  C   C3024     1.0  0.84512  0.75725  0.86252  1.0000
  H   H2398     1.0  0.73225  0.65841  0.72128  1.0000
  H   H2399     1.0  0.76958  0.65309  0.55465  1.0000
  C   C3025     1.0  0.83095  0.60976  0.65803  1.0000
  H   H2400     1.0  0.80632  0.62874  0.76579  1.0000
  C   C3026     1.0  0.50021  0.62883  0.46403  1.0000
  H   H2401     1.0  0.65089  0.68653  0.42270  1.0000
  H   H2402     1.0  0.56704  0.70653  0.67441  1.0000
  H   H2403     1.0  0.76120  0.54866  0.72477  1.0000
  H   H2404     1.0  0.52627  0.69829  0.69614  1.0000
  P   P101      1.0  0.71488  0.68174  0.58824  1.0000
  H   H2405     1.0  0.64858  0.64711  0.46308  1.0000
  H   H2406     1.0  0.59484  0.66503  0.56798  1.0000
  H   H2407     1.0  0.56594  0.64689  0.48824  1.0000
  H   H2408     1.0  0.72402  0.64046  0.62106  1.0000
  C   C3027     1.0  0.83488  0.62182  0.47874  1.0000
  C   C3028     1.0  0.70101  0.65658  0.64014  1.0000
  C   C3029     1.0  0.58338  0.58551  0.70012  1.0000
  C   C3030     1.0  0.81736  0.56730  0.72721  1.0000
  Fe  Fe195     1.0  0.55085  0.56420  0.53791  1.0000
  S   S392      1.0  0.87950  0.55738  0.62060  1.0000
  H   H2409     1.0  0.58361  0.67852  0.72369  1.0000
  S   S393      1.0  0.83637  0.66785  0.66751  1.0000
  C   C3031     1.0  0.62555  0.52474  0.53383  1.0000
  C   C3032     1.0  0.60663  0.68652  0.80845  1.0000
  P   P102      1.0  0.91098  0.64949  0.84424  1.0000
  C   C3033     1.0  0.91496  0.62462  0.87384  1.0000
  C   C3034     1.0  0.90042  0.55609  0.82345  1.0000
  P   P103      1.0  0.71130  0.71189  0.80751  1.0000
  C   C3035     1.0  0.93591  0.71638  0.42464  1.0000
  C   C3036     1.0  0.81485  0.52725  0.55259  1.0000
  H   H2410     1.0  0.97603  0.67241  0.57272  1.0000
  C   C3037     1.0  0.76162  0.74502  0.44370  1.0000
  H   H2411     1.0  0.96625  0.73529  0.74607  1.0000
  H   H2412     1.0  0.95263  0.70443  0.58949  1.0000
  C   C3038     1.0  0.59413  0.64261  0.81504  1.0000
  H   H2413     1.0  0.97287  0.56642  0.59948  1.0000
  H   H2414     1.0  0.75537  0.60277  0.70927  1.0000
  C   C3039     1.0  0.96485  0.64581  0.39793  1.0000
  C   C3040     1.0  0.96634  0.74630  0.48921  1.0000
  S   S394      1.0  0.59767  0.63270  0.51770  1.0000
  C   C3041     1.0  0.57533  0.58685  0.74493  1.0000
  H   H2415     1.0  0.88521  0.67140  0.80461  1.0000
  H   H2416     1.0  0.69435  0.52044  0.43584  1.0000
  H   H2417     1.0  0.83661  0.62640  0.63113  1.0000
  C   C3042     1.0  0.75795  0.69437  0.52250  1.0000
  C   C3043     1.0  0.75082  0.71209  0.62033  1.0000
  C   C3044     1.0  0.53353  0.61487  0.86293  1.0000
  C   C3045     1.0  0.86071  0.70550  0.45377  1.0000
  C   C3046     1.0  0.53211  0.69788  0.62456  1.0000
  C   C3047     1.0  0.78455  0.68765  0.84346  1.0000
  C   C3048     1.0  0.97521  0.55265  0.48055  1.0000
  H   H2418     1.0  0.63592  0.53900  0.58970  1.0000
  H   H2419     1.0  0.91536  0.60349  0.60103  1.0000
  H   H2420     1.0  0.70638  0.60766  0.69407  1.0000
  H   H2421     1.0  0.71924  0.59702  0.82441  1.0000
  C   C3049     1.0  0.62149  0.55555  0.41084  1.0000
  C   C3050     1.0  0.82056  0.52065  0.59217  1.0000
  C   C3051     1.0  0.58373  0.59117  0.88544  1.0000
  C   C3052     1.0  0.73109  0.70930  0.60560  1.0000
  H   H2422     1.0  0.51781  0.63482  0.44123  1.0000
  C   C3053     1.0  0.74643  0.74839  0.42039  1.0000
  H   H2423     1.0  0.62250  0.63265  0.80804  1.0000
  H   H2424     1.0  0.64102  0.59227  0.46712  1.0000
  Fe  Fe196     1.0  0.60170  0.59846  0.53501  1.0000
  P   P104      1.0  0.78369  0.57389  0.78817  1.0000
  C   C3054     1.0  0.74702  0.60225  0.64544  1.0000
  H   H2425     1.0  0.94577  0.60289  0.50131  1.0000
  H   H2426     1.0  0.52950  0.74854  0.66283  1.0000
  C   C3055     1.0  0.80427  0.55448  0.84339  1.0000
  C   C3056     1.0  0.98634  0.56562  0.43393  1.0000
  H   H2427     1.0  0.54918  0.67405  0.50863  1.0000
  H   H2428     1.0  0.79036  0.70482  0.46948  1.0000
  C   C3057     1.0  0.66247  0.52595  0.84663  1.0000
  C   C3058     1.0  0.75640  0.71775  0.76450  1.0000
  C   C3059     1.0  0.76747  0.75759  0.47715  1.0000
  H   H2429     1.0  0.61329  0.53182  0.80006  1.0000
  C   C3060     1.0  0.69336  0.71349  0.73238  1.0000
  C   C3061     1.0  0.58721  0.75451  0.51369  1.0000
  H   H2430     1.0  0.80139  0.60839  0.84579  1.0000
  C   C3062     1.0  0.60752  0.69114  0.65490  1.0000
  H   H2431     1.0  0.86611  0.76386  0.43229  1.0000
  C   C3063     1.0  0.96075  0.61539  0.55402  1.0000
  H   H2432     1.0  0.76260  0.73471  0.87130  1.0000
  C   C3064     1.0  0.52729  0.75292  0.62930  1.0000
  H   H2433     1.0  0.62669  0.70022  0.58351  1.0000
  H   H2434     1.0  0.90594  0.60166  0.52511  1.0000
  H   H2435     1.0  0.97531  0.56106  0.72895  1.0000
  C   C3065     1.0  0.86453  0.64542  0.77209  1.0000
  S   S395      1.0  0.92048  0.54070  0.62703  1.0000
  C   C3066     1.0  0.94084  0.55846  0.47855  1.0000
  C   C3067     1.0  0.70997  0.70574  0.40398  1.0000
  H   H2436     1.0  0.98646  0.69954  0.81899  1.0000
  H   H2437     1.0  0.77561  0.68461  0.70319  1.0000
  H   H2438     1.0  0.67611  0.66876  0.67080  1.0000
  H   H2439     1.0  0.50477  0.64660  0.58756  1.0000
  H   H2440     1.0  0.77896  0.73561  0.64422  1.0000
  H   H2441     1.0  0.61578  0.56176  0.73422  1.0000
  H   H2442     1.0  0.75671  0.69804  0.62059  1.0000
  H   H2443     1.0  0.50306  0.66545  0.44990  1.0000
  H   H2444     1.0  0.70100  0.58624  0.53697  1.0000
  C   C3068     1.0  0.76645  0.64217  0.58842  1.0000
  H   H2445     1.0  0.63452  0.65118  0.56927  1.0000
  C   C3069     1.0  0.49597  0.67287  0.81810  1.0000
  H   H2446     1.0  0.52738  0.54361  0.43030  1.0000
  H   H2447     1.0  0.90282  0.69500  0.47931  1.0000
  C   C3070     1.0  0.69227  0.53199  0.88608  1.0000
  H   H2448     1.0  0.94344  0.57966  0.41414  1.0000
  C   C3071     1.0  0.88823  0.63743  0.81688  1.0000
  C   C3072     1.0  0.98760  0.72557  0.53965  1.0000
  C   C3073     1.0  0.99183  0.54074  0.75609  1.0000
  C   C3074     1.0  0.71870  0.72978  0.88474  1.0000
  Fe  Fe197     1.0  0.56232  0.61135  0.57175  1.0000
  C   C3075     1.0  0.94099  0.67305  0.43918  1.0000
  C   C3076     1.0  0.69267  0.68377  0.56395  1.0000
  C   C3077     1.0  0.66568  0.66339  0.44625  1.0000
  S   S396      1.0  0.54276  0.59575  0.52289  1.0000
  C   C3078     1.0  0.72498  0.73545  0.83632  1.0000
  C   C3079     1.0  0.65842  0.68838  0.52726  1.0000
  C   C3080     1.0  0.78722  0.62149  0.77779  1.0000
  H   H2449     1.0  0.86591  0.57004  0.53204  1.0000
  H   H2450     1.0  0.52601  0.70357  0.82314  1.0000
  C   C3081     1.0  0.84561  0.69506  0.42776  1.0000
  H   H2451     1.0  0.67793  0.71388  0.67682  1.0000
  C   C3082     1.0  0.74006  0.76031  0.81077  1.0000
  C   C3083     1.0  0.66725  0.68592  0.87448  1.0000
  C   C3084     1.0  0.99085  0.57012  0.58332  1.0000
  C   C3085     1.0  0.76339  0.73330  0.63410  1.0000
  H   H2452     1.0  0.67317  0.60480  0.75544  1.0000
  C   C3086     1.0  0.58604  0.53222  0.56259  1.0000
  C   C3087     1.0  0.52491  0.68328  0.59434  1.0000
  C   C3088     1.0  0.95926  0.69514  0.40744  1.0000
  H   H2453     1.0  0.57121  0.66002  0.81532  1.0000
  H   H2454     1.0  0.66441  0.64656  0.60139  1.0000
  C   C3089     1.0  0.68306  0.72246  0.70370  1.0000
  C   C3090     1.0  0.81661  0.60730  0.56122  1.0000
  C   C3091     1.0  0.61044  0.68764  0.61073  1.0000
  C   C3092     1.0  0.51996  0.55322  0.41176  1.0000
  C   C3093     1.0  0.55160  0.56287  0.86225  1.0000
  H   H2455     1.0  0.60265  0.70192  0.80685  1.0000
  C   C3094     1.0  0.65442  0.59545  0.52523  1.0000
  Fe  Fe198     1.0  0.89807  0.54002  0.58101  1.0000
  C   C3095     1.0  0.51154  0.61462  0.87052  1.0000
  C   C3096     1.0  0.49892  0.64729  0.65882  1.0000
  C   C3097     1.0  0.95214  0.57175  0.43241  1.0000
  H   H2456     1.0  0.57292  0.69664  0.57484  1.0000
  H   H2457     1.0  0.53917  0.55940  0.84263  1.0000
  H   H2458     1.0  0.82931  0.58745  0.52084  1.0000
  H   H2459     1.0  0.66481  0.70200  0.86376  1.0000
  H   H2460     1.0  0.79102  0.72196  0.73185  1.0000
  H   H2461     1.0  0.85783  0.52938  0.45575  1.0000
  C   C3098     1.0  0.54390  0.61109  0.82199  1.0000
  C   C3099     1.0  0.67151  0.59405  0.54457  1.0000
  H   H2462     1.0  0.75226  0.60861  0.44772  1.0000
  H   H2463     1.0  0.51570  0.52166  0.69001  1.0000
  C   C3100     1.0  0.67025  0.55511  0.89400  1.0000
  S   S397      1.0  0.74889  0.57454  0.53142  1.0000
  C   C3101     1.0  0.75307  0.69624  0.87870  1.0000
  C   C3102     1.0  0.64601  0.53164  0.76650  1.0000
  C   C3103     1.0  0.76898  0.62276  0.42343  1.0000
  C   C3104     1.0  0.68718  0.58200  0.47942  1.0000
  H   H2464     1.0  0.80207  0.61281  0.69919  1.0000
  C   C3105     1.0  0.61768  0.64736  0.80965  1.0000
  C   C3106     1.0  0.73180  0.70305  0.77518  1.0000
  C   C3107     1.0  0.83742  0.70961  0.40451  1.0000
  C   C3108     1.0  0.69121  0.66471  0.86867  1.0000
  S   S398      1.0  0.63382  0.60287  0.55633  1.0000
  H   H2465     1.0  0.57592  0.51917  0.50601  1.0000
  C   C3109     1.0  0.59067  0.73615  0.69630  1.0000
  H   H2466     1.0  0.86083  0.58863  0.77343  1.0000
  H   H2467     1.0  0.91042  0.63358  0.71692  1.0000
  C   C3110     1.0  0.85763  0.62218  0.76334  1.0000
  C   C3111     1.0  0.67247  0.63655  0.71673  1.0000
  C   C3112     1.0  0.69882  0.72388  0.76876  1.0000
  C   C3113     1.0  0.79861  0.57377  0.83168  1.0000
  H   H2468     1.0  0.65342  0.67481  0.79964  1.0000
  H   H2469     1.0  0.82275  0.52481  0.52041  1.0000
  H   H2470     1.0  0.88306  0.73017  0.74176  1.0000
  C   C3114     1.0  0.53465  0.75227  0.54920  1.0000
  C   C3115     1.0  0.58100  0.71319  0.54651  1.0000
  H   H2471     1.0  0.90552  0.63316  0.55924  1.0000
  H   H2472     1.0  0.96219  0.67804  0.50553  1.0000
  C   C3116     1.0  0.58369  0.60995  0.75546  1.0000
  H   H2473     1.0  0.67011  0.58015  0.42631  1.0000
  C   C3117     1.0  0.72318  0.68142  0.75970  1.0000
  C   C3118     1.0  0.90881  0.63312  0.68291  1.0000
  C   C3119     1.0  0.62394  0.53419  0.40777  1.0000
  C   C3120     1.0  0.57554  0.72635  0.67026  1.0000
  C   C3121     1.0  0.49848  0.57029  0.64203  1.0000
  C   C3122     1.0  0.80563  0.59336  0.85287  1.0000
  C   C3123     1.0  0.75592  0.75148  0.63461  1.0000
  C   C3124     1.0  0.79305  0.73030  0.84103  1.0000
  C   C3125     1.0  0.86810  0.73024  0.45520  1.0000
  C   C3126     1.0  0.62960  0.55623  0.73199  1.0000
  C   C3127     1.0  0.79834  0.53621  0.55517  1.0000
  S   S399      1.0  0.67484  0.75723  0.43374  1.0000
  C   C3128     1.0  0.77812  0.65362  0.61831  1.0000
  S   S400      1.0  0.58580  0.58236  0.48188  1.0000
  H   H2474     1.0  0.53963  0.60419  0.75658  1.0000
  C   C3129     1.0  0.66946  0.66396  0.57732  1.0000
  C   C3130     1.0  0.75359  0.62945  0.79747  1.0000
  H   H2475     1.0  0.76618  0.71067  0.53442  1.0000
  H   H2476     1.0  0.74856  0.65937  0.87955  1.0000
  H   H2477     1.0  0.91379  0.75321  0.77649  1.0000
  H   H2478     1.0  0.84681  0.61695  0.74087  1.0000
  H   H2479     1.0  0.57073  0.53513  0.57325  1.0000
  H   H2480     1.0  0.89962  0.66318  0.67534  1.0000
  C   C3131     1.0  0.60040  0.63151  0.72035  1.0000
  H   H2481     1.0  0.85778  0.60157  0.62240  1.0000
  C   C3132     1.0  0.55463  0.67412  0.47302  1.0000
  C   C3133     1.0  0.75845  0.61375  0.67558  1.0000
  C   C3134     1.0  0.63537  0.67135  0.80436  1.0000
  C   C3135     1.0  0.87960  0.65300  0.79910  1.0000
  H   H2482     1.0  0.51634  0.55060  0.75690  1.0000
  C   C3136     1.0  0.90622  0.63310  0.59385  1.0000
  H   H2483     1.0  0.81906  0.71928  0.81133  1.0000
  H   H2484     1.0  0.49708  0.53928  0.61625  1.0000
  S   S401      1.0  0.68430  0.75274  0.55525  1.0000
  H   H2485     1.0  0.91799  0.54537  0.86774  1.0000
  C   C3137     1.0  0.91830  0.69491  0.45825  1.0000
  C   C3138     1.0  0.94214  0.69794  0.78858  1.0000
  H   H2486     1.0  0.76350  0.73440  0.77591  1.0000
  C   C3139     1.0  0.81746  0.55531  0.87406  1.0000
  H   H2487     1.0  0.70427  0.66955  0.76779  1.0000
  H   H2488     1.0  0.54199  0.74685  0.52036  1.0000
  H   H2489     1.0  0.50371  0.55498  0.52321  1.0000
  C   C3140     1.0  0.50528  0.66190  0.68913  1.0000
  C   C3141     1.0  0.59985  0.60715  0.66567  1.0000
  C   C3142     1.0  0.73794  0.65301  0.48862  1.0000
  H   H2490     1.0  0.50101  0.60417  0.77021  1.0000
  C   C3143     1.0  0.56773  0.65631  0.68039  1.0000
  C   C3144     1.0  0.97694  0.70875  0.72547  1.0000
  C   C3145     1.0  0.78868  0.53996  0.59664  1.0000
  H   H2491     1.0  0.60555  0.60634  0.63076  1.0000
  C   C3146     1.0  0.52796  0.57860  0.40725  1.0000
  C   C3147     1.0  0.87941  0.54901  0.81174  1.0000
  H   H2492     1.0  0.64107  0.52217  0.52345  1.0000
  C   C3148     1.0  0.49881  0.51754  0.53474  1.0000
  H   H2493     1.0  0.69731  0.75166  0.80341  1.0000
  C   C3149     1.0  0.65408  0.59087  0.48223  1.0000
  C   C3150     1.0  0.69955  0.62081  0.68880  1.0000
  H   H2494     1.0  0.78600  0.53518  0.66869  1.0000
  H   H2495     1.0  0.99238  0.72272  0.69768  1.0000
  C   C3151     1.0  0.99040  0.75309  0.47136  1.0000
  C   C3152     1.0  0.51401  0.51793  0.79933  1.0000
  C   C3153     1.0  0.51243  0.69794  0.80665  1.0000
  H   H2496     1.0  0.68514  0.64622  0.47109  1.0000
  C   C3154     1.0  0.96985  0.65748  0.55639  1.0000
  C   C3155     1.0  0.95238  0.54890  0.50286  1.0000
  H   H2497     1.0  0.88962  0.69176  0.39905  1.0000
  H   H2498     1.0  0.87893  0.56076  0.78256  1.0000
  C   C3156     1.0  0.76336  0.68956  0.72359  1.0000
  C   C3157     1.0  0.66732  0.56032  0.69007  1.0000
  H   H2499     1.0  0.74659  0.64245  0.80029  1.0000
  C   C3158     1.0  0.95055  0.53030  0.78761  1.0000
  C   C3159     1.0  0.85915  0.70290  0.80560  1.0000
  C   C3160     1.0  0.60844  0.63006  0.67590  1.0000
  H   H2500     1.0  0.59652  0.60969  0.88417  1.0000
  C   C3161     1.0  0.68023  0.52071  0.85652  1.0000
  S   S402      1.0  0.89258  0.66886  0.58383  1.0000
  S   S403      1.0  0.73106  0.52093  0.60450  1.0000
  C   C3162     1.0  0.69891  0.70508  0.52965  1.0000
  H   H2501     1.0  0.95962  0.59765  0.56853  1.0000
  S   S404      1.0  0.88769  0.71420  0.66064  1.0000
  C   C3163     1.0  0.95248  0.61825  0.51639  1.0000
  H   H2502     1.0  0.69654  0.69826  0.72625  1.0000
  H   H2503     1.0  0.61292  0.55715  0.44327  1.0000
  H   H2504     1.0  0.60693  0.64979  0.72636  1.0000
  C   C3164     1.0  0.96334  0.71822  0.55673  1.0000
  C   C3165     1.0  0.93700  0.67278  0.79810  1.0000
  C   C3166     1.0  0.62820  0.53903  0.76920  1.0000
  C   C3167     1.0  0.95294  0.64078  0.49810  1.0000
  C   C3168     1.0  0.67711  0.76076  0.88724  1.0000
  H   H2505     1.0  0.73505  0.56739  0.81796  1.0000
  P   P105      1.0  0.81340  0.76325  0.82080  1.0000
  C   C3169     1.0  0.68631  0.66289  0.45083  1.0000
  H   H2506     1.0  0.81008  0.59306  0.59313  1.0000
  C   C3170     1.0  0.97470  0.57516  0.41011  1.0000
  C   C3171     1.0  0.58903  0.52305  0.52431  1.0000
  H   H2507     1.0  0.49788  0.59775  0.67709  1.0000
  S   S405      1.0  0.54026  0.70907  0.45505  1.0000
  H   H2508     1.0  0.79853  0.53872  0.82899  1.0000
  H   H2509     1.0  0.84544  0.56368  0.68374  1.0000
  C   C3172     1.0  0.81169  0.60223  0.69727  1.0000
  C   C3173     1.0  0.68096  0.61932  0.72346  1.0000
  H   H2510     1.0  0.94371  0.53844  0.53850  1.0000
  H   H2511     1.0  0.73018  0.63700  0.47540  1.0000
  H   H2512     1.0  0.70770  0.72537  0.59832  1.0000
  C   C3174     1.0  0.89758  0.73710  0.79786  1.0000
  H   H2513     1.0  0.68660  0.72413  0.48586  1.0000
  C   C3175     1.0  0.51126  0.71541  0.77424  1.0000
  H   H2514     1.0  0.78762  0.62645  0.47351  1.0000
  C   C3176     1.0  0.73821  0.60387  0.81101  1.0000
  Fe  Fe199     1.0  0.87755  0.73870  0.61841  1.0000
  P   P106      1.0  0.55447  0.73003  0.60134  1.0000
  C   C3177     1.0  0.65240  0.66639  0.55909  1.0000
  H   H2515     1.0  0.64514  0.69044  0.51356  1.0000
  S   S406      1.0  0.54882  0.62596  0.62762  1.0000
  S   S407      1.0  0.83720  0.68566  0.78221  1.0000
  C   C3178     1.0  0.66700  0.68544  0.42283  1.0000
  H   H2516     1.0  0.68100  0.53966  0.72608  1.0000
  C   C3179     1.0  0.83189  0.64317  0.47785  1.0000
  S   S408      1.0  0.72736  0.57019  0.66308  1.0000
  C   C3180     1.0  0.49969  0.61038  0.83739  1.0000
  C   C3181     1.0  0.96225  0.71586  0.75292  1.0000
  C   C3182     1.0  0.91429  0.61985  0.45322  1.0000
  H   H2517     1.0  0.95828  0.75482  0.47003  1.0000
  C   C3183     1.0  0.62981  0.69089  0.80422  1.0000
  C   C3184     1.0  0.73588  0.74841  0.62143  1.0000
  H   H2518     1.0  0.62070  0.64701  0.64919  1.0000
  C   C3185     1.0  0.57065  0.65767  0.41570  1.0000
  C   C3186     1.0  0.88022  0.72387  0.77808  1.0000
  Fe  Fe200     1.0  0.55286  0.74369  0.39933  1.0000
  Fe  Fe201     1.0  0.71688  0.55458  0.50889  1.0000
  C   C3187     1.0  0.64896  0.56654  0.69210  1.0000
  S   S409      1.0  0.79763  0.68564  0.60063  1.0000
  H   H2519     1.0  0.67197  0.59791  0.57756  1.0000
  S   S410      1.0  0.91271  0.55508  0.50464  1.0000
  H   H2520     1.0  0.98226  0.67803  0.71079  1.0000
  P   P107      1.0  0.83761  0.66358  0.42344  1.0000
  C   C3188     1.0  0.76005  0.54305  0.79653  1.0000
  P   P108      1.0  0.57274  0.61259  0.81248  1.0000
  C   C3189     1.0  0.60294  0.53809  0.58611  1.0000
  H   H2521     1.0  0.81347  0.55356  0.41049  1.0000
  H   H2522     1.0  0.85027  0.56963  0.46538  1.0000
  C   C3190     1.0  0.57198  0.74214  0.63848  1.0000
  C   C3191     1.0  0.83621  0.57462  0.68759  1.0000
  H   H2523     1.0  0.99180  0.54680  0.64141  1.0000
  C   C3192     1.0  0.73655  0.76381  0.43208  1.0000
  C   C3193     1.0  0.96936  0.63497  0.57417  1.0000
  C   C3194     1.0  0.77806  0.63823  0.78056  1.0000
  C   C3195     1.0  0.77190  0.59572  0.79087  1.0000
  C   C3196     1.0  0.97274  0.54532  0.75455  1.0000
  C   C3197     1.0  0.75096  0.61651  0.60190  1.0000
  C   C3198     1.0  0.86767  0.76391  0.86724  1.0000
  H   H2524     1.0  0.80614  0.63137  0.59279  1.0000
  C   C3199     1.0  0.79391  0.53279  0.63643  1.0000
  C   C3200     1.0  0.52165  0.68720  0.67216  1.0000
  H   H2525     1.0  0.90651  0.65667  0.49060  1.0000
  C   C3201     1.0  0.76173  0.67079  0.46777  1.0000
  C   C3202     1.0  0.68783  0.58728  0.52177  1.0000
  H   H2526     1.0  0.56230  0.56994  0.77055  1.0000
  P   P109      1.0  0.94340  0.64463  0.44762  1.0000
  C   C3203     1.0  0.67061  0.58423  0.45912  1.0000
  H   H2527     1.0  0.97494  0.63242  0.60441  1.0000
  C   C3204     1.0  0.89973  0.60203  0.49538  1.0000
  H   H2528     1.0  0.75245  0.53223  0.87060  1.0000
  H   H2529     1.0  0.98422  0.60263  0.82992  1.0000
  C   C3205     1.0  0.76903  0.72169  0.86444  1.0000
  C   C3206     1.0  0.87222  0.70913  0.87272  1.0000
  H   H2530     1.0  0.82972  0.74247  0.88914  1.0000
  C   C3207     1.0  0.68179  0.70741  0.51169  1.0000
  S   S411      1.0  0.56717  0.57787  0.59192  1.0000
  Fe  Fe202     1.0  0.65197  0.74812  0.60661  1.0000
  C   C3208     1.0  0.91138  0.61594  0.61786  1.0000
  H   H2531     1.0  0.91608  0.57336  0.80348  1.0000
  H   H2532     1.0  0.93050  0.70383  0.80807  1.0000
  C   C3209     1.0  0.50904  0.65792  0.61136  1.0000
  H   H2533     1.0  0.84235  0.61839  0.44734  1.0000
  Fe  Fe203     1.0  0.82996  0.69557  0.62465  1.0000
  H   H2534     1.0  0.70552  0.64252  0.54126  1.0000
  C   C3210     1.0  0.75266  0.53589  0.75896  1.0000
  C   C3211     1.0  0.81417  0.62879  0.56087  1.0000
  H   H2535     1.0  0.84363  0.52086  0.82537  1.0000
  S   S412      1.0  0.53349  0.74633  0.75783  1.0000
  S   S413      1.0  0.91424  0.74617  0.87202  1.0000
  H   H2536     1.0  0.94656  0.64618  0.77305  1.0000
  C   C3212     1.0  0.72344  0.72740  0.60723  1.0000
  H   H2537     1.0  0.64341  0.70956  0.80018  1.0000
  Fe  Fe204     1.0  0.72430  0.55367  0.60299  1.0000
  H   H2538     1.0  0.71687  0.72017  0.51757  1.0000
  C   C3213     1.0  0.96177  0.66048  0.51841  1.0000
  C   C3214     1.0  0.84448  0.73419  0.40679  1.0000
  C   C3215     1.0  0.86002  0.74458  0.43169  1.0000
  C   C3216     1.0  0.88127  0.61403  0.80774  1.0000
  C   C3217     1.0  0.95119  0.66565  0.76876  1.0000
  H   H2539     1.0  0.77959  0.75541  0.49444  1.0000
  Fe  Fe205     1.0  0.60146  0.75671  0.82775  1.0000
  C   C3218     1.0  0.76083  0.67916  0.86818  1.0000
  C   C3219     1.0  0.60293  0.75599  0.47350  1.0000
  C   C3220     1.0  0.89356  0.72971  0.84531  1.0000
  C   C3221     1.0  0.68787  0.68511  0.85207  1.0000
  C   C3222     1.0  0.68483  0.75324  0.74509  1.0000
  C   C3223     1.0  0.65785  0.54358  0.86501  1.0000
  C   C3224     1.0  0.90146  0.54042  0.85968  1.0000
  S   S414      1.0  0.63715  0.75914  0.55288  1.0000
  H   H2540     1.0  0.67112  0.74947  0.68763  1.0000
  H   H2541     1.0  0.76905  0.73282  0.43608  1.0000
  C   C3225     1.0  0.56936  0.58715  0.85626  1.0000
  H   H2542     1.0  0.83926  0.67916  0.87388  1.0000
  C   C3226     1.0  0.85531  0.69549  0.85279  1.0000
  H   H2543     1.0  0.49511  0.52022  0.39880  1.0000
  C   C3227     1.0  0.64868  0.75682  0.84532  1.0000
  H   H2544     1.0  0.61577  0.72288  0.87088  1.0000
  C   C3228     1.0  0.74781  0.52664  0.84080  1.0000
  C   C3229     1.0  0.63287  0.73338  0.87531  1.0000
  H   H2545     1.0  0.93702  0.69070  0.88162  1.0000
  C   C3230     1.0  0.80962  0.52281  0.63429  1.0000
  H   H2546     1.0  0.83882  0.75879  0.73447  1.0000
  H   H2547     1.0  0.64423  0.54790  0.85798  1.0000
  C   C3231     1.0  0.81857  0.59394  0.88388  1.0000
  H   H2548     1.0  0.72980  0.76224  0.62244  1.0000
  H   H2549     1.0  0.82216  0.54067  0.88228  1.0000
  H   H2550     1.0  0.76227  0.53661  0.39621  1.0000
  C   C3232     1.0  0.52125  0.76457  0.54329  1.0000
  C   C3233     1.0  0.88151  0.51767  0.88419  1.0000
  C   C3234     1.0  0.60321  0.76184  0.68932  1.0000
  H   H2551     1.0  0.74470  0.76546  0.77353  1.0000
  S   S415      1.0  0.87215  0.51839  0.71389  1.0000
  H   H2552     1.0  0.95785  0.51925  0.40615  1.0000
  Fe  Fe206     1.0  0.85259  0.51924  0.66279  1.0000
  C   C3235     1.0  0.94042  0.60763  0.89293  1.0000
  C   C3236     1.0  0.82462  0.57503  0.89424  1.0000
  H   H2553     1.0  0.95794  0.60959  0.89043  1.0000
  H   H2554     1.0  0.60325  0.51690  0.67790  1.0000
  H   H2555     1.0  0.72437  0.76621  0.41521  1.0000
  Fe  Fe207     1.0  0.55291  0.71801  0.89429  1.0000
  H   H2556     1.0  0.70534  0.52727  0.89505  1.0000
  S   S416      1.0  0.56441  0.56365  0.06864  1.0000
  H   H2557     1.0  0.72199  0.62298  0.17675  1.0000
  C   C3237     1.0  0.60552  0.54291  0.24845  1.0000
  H   H2558     1.0  0.87547  0.60150  0.39084  1.0000
  H   H2559     1.0  0.89605  0.76613  0.08104  1.0000
  Fe  Fe208     1.0  0.85875  0.67279  0.16806  1.0000
  C   C3238     1.0  0.98838  0.58129  0.99614  1.0000
  H   H2560     1.0  0.63675  0.65531  0.23989  1.0000
  C   C3239     1.0  0.69549  0.61993  0.28779  1.0000
  H   H2561     1.0  0.63949  0.63065  0.95660  1.0000
  S   S417      1.0  0.52831  0.67953  0.94158  1.0000
  H   H2562     1.0  0.54972  0.60287  0.28179  1.0000
  H   H2563     1.0  0.51070  0.71293  0.99853  1.0000
  H   H2564     1.0  0.61809  0.63311  0.18717  1.0000
  H   H2565     1.0  0.90727  0.61130  0.26920  1.0000
  C   C3240     1.0  0.63802  0.70585  0.32499  1.0000
  H   H2566     1.0  0.50400  0.55258  0.90192  1.0000
  H   H2567     1.0  0.51168  0.71927  0.34217  1.0000
  C   C3241     1.0  0.64986  0.66626  0.91176  1.0000
  C   C3242     1.0  0.92655  0.73890  0.29233  1.0000
  S   S418      1.0  0.56336  0.63329  0.19017  1.0000
  C   C3243     1.0  0.66774  0.69029  0.27374  1.0000
  C   C3244     1.0  0.95514  0.66845  0.98220  1.0000
  H   H2568     1.0  0.98594  0.73244  0.21367  1.0000
  H   H2569     1.0  0.50438  0.64082  0.05232  1.0000
  H   H2570     1.0  0.63792  0.51695  0.36171  1.0000
  H   H2571     1.0  0.50591  0.56702  0.20191  1.0000
  C   C3245     1.0  0.55159  0.76379  0.01902  1.0000
  H   H2572     1.0  0.96460  0.52056  0.07350  1.0000
  H   H2573     1.0  0.64798  0.58913  0.29877  1.0000
  C   C3246     1.0  0.87321  0.62591  0.20182  1.0000
  C   C3247     1.0  0.54564  0.62517  0.97695  1.0000
  H   H2574     1.0  0.70720  0.52202  0.23867  1.0000
  H   H2575     1.0  0.69637  0.60468  0.27535  1.0000
  S   S419      1.0  0.93412  0.56151  0.11404  1.0000
  C   C3248     1.0  0.64445  0.55299  0.32588  1.0000
  H   H2576     1.0  0.98220  0.66425  0.28083  1.0000
  S   S420      1.0  0.74340  0.59943  0.04294  1.0000
  C   C3249     1.0  0.53272  0.67851  0.29854  1.0000
  S   S421      1.0  0.80761  0.60392  0.99730  1.0000
  H   H2577     1.0  0.82875  0.67320  0.33565  1.0000
  H   H2578     1.0  0.53832  0.55954  0.27856  1.0000
  C   C3250     1.0  0.91599  0.72164  0.26870  1.0000
  H   H2579     1.0  0.91884  0.68660  0.04539  1.0000
  H   H2580     1.0  0.75088  0.59265  0.13131  1.0000
  C   C3251     1.0  0.50410  0.69122  0.17090  1.0000
  C   C3252     1.0  0.87514  0.64478  0.32490  1.0000
  H   H2581     1.0  0.70589  0.67455  0.15014  1.0000
  H   H2582     1.0  0.54380  0.69855  0.28811  1.0000
  C   C3253     1.0  0.49937  0.57793  0.36752  1.0000
  C   C3254     1.0  0.85100  0.57540  0.02118  1.0000
  H   H2583     1.0  0.64892  0.53151  0.13244  1.0000
  S   S422      1.0  0.89055  0.66935  0.13545  1.0000
  P   P110      1.0  0.55064  0.70983  0.11614  1.0000
  H   H2584     1.0  0.75471  0.62256  0.36638  1.0000
  H   H2585     1.0  0.97267  0.62211  0.19734  1.0000
  S   S423      1.0  0.69467  0.74687  0.05914  1.0000
  H   H2586     1.0  0.49566  0.62505  0.21754  1.0000
  H   H2587     1.0  0.76858  0.69127  0.20018  1.0000
  H   H2588     1.0  0.61954  0.57801  0.03426  1.0000
  C   C3255     1.0  0.87751  0.65129  0.91456  1.0000
  H   H2589     1.0  0.88244  0.56672  0.94914  1.0000
  C   C3256     1.0  0.71717  0.72423  0.17050  1.0000
  H   H2590     1.0  0.96632  0.55117  0.33707  1.0000
  H   H2591     1.0  0.80319  0.51747  0.16583  1.0000
  H   H2592     1.0  0.56196  0.65005  0.03642  1.0000
  C   C3257     1.0  0.81209  0.65927  0.36050  1.0000
  C   C3258     1.0  0.67378  0.64507  0.90592  1.0000
  C   C3259     1.0  0.63931  0.72337  0.91069  1.0000
  C   C3260     1.0  0.88686  0.68136  0.95946  1.0000
  S   S424      1.0  0.86575  0.71225  0.15683  1.0000
  H   H2593     1.0  0.73413  0.68903  0.34340  1.0000
  C   C3261     1.0  0.95249  0.70256  0.11702  1.0000
  C   C3262     1.0  0.81981  0.76633  0.98198  1.0000
  C   C3263     1.0  0.77309  0.54891  0.36222  1.0000
  C   C3264     1.0  0.80536  0.59659  0.11576  1.0000
  C   C3265     1.0  0.94859  0.68269  0.00821  1.0000
  C   C3266     1.0  0.65925  0.58112  0.09209  1.0000
  H   H2594     1.0  0.92122  0.55092  0.36798  1.0000
  Fe  Fe209     1.0  0.66990  0.75838  0.09822  1.0000
  C   C3267     1.0  0.71488  0.70754  0.20987  1.0000
  C   C3268     1.0  0.65331  0.72049  0.28125  1.0000
  P   P111      1.0  0.68660  0.68024  0.24001  1.0000
  H   H2595     1.0  0.56137  0.53156  0.94937  1.0000
  H   H2596     1.0  0.84030  0.57343  0.18019  1.0000
  C   C3269     1.0  0.76900  0.69282  0.32113  1.0000
  C   C3270     1.0  0.63555  0.53309  0.36491  1.0000
  C   C3271     1.0  0.62607  0.69682  0.13766  1.0000
  C   C3272     1.0  0.96278  0.52572  0.92285  1.0000
  C   C3273     1.0  0.71337  0.57050  0.24059  1.0000
  C   C3274     1.0  0.50863  0.53215  0.05270  1.0000
  Fe  Fe210     1.0  0.93331  0.57722  0.04414  1.0000
  S   S425      1.0  0.58719  0.62293  0.96834  1.0000
  H   H2597     1.0  0.67907  0.72427  0.22147  1.0000
  H   H2598     1.0  0.62704  0.70519  0.93368  1.0000
  C   C3275     1.0  0.49419  0.51729  0.09684  1.0000
  C   C3276     1.0  0.67781  0.59161  0.00980  1.0000
  H   H2599     1.0  0.67671  0.62964  0.91879  1.0000
  Fe  Fe211     1.0  0.88081  0.54224  0.06332  1.0000
  C   C3277     1.0  0.63626  0.58116  0.03994  1.0000
  C   C3278     1.0  0.76007  0.72287  0.35255  1.0000
  C   C3279     1.0  0.78441  0.73823  0.34406  1.0000
  C   C3280     1.0  0.75999  0.60556  0.18915  1.0000
  C   C3281     1.0  0.80818  0.66065  0.96899  1.0000
  C   C3282     1.0  0.97666  0.52963  0.13108  1.0000
  C   C3283     1.0  0.49792  0.64347  0.20448  1.0000
  H   H2600     1.0  0.99131  0.64302  0.08597  1.0000
  H   H2601     1.0  0.77743  0.69142  0.94641  1.0000
  H   H2602     1.0  0.92276  0.57105  0.93972  1.0000
  Fe  Fe212     1.0  0.89915  0.56085  0.14084  1.0000
  C   C3284     1.0  0.75219  0.60264  0.23645  1.0000
  C   C3285     1.0  0.58130  0.66107  0.92603  1.0000
  C   C3286     1.0  0.83013  0.60942  0.10204  1.0000
  H   H2603     1.0  0.62977  0.52848  0.07070  1.0000
  H   H2604     1.0  0.83468  0.57556  0.91822  1.0000
  P   P112      1.0  0.87265  0.52449  0.36320  1.0000
  C   C3287     1.0  0.84261  0.60073  0.12493  1.0000
  H   H2605     1.0  0.69650  0.55755  0.92815  1.0000
  C   C3288     1.0  0.69387  0.65966  0.31920  1.0000
  C   C3289     1.0  0.79807  0.59065  0.31260  1.0000
  H   H2606     1.0  0.73329  0.70071  0.25693  1.0000
  C   C3290     1.0  0.56823  0.67387  0.92087  1.0000
  C   C3291     1.0  0.97403  0.65821  0.18665  1.0000
  H   H2607     1.0  0.81816  0.65244  0.95195  1.0000
  C   C3292     1.0  0.73910  0.65524  0.11857  1.0000
  H   H2608     1.0  0.69934  0.64307  0.98575  1.0000
  C   C3293     1.0  0.63747  0.68340  0.34303  1.0000
  C   C3294     1.0  0.89506  0.60293  0.90345  1.0000
  C   C3295     1.0  0.95542  0.53181  0.33955  1.0000
  C   C3296     1.0  0.83029  0.57975  0.16268  1.0000
  C   C3297     1.0  0.78492  0.68242  0.96607  1.0000
  Fe  Fe213     1.0  0.76781  0.58438  0.01440  1.0000
  C   C3298     1.0  0.52301  0.72382  0.01501  1.0000
  H   H2609     1.0  0.51190  0.67826  0.36276  1.0000
  H   H2610     1.0  0.98437  0.71486  0.92321  1.0000
  H   H2611     1.0  0.95649  0.65141  0.18234  1.0000
  C   C3299     1.0  0.50180  0.54010  0.39398  1.0000
  C   C3300     1.0  0.58548  0.52334  0.28227  1.0000
  C   C3301     1.0  0.73866  0.68795  0.02272  1.0000
  C   C3302     1.0  0.65631  0.58819  0.00236  1.0000
  H   H2612     1.0  0.53787  0.66492  0.08267  1.0000
  C   C3303     1.0  0.55698  0.67569  0.07201  1.0000
  H   H2613     1.0  0.95768  0.68822  0.12365  1.0000
  H   H2614     1.0  0.86123  0.76338  0.00417  1.0000
  H   H2615     1.0  0.51971  0.55189  0.04699  1.0000
  C   C3304     1.0  0.79182  0.64921  0.34642  1.0000
  H   H2616     1.0  0.94283  0.63615  0.95620  1.0000
  C   C3305     1.0  0.51976  0.66189  0.17399  1.0000
  C   C3306     1.0  0.96538  0.65552  0.35328  1.0000
  C   C3307     1.0  0.98222  0.67098  0.05945  1.0000
  H   H2617     1.0  0.60022  0.67025  0.90904  1.0000
  H   H2618     1.0  0.79292  0.65551  0.31098  1.0000
  Fe  Fe214     1.0  0.83157  0.69857  0.13986  1.0000
  H   H2619     1.0  0.51333  0.58246  0.26922  1.0000
  C   C3308     1.0  0.89551  0.55654  0.33982  1.0000
  H   H2620     1.0  0.85778  0.58935  0.24818  1.0000
  H   H2621     1.0  0.82358  0.74328  0.14793  1.0000
  S   S426      1.0  0.77096  0.62077  0.26440  1.0000
  P   P113      1.0  0.55878  0.52611  0.30157  1.0000
  H   H2622     1.0  0.92175  0.76283  0.33339  1.0000
  H   H2623     1.0  0.83870  0.74557  0.38769  1.0000
  S   S427      1.0  0.70198  0.55410  0.16714  1.0000
  H   H2624     1.0  0.71159  0.72651  0.30982  1.0000
  Fe  Fe215     1.0  0.91250  0.52441  0.10305  1.0000
  C   C3309     1.0  0.69126  0.63704  0.26094  1.0000
  H   H2625     1.0  0.60483  0.66689  0.11193  1.0000
  C   C3310     1.0  0.52239  0.63819  0.28372  1.0000
  C   C3311     1.0  0.55345  0.56938  0.28995  1.0000
  C   C3312     1.0  0.92052  0.58589  0.92130  1.0000
  Fe  Fe216     1.0  0.68057  0.75341  0.00122  1.0000
  C   C3313     1.0  0.77687  0.74273  0.05302  1.0000
  C   C3314     1.0  0.78894  0.55526  0.27994  1.0000
  S   S428      1.0  0.55468  0.57113  0.17234  1.0000
  C   C3315     1.0  0.99193  0.73277  0.93041  1.0000
  H   H2626     1.0  0.92193  0.68869  0.34763  1.0000
  P   P114      1.0  0.76506  0.69531  0.04067  1.0000
  H   H2627     1.0  0.73124  0.64468  0.09597  1.0000
  H   H2628     1.0  0.68886  0.63455  0.22805  1.0000
  C   C3316     1.0  0.87232  0.60302  0.21867  1.0000
  C   C3317     1.0  0.59272  0.73673  0.19696  1.0000
  C   C3318     1.0  0.81668  0.52273  0.26617  1.0000
  H   H2629     1.0  0.87125  0.63206  0.30332  1.0000
  C   C3319     1.0  0.49671  0.57861  0.26254  1.0000
  H   H2630     1.0  0.81036  0.59403  0.24066  1.0000
  H   H2631     1.0  0.90038  0.53979  0.26511  1.0000
  H   H2632     1.0  0.51997  0.53334  0.98173  1.0000
  C   C3320     1.0  0.99270  0.53033  0.15523  1.0000
  H   H2633     1.0  0.86968  0.75424  0.89714  1.0000
  H   H2634     1.0  0.69540  0.55691  0.26061  1.0000
  C   C3321     1.0  0.80534  0.56734  0.17804  1.0000
  C   C3322     1.0  0.88894  0.59698  0.19443  1.0000
  H   H2635     1.0  0.57346  0.67284  0.34579  1.0000
  C   C3323     1.0  0.53664  0.66403  0.27030  1.0000
  C   C3324     1.0  0.75258  0.70050  0.33955  1.0000
  C   C3325     1.0  0.74295  0.53048  0.23742  1.0000
  C   C3326     1.0  0.84220  0.59200  0.01028  1.0000
  H   H2636     1.0  0.65357  0.55217  0.29298  1.0000
  H   H2637     1.0  0.80626  0.61059  0.30795  1.0000
  C   C3327     1.0  0.95630  0.71486  0.07175  1.0000
  S   S429      1.0  0.52835  0.75789  0.25876  1.0000
  H   H2638     1.0  0.81171  0.73023  0.97244  1.0000
  C   C3328     1.0  0.50357  0.62665  0.32485  1.0000
  C   C3329     1.0  0.83694  0.54992  0.02806  1.0000
  C   C3330     1.0  0.55682  0.75196  0.05415  1.0000
  Fe  Fe217     1.0  0.56509  0.61078  0.14014  1.0000
  C   C3331     1.0  0.68724  0.54908  0.90491  1.0000
  H   H2639     1.0  0.55753  0.70133  0.36641  1.0000
  C   C3332     1.0  0.80028  0.58109  0.27439  1.0000
  C   C3333     1.0  0.49795  0.71450  0.32561  1.0000
  H   H2640     1.0  0.53710  0.60655  0.99938  1.0000
  C   C3334     1.0  0.54415  0.72597  0.07168  1.0000
  C   C3335     1.0  0.57055  0.66728  0.04513  1.0000
  S   S430      1.0  0.70280  0.59889  0.96381  1.0000
  C   C3336     1.0  0.89918  0.74813  0.02787  1.0000
  C   C3337     1.0  0.99022  0.69653  0.04120  1.0000
  S   S431      1.0  0.74720  0.54794  0.06834  1.0000
  C   C3338     1.0  0.89309  0.71581  0.26610  1.0000
  H   H2641     1.0  0.94611  0.62434  0.28367  1.0000
  C   C3339     1.0  0.89117  0.74390  0.31215  1.0000
  C   C3340     1.0  0.93591  0.58845  0.32708  1.0000
  H   H2642     1.0  0.62633  0.71168  0.34460  1.0000
  C   C3341     1.0  0.91005  0.59826  0.29173  1.0000
  S   S432      1.0  0.82964  0.71916  0.07640  1.0000
  C   C3342     1.0  0.69692  0.67560  0.99732  1.0000
  C   C3343     1.0  0.53468  0.74971  0.99950  1.0000
  C   C3344     1.0  0.49991  0.64132  0.35336  1.0000
  C   C3345     1.0  0.56809  0.69791  0.08426  1.0000
  C   C3346     1.0  0.73989  0.75404  0.32869  1.0000
  H   H2643     1.0  0.77990  0.71270  0.11912  1.0000
  C   C3347     1.0  0.89200  0.57375  0.31115  1.0000
  S   S433      1.0  0.84750  0.52873  0.04181  1.0000
  H   H2644     1.0  0.52590  0.62737  0.26157  1.0000
  H   H2645     1.0  0.83853  0.63367  0.35712  1.0000
  C   C3348     1.0  0.50228  0.56782  0.95968  1.0000
  C   C3349     1.0  0.73387  0.64282  0.16438  1.0000
  C   C3350     1.0  0.60634  0.70388  0.03935  1.0000
  H   H2646     1.0  0.97026  0.73340  0.37391  1.0000
  C   C3351     1.0  0.74469  0.65576  0.19367  1.0000
  H   H2647     1.0  0.63410  0.66716  0.92924  1.0000
  C   C3352     1.0  0.90368  0.67651  0.35001  1.0000
  C   C3353     1.0  0.62827  0.70594  0.17641  1.0000
  C   C3354     1.0  0.98813  0.73483  0.97578  1.0000
  C   C3355     1.0  0.70738  0.65998  0.99622  1.0000
  H   H2648     1.0  0.70250  0.72032  0.15632  1.0000
  H   H2649     1.0  0.88111  0.68881  0.98652  1.0000
  C   C3356     1.0  0.75542  0.68071  0.10161  1.0000
  H   H2650     1.0  0.96364  0.53570  0.14325  1.0000
  H   H2651     1.0  0.60713  0.60631  0.33131  1.0000
  H   H2652     1.0  0.87555  0.56805  0.30262  1.0000
  P   P115      1.0  0.73876  0.73257  0.37686  1.0000
  H   H2653     1.0  0.69356  0.67511  0.33171  1.0000
  H   H2654     1.0  0.71461  0.75635  0.24305  1.0000
  H   H2655     1.0  0.69580  0.59153  0.06089  1.0000
  C   C3357     1.0  0.57015  0.63704  0.95531  1.0000
  H   H2656     1.0  0.91302  0.65919  0.29884  1.0000
  H   H2657     1.0  0.51832  0.69187  0.06279  1.0000
  H   H2658     1.0  0.92372  0.70847  0.94108  1.0000
  H   H2659     1.0  0.80027  0.67229  0.90858  1.0000
  H   H2660     1.0  0.59640  0.56293  0.32767  1.0000
  C   C3358     1.0  0.80662  0.52532  0.23096  1.0000
  C   C3359     1.0  0.63764  0.57707  0.08490  1.0000
  C   C3360     1.0  0.84105  0.75051  0.07590  1.0000
  H   H2661     1.0  0.52140  0.57753  0.95230  1.0000
  H   H2662     1.0  0.61350  0.69814  0.24975  1.0000
  H   H2663     1.0  0.86863  0.58231  0.02430  1.0000
  C   C3361     1.0  0.98314  0.64170  0.19495  1.0000
  C   C3362     1.0  0.88087  0.72731  0.28727  1.0000
  S   S434      1.0  0.90025  0.58031  0.07221  1.0000
  C   C3363     1.0  0.66133  0.73713  0.91694  1.0000
  H   H2664     1.0  0.74799  0.54963  0.23791  1.0000
  C   C3364     1.0  0.51457  0.66708  0.34040  1.0000
  C   C3365     1.0  0.81903  0.58310  0.00747  1.0000
  H   H2665     1.0  0.65315  0.73744  0.26621  1.0000
  C   C3366     1.0  0.94787  0.52490  0.30231  1.0000
  C   C3367     1.0  0.88524  0.67833  0.37911  1.0000
  C   C3368     1.0  0.79256  0.67063  0.03715  1.0000
  C   C3369     1.0  0.78435  0.57462  0.35640  1.0000
  C   C3370     1.0  0.65124  0.64109  0.13938  1.0000
  C   C3371     1.0  0.75728  0.75229  0.16775  1.0000
  C   C3372     1.0  0.75963  0.52161  0.23496  1.0000
  C   C3373     1.0  0.85663  0.64609  0.35492  1.0000
  C   C3374     1.0  0.66210  0.76432  0.35617  1.0000
  H   H2666     1.0  0.95356  0.66303  0.34790  1.0000
  H   H2667     1.0  0.60179  0.73000  0.07411  1.0000
  C   C3375     1.0  0.53244  0.63773  0.97067  1.0000
  S   S435      1.0  0.69973  0.54540  0.04708  1.0000
  C   C3376     1.0  0.91083  0.69236  0.93398  1.0000
  H   H2668     1.0  0.83961  0.62586  0.07313  1.0000
  H   H2669     1.0  0.79575  0.60299  0.09706  1.0000
  C   C3377     1.0  0.75550  0.73540  0.20582  1.0000
  H   H2670     1.0  0.80576  0.70182  0.30052  1.0000
  H   H2671     1.0  0.74153  0.64602  0.22859  1.0000
  H   H2672     1.0  0.62544  0.71482  0.02618  1.0000
  H   H2673     1.0  0.53533  0.52420  0.89938  1.0000
  C   C3378     1.0  0.72735  0.74856  0.90680  1.0000
  C   C3379     1.0  0.65300  0.64573  0.92734  1.0000
  C   C3380     1.0  0.91772  0.56403  0.34733  1.0000
  C   C3381     1.0  0.67282  0.66676  0.19883  1.0000
  H   H2674     1.0  0.85177  0.65194  0.97027  1.0000
  H   H2675     1.0  0.68073  0.67085  0.98794  1.0000
  C   C3382     1.0  0.98704  0.53320  0.91179  1.0000
  C   C3383     1.0  0.93775  0.64743  0.97513  1.0000
  C   C3384     1.0  0.70715  0.69729  0.01122  1.0000
  C   C3385     1.0  0.51779  0.59101  0.38515  1.0000
  S   S436      1.0  0.52779  0.75782  0.38561  1.0000
  S   S437      1.0  0.96420  0.60782  0.98642  1.0000
  H   H2676     1.0  0.68952  0.72381  0.38598  1.0000
  C   C3386     1.0  0.76614  0.69353  0.13144  1.0000
  C   C3387     1.0  0.94782  0.73216  0.06420  1.0000
  H   H2677     1.0  0.69997  0.64392  0.37961  1.0000
  C   C3388     1.0  0.61197  0.69130  0.21963  1.0000
  H   H2678     1.0  0.86431  0.63536  0.90765  1.0000
  C   C3389     1.0  0.64797  0.65487  0.20905  1.0000
  H   H2679     1.0  0.98311  0.58545  0.37465  1.0000
  H   H2680     1.0  0.97548  0.69579  0.38837  1.0000
  H   H2681     1.0  0.73537  0.65312  0.00915  1.0000
  H   H2682     1.0  0.97683  0.57299  0.03125  1.0000
  C   C3390     1.0  0.60689  0.67363  0.14197  1.0000
  S   S438      1.0  0.57117  0.75036  0.32493  1.0000
  C   C3391     1.0  0.62562  0.54018  0.23108  1.0000
  C   C3392     1.0  0.58617  0.57150  0.31741  1.0000
  H   H2683     1.0  0.92277  0.65053  0.10940  1.0000
  C   C3393     1.0  0.83512  0.75740  0.11610  1.0000
  C   C3394     1.0  0.97718  0.52089  0.09165  1.0000
  C   C3395     1.0  0.67927  0.58849  0.05469  1.0000
  H   H2684     1.0  0.52431  0.61071  0.38219  1.0000
  C   C3396     1.0  0.56270  0.74892  0.15826  1.0000
  H   H2685     1.0  0.58369  0.62604  0.30853  1.0000
  C   C3397     1.0  0.58094  0.57120  0.91869  1.0000
  C   C3398     1.0  0.59231  0.59595  0.31945  1.0000
  S   S439      1.0  0.59766  0.61702  0.08730  1.0000
  C   C3399     1.0  0.98564  0.59861  0.96640  1.0000
  C   C3400     1.0  0.56851  0.67339  0.38125  1.0000
  H   H2686     1.0  0.98001  0.69574  0.17771  1.0000
  C   C3401     1.0  0.65184  0.67533  0.31735  1.0000
  H   H2687     1.0  0.65483  0.59007  0.96796  1.0000
  S   S440      1.0  0.54190  0.60088  0.09434  1.0000
  H   H2688     1.0  0.60540  0.56006  0.23435  1.0000
  C   C3402     1.0  0.67596  0.65295  0.12889  1.0000
  Fe  Fe218     1.0  0.58583  0.57667  0.11627  1.0000
  C   C3403     1.0  0.98752  0.68344  0.18384  1.0000
  S   S441      1.0  0.80992  0.69045  0.21236  1.0000
  H   H2689     1.0  0.59153  0.57468  0.94215  1.0000
  C   C3404     1.0  0.84292  0.52132  0.37781  1.0000
  C   C3405     1.0  0.98176  0.65639  0.31490  1.0000
  C   C3406     1.0  0.83914  0.54131  0.38654  1.0000
  C   C3407     1.0  0.62589  0.51789  0.24708  1.0000
  C   C3408     1.0  0.89867  0.65998  0.32247  1.0000
  H   H2690     1.0  0.66057  0.57841  0.12661  1.0000
  H   H2691     1.0  0.55011  0.75313  0.14595  1.0000
  H   H2692     1.0  0.93712  0.69762  0.18904  1.0000
  H   H2693     1.0  0.73541  0.72052  0.03415  1.0000
  C   C3409     1.0  0.90884  0.63744  0.14008  1.0000
  S   S442      1.0  0.66895  0.72482  0.96209  1.0000
  C   C3410     1.0  0.50881  0.52162  0.01567  1.0000
  C   C3411     1.0  0.80087  0.73062  0.32539  1.0000
  C   C3412     1.0  0.93642  0.73757  0.10150  1.0000
  C   C3413     1.0  0.54395  0.66247  0.94403  1.0000
  H   H2694     1.0  0.94954  0.74107  0.02967  1.0000
  S   S443      1.0  0.91387  0.53994  0.03118  1.0000
  H   H2695     1.0  0.81567  0.53185  0.29338  1.0000
  C   C3414     1.0  0.56669  0.55796  0.30274  1.0000
  S   S444      1.0  0.95614  0.74877  0.29080  1.0000
  S   S445      1.0  0.96172  0.54695  0.24872  1.0000
  C   C3415     1.0  0.87028  0.66065  0.95011  1.0000
  C   C3416     1.0  0.91391  0.74963  0.31476  1.0000
  C   C3417     1.0  0.89111  0.64274  0.16173  1.0000
  H   H2696     1.0  0.88517  0.70290  0.24689  1.0000
  C   C3418     1.0  0.69068  0.65726  0.27611  1.0000
  C   C3419     1.0  0.56393  0.54700  0.92290  1.0000
  C   C3420     1.0  0.73436  0.71317  0.22697  1.0000
  H   H2697     1.0  0.77039  0.73986  0.21949  1.0000
  C   C3421     1.0  0.68674  0.66580  0.15838  1.0000
  C   C3422     1.0  0.81419  0.54109  0.02305  1.0000
  H   H2698     1.0  0.86855  0.70398  0.90956  1.0000
  Fe  Fe219     1.0  0.57382  0.60374  0.04365  1.0000
  S   S446      1.0  0.49638  0.53072  0.14295  1.0000
  H   H2699     1.0  0.73952  0.75979  0.12050  1.0000
  S   S447      1.0  0.88491  0.56682  0.20798  1.0000
  S   S448      1.0  0.82593  0.65967  0.14592  1.0000
  C   C3423     1.0  0.78172  0.68143  0.01288  1.0000
  H   H2700     1.0  0.86185  0.61035  0.11373  1.0000
  H   H2701     1.0  0.77792  0.61916  0.16913  1.0000
  C   C3424     1.0  0.58969  0.65995  0.18473  1.0000
  C   C3425     1.0  0.58105  0.72253  0.16992  1.0000
  S   S449      1.0  0.87779  0.52311  0.13347  1.0000
  S   S450      1.0  0.64982  0.73635  0.17129  1.0000
  C   C3426     1.0  0.76028  0.68120  0.17750  1.0000
  Fe  Fe220     1.0  0.72120  0.56154  0.09268  1.0000
  H   H2702     1.0  0.57103  0.76312  0.06663  1.0000
  C   C3427     1.0  0.57910  0.60716  0.30659  1.0000
  C   C3428     1.0  0.58999  0.75737  0.20346  1.0000
  Fe  Fe221     1.0  0.80644  0.65219  0.22017  1.0000
  C   C3429     1.0  0.91375  0.64012  0.99461  1.0000
  H   H2703     1.0  0.58343  0.70657  0.16523  1.0000
  H   H2704     1.0  0.90607  0.73485  0.96871  1.0000
  H   H2705     1.0  0.64289  0.63100  0.11664  1.0000
  H   H2706     1.0  0.60391  0.73182  0.21310  1.0000
  C   C3430     1.0  0.89784  0.58354  0.92665  1.0000
  C   C3431     1.0  0.80561  0.66013  0.01527  1.0000
  C   C3432     1.0  0.59520  0.68124  0.02892  1.0000
  H   H2707     1.0  0.53429  0.65754  0.16511  1.0000
  C   C3433     1.0  0.93277  0.72535  0.14637  1.0000
  C   C3434     1.0  0.92444  0.67578  0.02601  1.0000
  H   H2708     1.0  0.50641  0.70981  0.15906  1.0000
  C   C3435     1.0  0.72799  0.66592  0.00928  1.0000
  H   H2709     1.0  0.92311  0.72904  0.17487  1.0000
  P   P116      1.0  0.97068  0.70738  0.02386  1.0000
  C   C3436     1.0  0.74459  0.59065  0.16767  1.0000
  H   H2710     1.0  0.76316  0.67541  0.31153  1.0000
  H   H2711     1.0  0.51351  0.62853  0.98720  1.0000
  H   H2712     1.0  0.62892  0.59204  0.37482  1.0000
  H   H2713     1.0  0.55073  0.67283  0.23785  1.0000
  H   H2714     1.0  0.78781  0.55075  0.00843  1.0000
  H   H2715     1.0  0.63872  0.70790  0.10419  1.0000
  H   H2716     1.0  0.64088  0.55528  0.20456  1.0000
  S   S451      1.0  0.85354  0.72267  0.28038  1.0000
  H   H2717     1.0  0.79124  0.67046  0.07281  1.0000
  C   C3437     1.0  0.79297  0.57556  0.15343  1.0000
  H   H2718     1.0  0.49530  0.57948  0.02130  1.0000
  C   C3438     1.0  0.72891  0.58501  0.26220  1.0000
  C   C3439     1.0  0.80523  0.55765  0.01285  1.0000
  H   H2719     1.0  0.85312  0.61164  0.00553  1.0000
  H   H2720     1.0  0.50394  0.61821  0.90174  1.0000
  H   H2721     1.0  0.56968  0.51949  0.20779  1.0000
  H   H2722     1.0  0.76037  0.73386  0.08074  1.0000
  H   H2723     1.0  0.85944  0.62995  0.21837  1.0000
  C   C3440     1.0  0.66808  0.71281  0.25575  1.0000
  H   H2724     1.0  0.69867  0.70908  0.01273  1.0000
  C   C3441     1.0  0.77029  0.63079  0.37770  1.0000
  C   C3442     1.0  0.79308  0.70777  0.31462  1.0000
  S   S452      1.0  0.83901  0.66167  0.24301  1.0000
  H   H2725     1.0  0.77388  0.56611  0.16299  1.0000
  C   C3443     1.0  0.64168  0.57402  0.32925  1.0000
  H   H2726     1.0  0.62566  0.67216  0.37694  1.0000
  C   C3444     1.0  0.91293  0.74955  0.98528  1.0000
  H   H2727     1.0  0.92568  0.71315  0.25186  1.0000
  H   H2728     1.0  0.72290  0.58266  0.29890  1.0000
  S   S453      1.0  0.74941  0.57109  0.96241  1.0000
  C   C3445     1.0  0.93199  0.60558  0.29967  1.0000
  C   C3446     1.0  0.72461  0.74584  0.30190  1.0000
  P   P117      1.0  0.79004  0.54248  0.23084  1.0000
  C   C3447     1.0  0.63061  0.57550  0.37189  1.0000
  H   H2729     1.0  0.97191  0.75846  0.17439  1.0000
  Fe  Fe222     1.0  0.72772  0.53523  0.01773  1.0000
  C   C3448     1.0  0.69870  0.62248  0.33043  1.0000
  C   C3449     1.0  0.56625  0.72880  0.14967  1.0000
  C   C3450     1.0  0.86154  0.66324  0.38175  1.0000
  H   H2730     1.0  0.70209  0.60922  0.35107  1.0000
  C   C3451     1.0  0.59263  0.66853  0.22368  1.0000
  C   C3452     1.0  0.80545  0.74062  0.99184  1.0000
  H   H2731     1.0  0.60564  0.67458  0.00808  1.0000
  H   H2732     1.0  0.57955  0.65793  0.25694  1.0000
  C   C3453     1.0  0.52276  0.68571  0.15586  1.0000
  Fe  Fe223     1.0  0.72295  0.58264  0.99591  1.0000
  H   H2733     1.0  0.81375  0.65160  0.03420  1.0000
  S   S454      1.0  0.61231  0.56536  0.13254  1.0000
  C   C3454     1.0  0.90709  0.65413  0.02054  1.0000
  Fe  Fe224     1.0  0.53392  0.56161  0.12247  1.0000
  H   H2734     1.0  0.96426  0.65727  0.06328  1.0000
  C   C3455     1.0  0.69762  0.64217  0.34635  1.0000
  H   H2735     1.0  0.56253  0.53238  0.39339  1.0000
  C   C3456     1.0  0.94078  0.70781  0.15422  1.0000
  C   C3457     1.0  0.79793  0.67183  0.94444  1.0000
  H   H2736     1.0  0.95319  0.59391  0.33205  1.0000
  H   H2737     1.0  0.68670  0.65196  0.09806  1.0000
  C   C3458     1.0  0.59287  0.71225  0.06687  1.0000
  C   C3459     1.0  0.55977  0.59393  0.29174  1.0000
  S   S455      1.0  0.58453  0.74911  0.90341  1.0000
  H   H2738     1.0  0.92965  0.75061  0.09597  1.0000
  H   H2739     1.0  0.78655  0.75085  0.91885  1.0000
  S   S456      1.0  0.65397  0.76252  0.04197  1.0000
  H   H2740     1.0  0.88204  0.75323  0.32778  1.0000
  H   H2741     1.0  0.97361  0.67292  0.96908  1.0000
  H   H2742     1.0  0.79071  0.75611  0.35175  1.0000
  C   C3460     1.0  0.72125  0.57318  0.19334  1.0000
  C   C3461     1.0  0.63727  0.64216  0.17930  1.0000
  C   C3462     1.0  0.77558  0.53924  0.32422  1.0000
  C   C3463     1.0  0.72800  0.70359  0.02356  1.0000
  H   H2743     1.0  0.65019  0.65732  0.33157  1.0000
  Fe  Fe225     1.0  0.84371  0.70039  0.23016  1.0000
  H   H2744     1.0  0.88848  0.64836  0.03629  1.0000
  H   H2745     1.0  0.90034  0.62352  0.98986  1.0000
  H   H2746     1.0  0.72193  0.74421  0.94400  1.0000
  C   C3464     1.0  0.90762  0.61442  0.15615  1.0000
  H   H2747     1.0  0.87738  0.60098  0.90863  1.0000
  C   C3465     1.0  0.78370  0.72861  0.02725  1.0000
  H   H2748     1.0  0.92063  0.60980  0.13788  1.0000
  H   H2749     1.0  0.88170  0.73229  0.04432  1.0000
  C   C3466     1.0  0.52747  0.71198  0.05135  1.0000
  H   H2750     1.0  0.78218  0.58217  0.38569  1.0000
  C   C3467     1.0  0.73813  0.74667  0.15007  1.0000
  C   C3468     1.0  0.50198  0.72969  0.28302  1.0000
  H   H2751     1.0  0.91555  0.63324  0.38321  1.0000
  H   H2752     1.0  0.53098  0.75877  0.97159  1.0000
  H   H2753     1.0  0.73472  0.68980  0.89790  1.0000
  H   H2754     1.0  0.66625  0.74977  0.34878  1.0000
  C   C3469     1.0  0.57521  0.76364  0.18371  1.0000
  H   H2755     1.0  0.95565  0.53192  0.89777  1.0000
  H   H2756     1.0  0.80338  0.52141  0.02768  1.0000
  C   C3470     1.0  0.98775  0.75796  0.15601  1.0000
  C   C3471     1.0  0.89023  0.51972  0.27615  1.0000
  H   H2757     1.0  0.70667  0.71110  0.90608  1.0000
  C   C3472     1.0  0.91826  0.68246  0.89964  1.0000
  H   H2758     1.0  0.82608  0.70246  0.38360  1.0000
  C   C3473     1.0  0.72637  0.76264  0.26372  1.0000
  H   H2759     1.0  0.99233  0.53722  0.18557  1.0000
  H   H2760     1.0  0.85387  0.55924  0.38217  1.0000
  H   H2761     1.0  0.81972  0.74261  0.31869  1.0000
  C   C3474     1.0  0.55964  0.68968  0.39286  1.0000
  H   H2762     1.0  0.76696  0.51930  0.32911  1.0000
  H   H2763     1.0  0.82391  0.60917  0.89986  1.0000
  H   H2764     1.0  0.57702  0.69283  0.89999  1.0000
  H   H2765     1.0  0.66647  0.56842  0.90886  1.0000
  S   S457      1.0  0.87802  0.90007  0.67317  1.0000
  C   C3475     1.0  0.63961  0.83567  0.86976  1.0000
  C   C3476     1.0  0.95482  0.85196  0.60490  1.0000
  H   H2766     1.0  0.95254  0.99865  0.75762  1.0000
  P   P118      1.0  0.96091  0.95650  0.74492  1.0000
  C   C3477     1.0  0.67544  0.91549  0.75177  1.0000
  C   C3478     1.0  0.62311  0.89525  0.54362  1.0000
  C   C3479     1.0  0.59893  0.88882  0.55293  1.0000
  C   C3480     1.0  0.76835  0.87732  0.61513  1.0000
  H   H2767     1.0  0.57423  0.90400  0.55643  1.0000
  H   H2768     1.0  0.65418  0.86958  0.63167  1.0000
  H   H2769     1.0  0.82441  0.81552  0.80249  1.0000
  C   C3481     1.0  0.52755  0.93772  0.60436  1.0000
  C   C3482     1.0  0.84217  0.87526  0.40965  1.0000
  H   H2770     1.0  0.57454  0.97398  0.65085  1.0000
  H   H2771     1.0  0.76551  0.76793  0.64529  1.0000
  C   C3483     1.0  0.57434  0.98931  0.66371  1.0000
  C   C3484     1.0  0.73105  0.99499  0.74054  1.0000
  C   C3485     1.0  0.84052  0.86492  0.48953  1.0000
  C   C3486     1.0  0.96072  0.94350  0.80164  1.0000
  C   C3487     1.0  0.71236  0.87907  0.53939  1.0000
  C   C3488     1.0  0.91192  0.90810  0.40331  1.0000
  C   C3489     1.0  0.90468  0.96084  0.71287  1.0000
  H   H2772     1.0  0.65881  0.92457  0.52880  1.0000
  C   C3490     1.0  0.98934  0.93627  0.70835  1.0000
  S   S458      1.0  0.86657  0.86253  0.80188  1.0000
  Fe  Fe226     1.0  0.65779  0.79781  0.55854  1.0000
  C   C3491     1.0  0.76952  0.94583  0.64309  1.0000
  C   C3492     1.0  0.77481  0.88139  0.56735  1.0000
  C   C3493     1.0  0.55317  0.90949  0.74537  1.0000
  C   C3494     1.0  0.71391  0.86746  0.76180  1.0000
  H   H2773     1.0  0.82709  0.93498  0.53934  1.0000
  C   C3495     1.0  0.97500  0.93327  0.62932  1.0000
  H   H2774     1.0  0.96880  0.93110  0.59966  1.0000
  H   H2775     1.0  0.76354  0.86783  0.55274  1.0000
  H   H2776     1.0  0.79822  0.83570  0.63644  1.0000
  C   C3496     1.0  0.51718  0.99365  0.63011  1.0000
  C   C3497     1.0  0.92765  0.96536  0.71206  1.0000
  P   P119      1.0  0.80575  0.90653  0.47799  1.0000
  C   C3498     1.0  0.88845  0.92641  0.78065  1.0000
  C   C3499     1.0  0.80809  0.82066  0.86537  1.0000
  H   H2777     1.0  0.93301  0.83493  0.67562  1.0000
  H   H2778     1.0  0.66785  0.87079  0.82603  1.0000
  H   H2779     1.0  0.84060  0.88534  0.88485  1.0000
  H   H2780     1.0  0.65608  0.83004  0.63852  1.0000
  C   C3500     1.0  0.74815  0.85450  0.81389  1.0000
  H   H2781     1.0  0.61875  0.90222  0.63774  1.0000
  H   H2782     1.0  0.53174  0.90161  0.42434  1.0000
  C   C3501     1.0  0.56532  0.86429  0.71749  1.0000
  S   S459      1.0  0.73989  0.92862  0.49823  1.0000
  C   C3502     1.0  0.66552  0.77235  0.39542  1.0000
  Fe  Fe227     1.0  0.96993  0.83452  0.76938  1.0000
  C   C3503     1.0  0.81386  0.91863  0.82601  1.0000
  C   C3504     1.0  0.59026  0.82655  0.67463  1.0000
  H   H2783     1.0  0.58336  0.78061  0.60522  1.0000
  C   C3505     1.0  0.72130  0.89981  0.82679  1.0000
  C   C3506     1.0  0.67206  0.85521  0.53766  1.0000
  C   C3507     1.0  0.78055  0.89179  0.45736  1.0000
  C   C3508     1.0  0.57388  0.83727  0.61584  1.0000
  H   H2784     1.0  0.91534  0.92542  0.58067  1.0000
  C   C3509     1.0  0.93055  0.94355  0.57320  1.0000
  H   H2785     1.0  0.62500  0.92225  0.45236  1.0000
  H   H2786     1.0  0.67413  0.97418  0.58252  1.0000
  C   C3510     1.0  0.93293  0.88087  0.72811  1.0000
  C   C3511     1.0  0.90159  0.85123  0.81481  1.0000
  H   H2787     1.0  0.53153  0.94767  0.73528  1.0000
  H   H2788     1.0  0.91916  0.85737  0.43561  1.0000
  H   H2789     1.0  0.81513  0.84047  0.85111  1.0000
  H   H2790     1.0  0.75257  0.86066  0.63651  1.0000
  C   C3512     1.0  0.51339  0.93937  0.73414  1.0000
  C   C3513     1.0  0.74979  0.85383  0.45014  1.0000
  C   C3514     1.0  0.96411  0.79866  0.52989  1.0000
  C   C3515     1.0  0.63339  0.93851  0.53716  1.0000
  H   H2791     1.0  0.61838  0.83152  0.40773  1.0000
  H   H2792     1.0  0.71078  0.86216  0.63880  1.0000
  H   H2793     1.0  0.73445  0.78792  0.47497  1.0000
  H   H2794     1.0  0.81502  0.92792  0.62341  1.0000
  C   C3516     1.0  0.72556  0.99581  0.66502  1.0000
  H   H2795     1.0  0.84411  0.85516  0.51679  1.0000
  C   C3517     1.0  0.64021  0.91989  0.53618  1.0000
  H   H2796     1.0  0.82377  0.87986  0.53482  1.0000
  S   S460      1.0  0.95819  0.79763  0.75285  1.0000
  C   C3518     1.0  0.57312  0.92831  0.66364  1.0000
  C   C3519     1.0  0.88976  0.95982  0.53099  1.0000
  S   S461      1.0  0.64044  0.76920  0.80128  1.0000
  C   C3520     1.0  0.75775  0.77312  0.48825  1.0000
  C   C3521     1.0  0.88368  0.80585  0.62529  1.0000
  H   H2797     1.0  0.78896  0.78599  0.77674  1.0000
  H   H2798     1.0  0.60894  0.00096  0.67275  1.0000
  C   C3522     1.0  0.80462  0.78083  0.85580  1.0000
  H   H2799     1.0  0.61041  0.95394  0.64438  1.0000
  H   H2800     1.0  0.55968  0.84464  0.78606  1.0000
  H   H2801     1.0  0.50084  0.91108  0.79740  1.0000
  H   H2802     1.0  0.68153  0.76868  0.74986  1.0000
  C   C3523     1.0  0.77961  0.82783  0.63916  1.0000
  H   H2803     1.0  0.51139  0.92489  0.63164  1.0000
  C   C3524     1.0  0.74443  0.91866  0.80219  1.0000
  H   H2804     1.0  0.54496  0.87042  0.61778  1.0000
  H   H2805     1.0  0.53040  0.79111  0.70891  1.0000
  C   C3525     1.0  0.65364  0.83685  0.66858  1.0000
  C   C3526     1.0  0.77298  0.98929  0.59161  1.0000
  C   C3527     1.0  0.81316  0.80640  0.83767  1.0000
  C   C3528     1.0  0.70348  0.94039  0.58985  1.0000
  C   C3529     1.0  0.50028  0.99675  0.66170  1.0000
  H   H2806     1.0  0.69092  0.90582  0.63913  1.0000
  H   H2807     1.0  0.66786  0.93583  0.41742  1.0000
  C   C3530     1.0  0.95673  0.90885  0.85832  1.0000
  C   C3531     1.0  0.59697  0.86679  0.74882  1.0000
  S   S462      1.0  0.50385  0.96094  0.41051  1.0000
  H   H2808     1.0  0.85583  0.85180  0.43715  1.0000
  C   C3532     1.0  0.51771  0.84016  0.42669  1.0000
  H   H2809     1.0  0.89644  0.80661  0.51211  1.0000
  C   C3533     1.0  0.60628  0.89015  0.67066  1.0000
  C   C3534     1.0  0.51830  0.00491  0.43437  1.0000
  C   C3535     1.0  0.60949  0.93248  0.54518  1.0000
  C   C3536     1.0  0.84257  0.76986  0.82393  1.0000
  C   C3537     1.0  0.64588  0.85332  0.74712  1.0000
  H   H2810     1.0  0.89005  0.94845  0.50752  1.0000
  H   H2811     1.0  0.78565  0.82904  0.56728  1.0000
  C   C3538     1.0  0.59447  0.94179  0.67263  1.0000
  C   C3539     1.0  0.89502  0.86510  0.78574  1.0000
  H   H2812     1.0  0.74156  0.83382  0.45619  1.0000
  H   H2813     1.0  0.94953  0.78209  0.52775  1.0000
  C   C3540     1.0  0.91100  0.88042  0.74296  1.0000
  H   H2814     1.0  0.77019  0.95715  0.78951  1.0000
  C   C3541     1.0  0.55109  0.81899  0.64410  1.0000
  C   C3542     1.0  0.66281  0.00121  0.41502  1.0000
  H   H2815     1.0  0.56336  0.93732  0.50690  1.0000
  C   C3543     1.0  0.74221  0.77612  0.46590  1.0000
  H   H2816     1.0  0.95330  0.93638  0.52248  1.0000
  H   H2817     1.0  0.94467  0.89179  0.69423  1.0000
  C   C3544     1.0  0.82226  0.93969  0.45173  1.0000
  C   C3545     1.0  0.53504  0.83705  0.53863  1.0000
  Fe  Fe228     1.0  0.49811  0.85829  0.73817  1.0000
  H   H2818     1.0  0.65178  0.99952  0.56652  1.0000
  C   C3546     1.0  0.70650  0.90513  0.85863  1.0000
  C   C3547     1.0  0.56974  0.96931  0.53364  1.0000
  C   C3548     1.0  0.59394  0.00469  0.67588  1.0000
  H   H2819     1.0  0.65870  0.88280  0.39513  1.0000
  C   C3549     1.0  0.84710  0.86299  0.44466  1.0000
  H   H2820     1.0  0.64462  0.81980  0.78363  1.0000
  H   H2821     1.0  0.90529  0.78750  0.83615  1.0000
  H   H2822     1.0  0.77569  0.84378  0.89074  1.0000
  H   H2823     1.0  0.90926  0.85713  0.67080  1.0000
  C   C3550     1.0  0.77002  0.86595  0.46333  1.0000
  Fe  Fe229     1.0  0.85517  0.87140  0.74056  1.0000
  C   C3551     1.0  0.68158  0.84728  0.85360  1.0000
  S   S463      1.0  0.85516  0.94905  0.66354  1.0000
  H   H2824     1.0  0.73252  0.99937  0.62809  1.0000
  S   S464      1.0  0.74032  0.81008  0.55318  1.0000
  S   S465      1.0  0.54732  0.81966  0.42265  1.0000
  C   C3552     1.0  0.52524  0.00696  0.58372  1.0000
  H   H2825     1.0  0.67290  0.97520  0.74700  1.0000
  H   H2826     1.0  0.87075  0.81578  0.42431  1.0000
  H   H2827     1.0  0.52996  0.86413  0.87351  1.0000
  C   C3553     1.0  0.94643  0.86414  0.46846  1.0000
  S   S466      1.0  0.56918  0.97897  0.41974  1.0000
  S   S467      1.0  0.52729  0.89309  0.68609  1.0000
  C   C3554     1.0  0.76359  0.84828  0.87712  1.0000
  H   H2828     1.0  0.77361  0.00561  0.57125  1.0000
  C   C3555     1.0  0.92895  0.87813  0.60044  1.0000
  C   C3556     1.0  0.98326  0.84338  0.52020  1.0000
  C   C3557     1.0  0.69157  0.85640  0.55135  1.0000
  H   H2829     1.0  0.98112  0.77899  0.55671  1.0000
  H   H2830     1.0  0.58408  0.77023  0.51634  1.0000
  S   S468      1.0  0.83764  0.84145  0.70737  1.0000
  H   H2831     1.0  0.64673  0.95767  0.53041  1.0000
  C   C3558     1.0  0.91137  0.93081  0.77998  1.0000
  H   H2832     1.0  0.76890  0.96215  0.69996  1.0000
  H   H2833     1.0  0.86332  0.92888  0.58693  1.0000
  H   H2834     1.0  0.96421  0.84119  0.60750  1.0000
  C   C3559     1.0  0.64253  0.92156  0.81635  1.0000
  H   H2835     1.0  0.86135  0.79995  0.76095  1.0000
  C   C3560     1.0  0.77028  0.94844  0.59686  1.0000
  C   C3561     1.0  0.60060  0.77776  0.65625  1.0000
  C   C3562     1.0  0.98023  0.98956  0.72853  1.0000
  C   C3563     1.0  0.84992  0.95149  0.85529  1.0000
  S   S469      1.0  0.57915  0.78032  0.40443  1.0000
  H   H2836     1.0  0.91180  0.95618  0.62029  1.0000
  C   C3564     1.0  0.96475  0.82172  0.51689  1.0000
  H   H2837     1.0  0.72545  0.80497  0.71799  1.0000
  C   C3565     1.0  0.76392  0.84879  0.83151  1.0000
  C   C3566     1.0  0.79811  0.78621  0.70589  1.0000
  C   C3567     1.0  0.59236  0.90784  0.55234  1.0000
  H   H2838     1.0  0.75647  0.91466  0.77884  1.0000
  C   C3568     1.0  0.89085  0.79939  0.58526  1.0000
  H   H2839     1.0  0.83421  0.00719  0.73086  1.0000
  H   H2840     1.0  0.72417  0.90642  0.73464  1.0000
  H   H2841     1.0  0.52320  0.88563  0.50777  1.0000
  C   C3569     1.0  0.54799  0.80509  0.68727  1.0000
  S   S470      1.0  0.76203  0.99685  0.44906  1.0000
  C   C3570     1.0  0.66090  0.93938  0.63371  1.0000
  H   H2842     1.0  0.88419  0.79689  0.65771  1.0000
  C   C3571     1.0  0.78273  0.89402  0.63541  1.0000
  C   C3572     1.0  0.54792  0.85230  0.56328  1.0000
  H   H2843     1.0  0.79342  0.94672  0.48305  1.0000
  C   C3573     1.0  0.77278  0.98704  0.63782  1.0000
  C   C3574     1.0  0.73972  0.86729  0.43096  1.0000
  C   C3575     1.0  0.49599  0.91856  0.76950  1.0000
  C   C3576     1.0  0.82368  0.89120  0.46470  1.0000
  S   S471      1.0  0.67022  0.78652  0.61622  1.0000
  C   C3577     1.0  0.82431  0.98060  0.44219  1.0000
  C   C3578     1.0  0.93910  0.86604  0.75552  1.0000
  C   C3579     1.0  0.96198  0.92379  0.88860  1.0000
  H   H2844     1.0  0.62560  0.84010  0.86566  1.0000
  P   P120      1.0  0.52995  0.97464  0.64992  1.0000
  C   C3580     1.0  0.93638  0.95049  0.40432  1.0000
  H   H2845     1.0  0.54326  0.82978  0.51457  1.0000
  H   H2846     1.0  0.72346  0.85766  0.42251  1.0000
  P   P121      1.0  0.98135  0.87206  0.51171  1.0000
  H   H2847     1.0  0.74348  0.96635  0.84448  1.0000
  C   C3581     1.0  0.49991  0.84420  0.41467  1.0000
  H   H2848     1.0  0.57493  0.92197  0.78964  1.0000
  H   H2849     1.0  0.95033  0.82230  0.50563  1.0000
  S   S472      1.0  0.62230  0.95617  0.72805  1.0000
  H   H2850     1.0  0.88481  0.84006  0.50806  1.0000
  C   C3582     1.0  0.80731  0.00885  0.70212  1.0000
  C   C3583     1.0  0.97261  0.94413  0.70224  1.0000
  C   C3584     1.0  0.73181  0.85959  0.84220  1.0000
  H   H2851     1.0  0.77642  0.84470  0.80982  1.0000
  C   C3585     1.0  0.58968  0.84782  0.51336  1.0000
  C   C3586     1.0  0.87438  0.94872  0.57601  1.0000
  C   C3587     1.0  0.81160  0.95483  0.46106  1.0000
  C   C3588     1.0  0.91236  0.91854  0.47588  1.0000
  C   C3589     1.0  0.74069  0.99991  0.69275  1.0000
  H   H2852     1.0  0.57618  0.88574  0.64789  1.0000
  H   H2853     1.0  0.62886  0.88128  0.54100  1.0000
  H   H2854     1.0  0.90580  0.91297  0.51310  1.0000
  S   S473      1.0  0.69045  0.80606  0.50344  1.0000
  H   H2855     1.0  0.62993  0.92442  0.84082  1.0000
  P   P122      1.0  0.64509  0.89528  0.70131  1.0000
  C   C3590     1.0  0.61394  0.88375  0.70740  1.0000
  H   H2856     1.0  0.50304  0.85886  0.62941  1.0000
  H   H2857     1.0  0.93409  0.95720  0.47105  1.0000
  C   C3591     1.0  0.68674  0.92037  0.62720  1.0000
  C   C3592     1.0  0.65082  0.82272  0.71126  1.0000
  S   S474      1.0  0.59112  0.93081  0.41607  1.0000
  P   P123      1.0  0.57737  0.85669  0.56148  1.0000
  C   C3593     1.0  0.58492  0.76799  0.63115  1.0000
  Fe  Fe230     1.0  0.70148  0.79182  0.56042  1.0000
  C   C3594     1.0  0.66525  0.92839  0.82020  1.0000
  C   C3595     1.0  0.59354  0.84041  0.63117  1.0000
  C   C3596     1.0  0.57274  0.85737  0.75397  1.0000
  C   C3597     1.0  0.86284  0.78919  0.79012  1.0000
  H   H2858     1.0  0.68847  0.91364  0.72654  1.0000
  C   C3598     1.0  0.82760  0.76678  0.72690  1.0000
  H   H2859     1.0  0.50435  0.76850  0.65284  1.0000
  H   H2860     1.0  0.76222  0.78277  0.51430  1.0000
  C   C3599     1.0  0.55699  0.94439  0.53413  1.0000
  C   C3600     1.0  0.73134  0.80624  0.64584  1.0000
  C   C3601     1.0  0.60934  0.82539  0.48126  1.0000
  H   H2861     1.0  0.76931  0.93359  0.58089  1.0000
  H   H2862     1.0  0.95290  0.94877  0.65632  1.0000
  H   H2863     1.0  0.61668  0.81269  0.48604  1.0000
  H   H2864     1.0  0.60240  0.86089  0.77726  1.0000
  H   H2865     1.0  0.94995  0.89470  0.52965  1.0000
  C   C3602     1.0  0.70613  0.84266  0.70699  1.0000
  H   H2866     1.0  0.58587  0.98159  0.50576  1.0000
  C   C3603     1.0  0.82997  0.94235  0.79713  1.0000
  H   H2867     1.0  0.68324  0.78846  0.82763  1.0000
  S   S475      1.0  0.61531  0.00490  0.88525  1.0000
  C   C3604     1.0  0.63367  0.93238  0.41651  1.0000
  H   H2868     1.0  0.61159  0.77264  0.44544  1.0000
  H   H2869     1.0  0.74196  0.99733  0.76323  1.0000
  H   H2870     1.0  0.91822  0.88744  0.59860  1.0000
  C   C3605     1.0  0.59865  0.83088  0.51941  1.0000
  H   H2871     1.0  0.69984  0.93240  0.78847  1.0000
  H   H2872     1.0  0.53548  0.81531  0.63336  1.0000
  C   C3606     1.0  0.97116  0.97350  0.52984  1.0000
  H   H2873     1.0  0.62765  0.97379  0.45690  1.0000
  C   C3607     1.0  0.65254  0.90817  0.74815  1.0000
  C   C3608     1.0  0.65742  0.00378  0.63132  1.0000
  C   C3609     1.0  0.71882  0.88673  0.68296  1.0000
  C   C3610     1.0  0.97116  0.00570  0.73953  1.0000
  C   C3611     1.0  0.58206  0.88050  0.67593  1.0000
  C   C3612     1.0  0.87795  0.83761  0.58052  1.0000
  H   H2874     1.0  0.69420  0.77144  0.89182  1.0000
  C   C3613     1.0  0.63625  0.91178  0.78013  1.0000
  H   H2875     1.0  0.81196  0.78628  0.63592  1.0000
  H   H2876     1.0  0.77201  0.97189  0.53562  1.0000
  C   C3614     1.0  0.93119  0.95035  0.74561  1.0000
  H   H2877     1.0  0.53735  0.89661  0.77336  1.0000
  H   H2878     1.0  0.69941  0.98328  0.79661  1.0000
  H   H2879     1.0  0.77703  0.85494  0.47946  1.0000
  C   C3615     1.0  0.74187  0.77317  0.88111  1.0000
  S   S476      1.0  0.82634  0.88257  0.74886  1.0000
  C   C3616     1.0  0.80360  0.91508  0.60777  1.0000
  C   C3617     1.0  0.51022  0.88899  0.49517  1.0000
  H   H2880     1.0  0.72339  0.90303  0.65631  1.0000
  C   C3618     1.0  0.56157  0.97839  0.56875  1.0000
  H   H2881     1.0  0.69586  0.91533  0.47654  1.0000
  H   H2882     1.0  0.94265  0.98054  0.68527  1.0000
  S   S477      1.0  0.92407  0.99893  0.46009  1.0000
  C   C3619     1.0  0.70683  0.01163  0.86254  1.0000
  H   H2883     1.0  0.65144  0.80526  0.71405  1.0000
  H   H2884     1.0  0.72017  0.94103  0.57346  1.0000
  H   H2885     1.0  0.90104  0.80960  0.76738  1.0000
  C   C3620     1.0  0.73171  0.85911  0.88788  1.0000
  H   H2886     1.0  0.61109  0.79767  0.64926  1.0000
  C   C3621     1.0  0.53605  0.86004  0.59612  1.0000
  H   H2887     1.0  0.58545  0.87291  0.46303  1.0000
  C   C3622     1.0  0.85905  0.97676  0.40742  1.0000
  C   C3623     1.0  0.87337  0.96329  0.60637  1.0000
  C   C3624     1.0  0.87686  0.82470  0.62302  1.0000
  S   S478      1.0  0.90322  0.77906  0.58607  1.0000
  C   C3625     1.0  0.81394  0.77179  0.76180  1.0000
  H   H2888     1.0  0.95165  0.90674  0.79230  1.0000
  H   H2889     1.0  0.91340  0.91866  0.80597  1.0000
  C   C3626     1.0  0.66511  0.91946  0.64912  1.0000
  C   C3627     1.0  0.64708  0.83102  0.75048  1.0000
  H   H2890     1.0  0.57265  0.93003  0.62849  1.0000
  H   H2891     1.0  0.70304  0.93287  0.89006  1.0000
  H   H2892     1.0  0.71270  0.79787  0.64849  1.0000
  P   P124      1.0  0.71212  0.86863  0.82063  1.0000
  C   C3628     1.0  0.60229  0.85364  0.43067  1.0000
  H   H2893     1.0  0.89227  0.88167  0.46998  1.0000
  S   S479      1.0  0.82998  0.88234  0.64147  1.0000
  C   C3629     1.0  0.51513  0.89813  0.44800  1.0000
  S   S480      1.0  0.95547  0.81825  0.84571  1.0000
  C   C3630     1.0  0.81037  0.91905  0.55997  1.0000
  H   H2894     1.0  0.69066  0.83990  0.57136  1.0000
  H   H2895     1.0  0.61138  0.85355  0.61019  1.0000
  C   C3631     1.0  0.98683  0.89036  0.41901  1.0000
  H   H2896     1.0  0.60525  0.82919  0.68687  1.0000
  C   C3632     1.0  0.79930  0.78161  0.75081  1.0000
  C   C3633     1.0  0.98182  0.79694  0.54651  1.0000
  H   H2897     1.0  0.68969  0.98389  0.66323  1.0000
  C   C3634     1.0  0.99115  0.92492  0.63639  1.0000
  C   C3635     1.0  0.75229  0.94266  0.80821  1.0000
  C   C3636     1.0  0.55453  0.01315  0.68696  1.0000
  H   H2898     1.0  0.56905  0.86475  0.85906  1.0000
  C   C3637     1.0  0.51086  0.82986  0.54662  1.0000
  C   C3638     1.0  0.55092  0.01249  0.83887  1.0000
  H   H2899     1.0  0.82862  0.94797  0.76324  1.0000
  H   H2900     1.0  0.70034  0.82473  0.69942  1.0000
  H   H2901     1.0  0.72744  0.87994  0.54990  1.0000
  H   H2902     1.0  0.95334  0.88971  0.86808  1.0000
  H   H2903     1.0  0.74885  0.85496  0.77836  1.0000
  C   C3639     1.0  0.55465  0.99368  0.66830  1.0000
  C   C3640     1.0  0.71960  0.88860  0.72735  1.0000
  H   H2904     1.0  0.88927  0.83940  0.84818  1.0000
  H   H2905     1.0  0.88421  0.01154  0.87327  1.0000
  H   H2906     1.0  0.78684  0.79393  0.69783  1.0000
  H   H2907     1.0  0.51914  0.76935  0.50975  1.0000
  C   C3641     1.0  0.66033  0.79137  0.40470  1.0000
  H   H2908     1.0  0.86353  0.96474  0.86648  1.0000
  Fe  Fe231     1.0  0.73816  0.95812  0.44967  1.0000
  C   C3642     1.0  0.53604  0.92859  0.56973  1.0000
  C   C3643     1.0  0.65594  0.01216  0.58802  1.0000
  H   H2909     1.0  0.49964  0.97173  0.54485  1.0000
  Fe  Fe232     1.0  0.84798  0.90927  0.67936  1.0000
  C   C3644     1.0  0.81213  0.78178  0.67115  1.0000
  C   C3645     1.0  0.49911  0.98308  0.43428  1.0000
  S   S481      1.0  0.64597  0.82696  0.55337  1.0000
  S   S482      1.0  0.96612  0.86608  0.73299  1.0000
  C   C3646     1.0  0.59197  0.85951  0.46863  1.0000
  C   C3647     1.0  0.67093  0.77040  0.85090  1.0000
  H   H2910     1.0  0.92831  0.84029  0.82141  1.0000
  C   C3648     1.0  0.84624  0.95091  0.42533  1.0000
  H   H2911     1.0  0.79984  0.90593  0.81479  1.0000
  H   H2912     1.0  0.57190  0.99759  0.56830  1.0000
  H   H2913     1.0  0.66360  0.01277  0.69387  1.0000
  H   H2914     1.0  0.59779  0.82212  0.55326  1.0000
  C   C3649     1.0  0.77029  0.96482  0.66375  1.0000
  H   H2915     1.0  0.88750  0.00036  0.61519  1.0000
  C   C3650     1.0  0.64255  0.99171  0.45291  1.0000
  H   H2916     1.0  0.98748  0.97825  0.50372  1.0000
  H   H2917     1.0  0.69861  0.89266  0.40201  1.0000
  C   C3651     1.0  0.88781  0.78270  0.83287  1.0000
  H   H2918     1.0  0.86022  0.97729  0.78977  1.0000
  H   H2919     1.0  0.90190  0.97230  0.68687  1.0000
  C   C3652     1.0  0.65270  0.85932  0.66493  1.0000
  C   C3653     1.0  0.73853  0.81020  0.68506  1.0000
  S   S483      1.0  0.59601  0.95120  0.85909  1.0000
  C   C3654     1.0  0.89069  0.81139  0.54325  1.0000
  C   C3655     1.0  0.84801  0.99154  0.41537  1.0000
  C   C3656     1.0  0.71382  0.90044  0.51296  1.0000
  C   C3657     1.0  0.88540  0.79509  0.79406  1.0000
  H   H2920     1.0  0.54991  0.80226  0.83526  1.0000
  C   C3658     1.0  0.50744  0.94868  0.69706  1.0000
  H   H2921     1.0  0.49423  0.98726  0.69798  1.0000
  C   C3659     1.0  0.51641  0.80202  0.86085  1.0000
  S   S484      1.0  0.54836  0.97103  0.89288  1.0000
  C   C3660     1.0  0.75032  0.89307  0.42393  1.0000
  S   S485      1.0  0.87364  0.86409  0.57508  1.0000
  C   C3661     1.0  0.97085  0.87584  0.46285  1.0000
  C   C3662     1.0  0.94684  0.88206  0.56151  1.0000
  C   C3663     1.0  0.55265  0.91168  0.69982  1.0000
  C   C3664     1.0  0.74840  0.81353  0.60322  1.0000
  H   H2922     1.0  0.81589  0.99218  0.44865  1.0000
  C   C3665     1.0  0.82675  0.77195  0.68171  1.0000
  C   C3666     1.0  0.70676  0.98672  0.75985  1.0000
  C   C3667     1.0  0.81569  0.91137  0.86960  1.0000
  C   C3668     1.0  0.57441  0.92380  0.75451  1.0000
  C   C3669     1.0  0.51024  0.77028  0.58071  1.0000
  H   H2923     1.0  0.77796  0.89025  0.67258  1.0000
  C   C3670     1.0  0.95974  0.86874  0.56322  1.0000
  C   C3671     1.0  0.90371  0.00014  0.54671  1.0000
  H   H2924     1.0  0.64182  0.85885  0.77810  1.0000
  H   H2925     1.0  0.87320  0.91119  0.80694  1.0000
  C   C3672     1.0  0.92383  0.86097  0.64127  1.0000
  C   C3673     1.0  0.96922  0.99119  0.55213  1.0000
  H   H2926     1.0  0.81037  0.99898  0.67729  1.0000
  H   H2927     1.0  0.60421  0.94695  0.54490  1.0000
  C   C3674     1.0  0.71183  0.86373  0.67293  1.0000
  C   C3675     1.0  0.93698  0.84819  0.64376  1.0000
  C   C3676     1.0  0.95590  0.91859  0.81519  1.0000
  H   H2928     1.0  0.75927  0.79820  0.81375  1.0000
  H   H2929     1.0  0.76813  0.92899  0.66302  1.0000
  H   H2930     1.0  0.62561  0.99797  0.51395  1.0000
  H   H2931     1.0  0.70219  0.82787  0.77741  1.0000
  H   H2932     1.0  0.71179  0.97514  0.54456  1.0000
  C   C3677     1.0  0.67745  0.95905  0.59532  1.0000
  C   C3678     1.0  0.82121  0.01384  0.73197  1.0000
  C   C3679     1.0  0.90450  0.98552  0.51627  1.0000
  C   C3680     1.0  0.76269  0.82169  0.68137  1.0000
  H   H2933     1.0  0.64497  0.93983  0.65164  1.0000
  C   C3681     1.0  0.82898  0.87905  0.49959  1.0000
  H   H2934     1.0  0.90643  0.89172  0.72090  1.0000
  H   H2935     1.0  0.87198  0.83006  0.65377  1.0000
  C   C3682     1.0  0.70127  0.98708  0.68466  1.0000
  H   H2936     1.0  0.54662  0.85721  0.72126  1.0000
  S   S486      1.0  0.58794  0.78302  0.80506  1.0000
  C   C3683     1.0  0.84793  0.95878  0.81183  1.0000
  H   H2937     1.0  0.56511  0.79835  0.73627  1.0000
  Fe  Fe233     1.0  0.85819  0.87076  0.64073  1.0000
  C   C3684     1.0  0.56755  0.80905  0.70268  1.0000
  C   C3685     1.0  0.83041  0.88922  0.41965  1.0000
  C   C3686     1.0  0.95188  0.94977  0.54042  1.0000
  C   C3687     1.0  0.64899  0.86781  0.70430  1.0000
  Fe  Fe234     1.0  0.58615  0.98189  0.85866  1.0000
  C   C3688     1.0  0.92835  0.94331  0.45231  1.0000
  C   C3689     1.0  0.79599  0.90221  0.53938  1.0000
  C   C3690     1.0  0.77068  0.90531  0.43689  1.0000
  C   C3691     1.0  0.88796  0.98906  0.59164  1.0000
  C   C3692     1.0  0.88512  0.94121  0.74688  1.0000
  C   C3693     1.0  0.92853  0.96099  0.59558  1.0000
  C   C3694     1.0  0.77247  0.82381  0.60010  1.0000
  H   H2938     1.0  0.66272  0.79756  0.43517  1.0000
  C   C3695     1.0  0.69879  0.95963  0.57367  1.0000
  H   H2939     1.0  0.93386  0.85227  0.50153  1.0000
  C   C3696     1.0  0.96580  0.94826  0.87616  1.0000
  C   C3697     1.0  0.90446  0.90090  0.45142  1.0000
  H   H2940     1.0  0.77819  0.92518  0.43134  1.0000
  H   H2941     1.0  0.49901  0.94133  0.84575  1.0000
  H   H2942     1.0  0.86735  0.93724  0.74668  1.0000
  P   P125      1.0  0.77189  0.01063  0.66576  1.0000
  C   C3698     1.0  0.93802  0.86715  0.43121  1.0000
  C   C3699     1.0  0.59515  0.93958  0.71802  1.0000
  Fe  Fe235     1.0  0.81057  0.85480  0.71021  1.0000
  H   H2943     1.0  0.52646  0.90912  0.57098  1.0000
  C   C3700     1.0  0.56016  0.86505  0.89269  1.0000
  C   C3701     1.0  0.70717  0.84449  0.75120  1.0000
  H   H2944     1.0  0.96939  0.01402  0.46736  1.0000
  H   H2945     1.0  0.61530  0.76930  0.70890  1.0000
  S   S487      1.0  0.70688  0.96497  0.45103  1.0000
  C   C3702     1.0  0.96580  0.94297  0.66199  1.0000
  C   C3703     1.0  0.61079  0.83642  0.43703  1.0000
  H   H2946     1.0  0.65416  0.98487  0.64293  1.0000
  H   H2947     1.0  0.65897  0.87537  0.49841  1.0000
  C   C3704     1.0  0.69185  0.98246  0.73199  1.0000
  C   C3705     1.0  0.54025  0.96275  0.60426  1.0000
  S   S488      1.0  0.60659  0.00217  0.78487  1.0000
  C   C3706     1.0  0.49934  0.83779  0.57912  1.0000
  H   H2948     1.0  0.85533  0.93994  0.41950  1.0000
  C   C3707     1.0  0.68181  0.92575  0.78736  1.0000
  S   S489      1.0  0.49744  0.82113  0.75351  1.0000
  C   C3708     1.0  0.52736  0.82731  0.40326  1.0000
  H   H2949     1.0  0.67019  0.93650  0.84774  1.0000
  C   C3709     1.0  0.94772  0.98477  0.58510  1.0000
  C   C3710     1.0  0.92365  0.85160  0.79955  1.0000
  C   C3711     1.0  0.77189  0.97011  0.57124  1.0000
  C   C3712     1.0  0.69458  0.89911  0.49814  1.0000
  H   H2950     1.0  0.61890  0.90770  0.77682  1.0000
  C   C3713     1.0  0.88422  0.83043  0.54091  1.0000
  C   C3714     1.0  0.67363  0.87652  0.51075  1.0000
  Fe  Fe236     1.0  0.61843  0.97288  0.78682  1.0000
  H   H2951     1.0  0.51214  0.80093  0.82895  1.0000
  H   H2952     1.0  0.94546  0.99816  0.60200  1.0000
  S   S490      1.0  0.65045  0.99505  0.80683  1.0000
  C   C3715     1.0  0.64145  0.00545  0.48490  1.0000
  S   S491      1.0  0.77158  0.82898  0.72932  1.0000
  H   H2953     1.0  0.96822  0.97714  0.82402  1.0000
  Fe  Fe237     1.0  0.62691  0.97591  0.87947  1.0000
  C   C3716     1.0  0.96518  0.95812  0.83288  1.0000
  Fe  Fe238     1.0  0.94644  0.78159  0.82923  1.0000
  C   C3717     1.0  0.73728  0.94785  0.83946  1.0000
  C   C3718     1.0  0.49847  0.90238  0.43131  1.0000
  Fe  Fe239     1.0  0.73194  0.00458  0.44445  1.0000
  S   S492      1.0  0.98119  0.78372  0.83114  1.0000
  Fe  Fe240     1.0  0.99152  0.82202  0.84040  1.0000
  C   C3719     1.0  0.74824  0.77901  0.83327  1.0000
  C   C3720     1.0  0.54033  0.99444  0.88122  1.0000
  Fe  Fe241     1.0  0.56982  0.77401  0.88001  1.0000
  H   H2954     1.0  0.56435  0.01207  0.81219  1.0000
  H   H2955     1.0  0.52398  0.84700  0.45406  1.0000
  H   H2956     1.0  0.68900  0.89083  0.87953  1.0000
  C   C3721     1.0  0.51201  0.85309  0.60350  1.0000
  C   C3722     1.0  0.66348  0.85301  0.84783  1.0000
  C   C3723     1.0  0.71451  0.92904  0.86502  1.0000
  C   C3724     1.0  0.53774  0.80276  0.86446  1.0000
  H   H2957     1.0  0.53819  0.00506  0.55854  1.0000
  H   H2958     1.0  0.67259  0.01001  0.87215  1.0000
  S   S493      1.0  0.75010  0.01370  0.85411  1.0000
  Fe  Fe242     1.0  0.67099  0.76667  0.50175  1.0000
  C   C3725     1.0  0.83382  0.92768  0.88443  1.0000
  C   C3726     1.0  0.65796  0.94025  0.39681  1.0000
  H   H2959     1.0  0.53628  0.00815  0.42000  1.0000
  H   H2960     1.0  0.50095  0.81765  0.52820  1.0000
  H   H2961     1.0  0.68879  0.81848  0.88553  1.0000
  C   C3727     1.0  0.67537  0.82374  0.88098  1.0000
  C   C3728     1.0  0.71940  0.99996  0.87707  1.0000
  H   H2962     1.0  0.49929  0.77913  0.57658  1.0000
  C   C3729     1.0  0.68216  0.00047  0.88196  1.0000
  H   H2963     1.0  0.99318  0.88819  0.86756  1.0000
  H   H2964     1.0  0.74230  0.90358  0.41011  1.0000
  H   H2965     1.0  0.83762  0.76860  0.65454  1.0000
  H   H2966     1.0  0.83586  0.80853  0.39703  1.0000
  Fe  Fe243     1.0  0.99368  0.80182  0.75542  1.0000
  H   H2967     1.0  0.99308  0.91933  0.53589  1.0000
  H   H2968     1.0  0.60311  0.86202  0.39646  1.0000
  H   H2969     1.0  0.53936  0.01657  0.69219  1.0000
  H   H2970     1.0  0.80276  0.89315  0.89210  1.0000
  H   H2971     1.0  0.85789  0.01154  0.40147  1.0000
  H   H2972     1.0  0.50934  0.78075  0.10387  1.0000
  H   H2973     1.0  0.80062  0.90886  0.35378  1.0000
  C   C3730     1.0  0.75765  0.77899  0.31537  1.0000
  H   H2974     1.0  0.77211  0.82985  0.36642  1.0000
  C   C3731     1.0  0.62983  0.83836  0.10026  1.0000
  H   H2975     1.0  0.61665  0.94772  0.06013  1.0000
  C   C3732     1.0  0.60325  0.84869  0.98712  1.0000
  C   C3733     1.0  0.51534  0.01274  0.90706  1.0000
  C   C3734     1.0  0.85627  0.76875  0.03499  1.0000
  C   C3735     1.0  0.52031  0.81988  0.36578  1.0000
  C   C3736     1.0  0.77221  0.91766  0.00472  1.0000
  H   H2976     1.0  0.67749  0.83340  0.15936  1.0000
  C   C3737     1.0  0.52720  0.80392  0.94388  1.0000
  H   H2977     1.0  0.80426  0.94264  0.95024  1.0000
  H   H2978     1.0  0.90779  0.81233  0.29481  1.0000
  C   C3738     1.0  0.98307  0.95417  0.31925  1.0000
  H   H2979     1.0  0.98048  0.86418  0.94859  1.0000
  H   H2980     1.0  0.71249  0.81145  0.27560  1.0000
  H   H2981     1.0  0.50018  0.96546  0.04926  1.0000
  C   C3739     1.0  0.52453  0.95350  0.01601  1.0000
  C   C3740     1.0  0.89655  0.78346  0.20789  1.0000
  C   C3741     1.0  0.88896  0.79455  0.17639  1.0000
  H   H2982     1.0  0.58297  0.84278  0.21152  1.0000
  P   P126      1.0  0.83450  0.91864  0.94227  1.0000
  H   H2983     1.0  0.62960  0.80963  0.20373  1.0000
  C   C3742     1.0  0.66127  0.92679  0.09040  1.0000
  C   C3743     1.0  0.98699  0.82036  0.03065  1.0000
  S   S494      1.0  0.83796  0.86532  0.23790  1.0000
  H   H2984     1.0  0.74225  0.88903  0.06001  1.0000
  C   C3744     1.0  0.64719  0.79334  0.33659  1.0000
  H   H2985     1.0  0.89239  0.90854  0.30610  1.0000
  C   C3745     1.0  0.59479  0.90164  0.21776  1.0000
  H   H2986     1.0  0.77335  0.87940  0.25118  1.0000
  C   C3746     1.0  0.69364  0.79921  0.22787  1.0000
  H   H2987     1.0  0.59111  0.91853  0.97133  1.0000
  H   H2988     1.0  0.88044  0.87048  0.27896  1.0000
  C   C3747     1.0  0.99050  0.96040  0.12133  1.0000
  H   H2989     1.0  0.55031  0.87089  0.10908  1.0000
  C   C3748     1.0  0.65598  0.95830  0.32354  1.0000
  S   S495      1.0  0.82200  0.82004  0.18727  1.0000
  H   H2990     1.0  0.78115  0.00938  0.20502  1.0000
  H   H2991     1.0  0.67666  0.89627  0.15318  1.0000
  C   C3749     1.0  0.70517  0.81678  0.25020  1.0000
  H   H2992     1.0  0.52704  0.77838  0.16642  1.0000
  C   C3750     1.0  0.73795  0.82564  0.36352  1.0000
  C   C3751     1.0  0.50317  0.82495  0.35237  1.0000
  H   H2993     1.0  0.65887  0.97072  0.01377  1.0000
  S   S496      1.0  0.56658  0.00756  0.32570  1.0000
  C   C3752     1.0  0.74989  0.81467  0.10791  1.0000
  H   H2994     1.0  0.71185  0.96072  0.14357  1.0000
  H   H2995     1.0  0.56484  0.94688  0.07687  1.0000
  C   C3753     1.0  0.55708  0.83854  0.06551  1.0000
  C   C3754     1.0  0.92007  0.93685  0.12551  1.0000
  C   C3755     1.0  0.65146  0.80208  0.37493  1.0000
  Fe  Fe244     1.0  0.94805  0.81910  0.34264  1.0000
  C   C3756     1.0  0.82342  0.99244  0.16416  1.0000
  C   C3757     1.0  0.64571  0.87084  0.97090  1.0000
  C   C3758     1.0  0.78647  0.78421  0.93020  1.0000
  H   H2996     1.0  0.69829  0.86485  0.19729  1.0000
  H   H2997     1.0  0.50858  0.89812  0.99002  1.0000
  C   C3759     1.0  0.55658  0.81522  0.13704  1.0000
  H   H2998     1.0  0.71925  0.86291  0.91020  1.0000
  C   C3760     1.0  0.63179  0.95050  0.34331  1.0000
  C   C3761     1.0  0.59906  0.88247  0.20547  1.0000
  H   H2999     1.0  0.62091  0.90666  0.00445  1.0000
  C   C3762     1.0  0.55918  0.88887  0.08416  1.0000
  C   C3763     1.0  0.93839  0.88583  0.26496  1.0000
  H   H3000     1.0  0.62673  0.83333  0.96698  1.0000
  H   H3001     1.0  0.87679  0.80799  0.00207  1.0000
  H   H3002     1.0  0.99071  0.90376  0.34759  1.0000
  C   C3764     1.0  0.68538  0.82885  0.18440  1.0000
  H   H3003     1.0  0.60260  0.91158  0.12565  1.0000
  C   C3765     1.0  0.50040  0.80195  0.89901  1.0000
  C   C3766     1.0  0.99324  0.88376  0.93809  1.0000
  C   C3767     1.0  0.74173  0.89244  0.22254  1.0000
  C   C3768     1.0  0.66140  0.91435  0.26600  1.0000
  H   H3004     1.0  0.90984  0.85625  0.25164  1.0000
  C   C3769     1.0  0.88066  0.94891  0.94159  1.0000
  C   C3770     1.0  0.93498  0.77042  0.96315  1.0000
  C   C3771     1.0  0.85152  0.80939  0.37466  1.0000
  H   H3005     1.0  0.56517  0.99527  0.13602  1.0000
  H   H3006     1.0  0.52820  0.86605  0.01281  1.0000
  H   H3007     1.0  0.54019  0.97086  0.01084  1.0000
  H   H3008     1.0  0.49400  0.93867  0.92822  1.0000
  S   S497      1.0  0.95467  0.78930  0.37774  1.0000
  C   C3772     1.0  0.86797  0.97553  0.99819  1.0000
  H   H3009     1.0  0.92524  0.95144  0.23261  1.0000
  C   C3773     1.0  0.79479  0.80956  0.91170  1.0000
  C   C3774     1.0  0.70154  0.86913  0.30848  1.0000
  C   C3775     1.0  0.84205  0.89363  0.95059  1.0000
  C   C3776     1.0  0.63754  0.91429  0.11858  1.0000
  C   C3777     1.0  0.70295  0.88475  0.97934  1.0000
  H   H3010     1.0  0.91748  0.85383  0.93408  1.0000
  H   H3011     1.0  0.63098  0.83628  0.06565  1.0000
  H   H3012     1.0  0.82282  0.91494  0.10589  1.0000
  C   C3778     1.0  0.73839  0.85375  0.29862  1.0000
  S   S498      1.0  0.58191  0.99126  0.21375  1.0000
  C   C3779     1.0  0.62127  0.92148  0.10638  1.0000
  H   H3013     1.0  0.94722  0.88244  0.35874  1.0000
  C   C3780     1.0  0.75689  0.82908  0.13835  1.0000
  S   S499      1.0  0.98448  0.84965  0.33337  1.0000
  H   H3014     1.0  0.54344  0.83388  0.25851  1.0000
  H   H3015     1.0  0.66257  0.98790  0.12795  1.0000
  C   C3781     1.0  0.79787  0.84072  0.10065  1.0000
  C   C3782     1.0  0.56711  0.93186  0.06620  1.0000
  C   C3783     1.0  0.75698  0.93690  0.19147  1.0000
  S   S500      1.0  0.96433  0.97953  0.97709  1.0000
  H   H3016     1.0  0.67354  0.94829  0.95500  1.0000
  H   H3017     1.0  0.86285  0.96807  0.25171  1.0000
  H   H3018     1.0  0.77545  0.91491  0.30846  1.0000
  Fe  Fe245     1.0  0.79956  0.99161  0.93656  1.0000
  C   C3784     1.0  0.74379  0.91544  0.22830  1.0000
  H   H3019     1.0  0.71728  0.96875  0.92355  1.0000
  H   H3020     1.0  0.75878  0.85993  0.06316  1.0000
  H   H3021     1.0  0.88890  0.98483  0.13284  1.0000
  C   C3785     1.0  0.50560  0.80244  0.94072  1.0000
  C   C3786     1.0  0.93550  0.85707  0.04603  1.0000
  C   C3787     1.0  0.64404  0.89129  0.98227  1.0000
  H   H3022     1.0  0.67293  0.85559  0.27818  1.0000
  H   H3023     1.0  0.66268  0.87121  0.96029  1.0000
  C   C3788     1.0  0.94536  0.90748  0.27996  1.0000
  S   S501      1.0  0.67831  0.83490  0.98923  1.0000
  P   P127      1.0  0.93726  0.94301  0.31732  1.0000
  H   H3024     1.0  0.82601  0.89794  0.39256  1.0000
  H   H3025     1.0  0.64683  0.78828  0.92369  1.0000
  H   H3026     1.0  0.90527  0.89403  0.38533  1.0000
  P   P128      1.0  0.57212  0.86635  0.01830  1.0000
  C   C3789     1.0  0.55702  0.90866  0.09788  1.0000
  H   H3027     1.0  0.54405  0.93712  0.98104  1.0000
  H   H3028     1.0  0.87274  0.79583  0.18804  1.0000
  C   C3790     1.0  0.52336  0.93425  0.17000  1.0000
  P   P129      1.0  0.62828  0.88972  0.17012  1.0000
  C   C3791     1.0  0.54465  0.94471  0.22610  1.0000
  H   H3029     1.0  0.93613  0.97213  0.14124  1.0000
  C   C3792     1.0  0.76851  0.93565  0.14897  1.0000
  H   H3030     1.0  0.67410  0.92124  0.09729  1.0000
  H   H3031     1.0  0.58734  0.86498  0.92094  1.0000
  Fe  Fe246     1.0  0.99166  0.81939  0.36383  1.0000
  H   H3032     1.0  0.74366  0.82983  0.16498  1.0000
  C   C3793     1.0  0.76324  0.86468  0.28285  1.0000
  S   S502      1.0  0.85698  0.87787  0.12601  1.0000
  H   H3033     1.0  0.77836  0.95216  0.12019  1.0000
  C   C3794     1.0  0.98039  0.98277  0.26039  1.0000
  C   C3795     1.0  0.95394  0.88148  0.38775  1.0000
  H   H3034     1.0  0.82450  0.79983  0.00203  1.0000
  H   H3035     1.0  0.97025  0.98899  0.24316  1.0000
  C   C3796     1.0  0.85873  0.80091  0.07364  1.0000
  C   C3797     1.0  0.62188  0.89067  0.99556  1.0000
  C   C3798     1.0  0.68901  0.85863  0.05674  1.0000
  C   C3799     1.0  0.97740  0.84207  0.08451  1.0000
  C   C3800     1.0  0.62919  0.85941  0.11109  1.0000
  H   H3036     1.0  0.80420  0.82729  0.04106  1.0000
  H   H3037     1.0  0.83661  0.77549  0.95478  1.0000
  H   H3038     1.0  0.98250  0.80821  0.00854  1.0000
  Fe  Fe247     1.0  0.85825  0.84175  0.13601  1.0000
  H   H3039     1.0  0.53002  0.00548  0.06250  1.0000
  H   H3040     1.0  0.65992  0.90732  0.98164  1.0000
  Fe  Fe248     1.0  0.77225  0.00513  0.37225  1.0000
  H   H3041     1.0  0.90705  0.01005  0.24172  1.0000
  C   C3801     1.0  0.80489  0.94532  0.25458  1.0000
  H   H3042     1.0  0.80745  0.99480  0.23137  1.0000
  H   H3043     1.0  0.50444  0.99228  0.32251  1.0000
  H   H3044     1.0  0.67097  0.95571  0.16489  1.0000
  H   H3045     1.0  0.95036  0.90066  0.09750  1.0000
  C   C3802     1.0  0.57967  0.93543  0.02079  1.0000
  H   H3046     1.0  0.69605  0.87814  0.10895  1.0000
  C   C3803     1.0  0.89160  0.81479  0.36115  1.0000
  C   C3804     1.0  0.53583  0.79491  0.13763  1.0000
  H   H3047     1.0  0.93216  0.92818  0.01840  1.0000
  C   C3805     1.0  0.65149  0.80642  0.90265  1.0000
  C   C3806     1.0  0.61752  0.99985  0.04810  1.0000
  H   H3048     1.0  0.97196  0.94236  0.19304  1.0000
  H   H3049     1.0  0.72038  0.92417  0.97107  1.0000
  H   H3050     1.0  0.60890  0.92068  0.20672  1.0000
  C   C3807     1.0  0.82499  0.99770  0.11733  1.0000
  H   H3051     1.0  0.51651  0.90820  0.23292  1.0000
  C   C3808     1.0  0.66894  0.94704  0.05281  1.0000
  H   H3052     1.0  0.61514  0.79890  0.91365  1.0000
  H   H3053     1.0  0.93919  0.85756  0.07851  1.0000
  C   C3809     1.0  0.92493  0.96230  0.29630  1.0000
  H   H3054     1.0  0.91206  0.98033  0.19986  1.0000
  H   H3055     1.0  0.92718  0.82243  0.96839  1.0000
  C   C3810     1.0  0.55866  0.96923  0.19852  1.0000
  C   C3811     1.0  0.91462  0.97989  0.23353  1.0000
  C   C3812     1.0  0.98907  0.95161  0.16682  1.0000
  C   C3813     1.0  0.85051  0.86202  0.92475  1.0000
  Fe  Fe249     1.0  0.54255  0.97242  0.38127  1.0000
  H   H3056     1.0  0.79124  0.82060  0.93365  1.0000
  C   C3814     1.0  0.92303  0.85508  0.96477  1.0000
  C   C3815     1.0  0.97064  0.82698  0.05460  1.0000
  C   C3816     1.0  0.63696  0.00718  0.00955  1.0000
  H   H3057     1.0  0.95969  0.80660  0.96448  1.0000
  C   C3817     1.0  0.91928  0.92438  0.09098  1.0000
  C   C3818     1.0  0.78088  0.84200  0.13496  1.0000
  C   C3819     1.0  0.62535  0.84946  0.97399  1.0000
  H   H3058     1.0  0.79369  0.94707  0.23448  1.0000
  C   C3820     1.0  0.68526  0.97233  0.13966  1.0000
  H   H3059     1.0  0.74532  0.80041  0.22161  1.0000
  C   C3821     1.0  0.57039  0.86493  0.92828  1.0000
  C   C3822     1.0  0.92897  0.91609  0.29459  1.0000
  C   C3823     1.0  0.84669  0.88727  0.99171  1.0000
  C   C3824     1.0  0.68349  0.80512  0.19545  1.0000
  H   H3060     1.0  0.74476  0.99922  0.08736  1.0000
  C   C3825     1.0  0.91145  0.99639  0.25733  1.0000
  C   C3826     1.0  0.79474  0.92471  0.97546  1.0000
  C   C3827     1.0  0.94340  0.78987  0.98381  1.0000
  P   P130      1.0  0.84347  0.98286  0.18252  1.0000
  H   H3061     1.0  0.97460  0.95755  0.11233  1.0000
  H   H3062     1.0  0.86081  0.84177  0.97152  1.0000
  H   H3063     1.0  0.88631  0.77637  0.24398  1.0000
  Fe  Fe250     1.0  0.57838  0.98398  0.28952  1.0000
  C   C3828     1.0  0.70750  0.97752  0.91151  1.0000
  S   S503      1.0  0.78414  0.98610  0.01202  1.0000
  P   P131      1.0  0.94004  0.81368  0.05409  1.0000
  H   H3064     1.0  0.63074  0.80423  0.12493  1.0000
  C   C3829     1.0  0.85577  0.01271  0.92128  1.0000
  C   C3830     1.0  0.50649  0.91235  0.00426  1.0000
  C   C3831     1.0  0.68058  0.99068  0.11839  1.0000
  C   C3832     1.0  0.62820  0.84411  0.18901  1.0000
  H   H3065     1.0  0.58336  0.85254  0.10094  1.0000
  H   H3066     1.0  0.91615  0.97017  0.94501  1.0000
  H   H3067     1.0  0.50938  0.86432  0.95069  1.0000
  S   S504      1.0  0.95800  0.81351  0.27246  1.0000
  C   C3833     1.0  0.92994  0.87493  0.02601  1.0000
  H   H3068     1.0  0.64599  0.86395  0.33313  1.0000
  C   C3834     1.0  0.86859  0.01129  0.18101  1.0000
  Fe  Fe251     1.0  0.76179  0.00187  0.91197  1.0000
  S   S505      1.0  0.75055  0.96541  0.37304  1.0000
  C   C3835     1.0  0.87265  0.80830  0.30108  1.0000
  C   C3836     1.0  0.62906  0.94188  0.06891  1.0000
  H   H3069     1.0  0.78659  0.77890  0.06496  1.0000
  S   S506      1.0  0.91626  0.82166  0.38104  1.0000
  H   H3070     1.0  0.49608  0.83340  0.09258  1.0000
  C   C3837     1.0  0.53693  0.86516  0.97973  1.0000
  S   S507      1.0  0.72227  0.93050  0.06069  1.0000
  C   C3838     1.0  0.92855  0.83714  0.98468  1.0000
  H   H3071     1.0  0.62162  0.95381  0.32219  1.0000
  H   H3072     1.0  0.94587  0.78795  0.13503  1.0000
  H   H3073     1.0  0.96304  0.91644  0.92177  1.0000
  Fe  Fe252     1.0  0.68296  0.80204  0.01740  1.0000
  H   H3074     1.0  0.90482  0.99399  0.99479  1.0000
  C   C3839     1.0  0.82957  0.96083  0.23861  1.0000
  H   H3075     1.0  0.86316  0.98603  0.01983  1.0000
  H   H3076     1.0  0.56876  0.00538  0.04052  1.0000
  C   C3840     1.0  0.94898  0.97572  0.06895  1.0000
  S   S508      1.0  0.60824  0.99129  0.32019  1.0000
  C   C3841     1.0  0.83720  0.93077  0.11071  1.0000
  C   C3842     1.0  0.58034  0.85799  0.22021  1.0000
  H   H3077     1.0  0.68743  0.95680  0.03190  1.0000
  H   H3078     1.0  0.70483  0.00973  0.24982  1.0000
  H   H3079     1.0  0.97473  0.93797  0.34850  1.0000
  Fe  Fe253     1.0  0.54778  0.76693  0.31112  1.0000
  H   H3080     1.0  0.54690  0.90579  0.13289  1.0000
  C   C3843     1.0  0.93011  0.78821  0.02759  1.0000
  C   C3844     1.0  0.57178  0.89230  0.03854  1.0000
  C   C3845     1.0  0.91511  0.87278  0.26399  1.0000
  H   H3081     1.0  0.79451  0.86461  0.29502  1.0000
  H   H3082     1.0  0.67393  0.79117  0.17930  1.0000
  H   H3083     1.0  0.52782  0.81905  0.03997  1.0000
  C   C3846     1.0  0.56727  0.83691  0.10097  1.0000
  H   H3084     1.0  0.77630  0.91202  0.11071  1.0000
  H   H3085     1.0  0.96080  0.99545  0.06067  1.0000
  Fe  Fe254     1.0  0.84070  0.83015  0.24006  1.0000
  H   H3086     1.0  0.83926  0.78800  0.14591  1.0000
  C   C3847     1.0  0.66348  0.86841  0.33618  1.0000
  H   H3087     1.0  0.56914  0.91117  0.25443  1.0000
  H   H3088     1.0  0.96942  0.95969  0.90000  1.0000
  Fe  Fe255     1.0  0.96725  0.78567  0.30722  1.0000
  C   C3848     1.0  0.66920  0.95355  0.35041  1.0000
  S   S509      1.0  0.74322  0.99742  0.98506  1.0000
  H   H3089     1.0  0.59966  0.99036  0.04596  1.0000
  C   C3849     1.0  0.60134  0.86929  0.99786  1.0000
  H   H3090     1.0  0.56117  0.78386  0.00592  1.0000
  H   H3091     1.0  0.62676  0.90333  0.25952  1.0000
  C   C3850     1.0  0.92167  0.96318  0.25261  1.0000
  Fe  Fe256     1.0  0.72027  0.78748  0.03424  1.0000
  C   C3851     1.0  0.84385  0.78267  0.11490  1.0000
  S   S510      1.0  0.69961  0.96414  0.32500  1.0000
  C   C3852     1.0  0.52586  0.79626  0.10208  1.0000
  C   C3853     1.0  0.80797  0.99733  0.19550  1.0000
  H   H3092     1.0  0.85700  0.86414  0.03080  1.0000
  C   C3854     1.0  0.69709  0.84658  0.20624  1.0000
  C   C3855     1.0  0.69768  0.88002  0.07283  1.0000
  S   S511      1.0  0.75858  0.80017  0.02893  1.0000
  C   C3856     1.0  0.79180  0.88524  0.01076  1.0000
  H   H3093     1.0  0.79870  0.87212  0.01337  1.0000
  H   H3094     1.0  0.92294  0.77258  0.21726  1.0000
  C   C3857     1.0  0.50204  0.95052  0.03737  1.0000
  C   C3858     1.0  0.74753  0.85354  0.90527  1.0000
  C   C3859     1.0  0.69139  0.86101  0.00994  1.0000
  S   S512      1.0  0.87062  0.83258  0.07119  1.0000
  C   C3860     1.0  0.85072  0.96536  0.14535  1.0000
  C   C3861     1.0  0.93011  0.79009  0.14608  1.0000
  H   H3095     1.0  0.94517  0.77186  0.92923  1.0000
  H   H3096     1.0  0.84439  0.93597  0.32572  1.0000
  H   H3097     1.0  0.81643  0.85043  0.09805  1.0000
  C   C3862     1.0  0.83222  0.94520  0.13805  1.0000
  H   H3098     1.0  0.77622  0.77568  0.96619  1.0000
  S   S513      1.0  0.56958  0.80459  0.91057  1.0000
  C   C3863     1.0  0.90218  0.80383  0.12986  1.0000
  C   C3864     1.0  0.77534  0.85626  0.30762  1.0000
  S   S514      1.0  0.82839  0.80437  0.31003  1.0000
  P   P132      1.0  0.72211  0.86394  0.26744  1.0000
  C   C3865     1.0  0.53623  0.81809  0.06633  1.0000
  C   C3866     1.0  0.93318  0.93762  0.04540  1.0000
  C   C3867     1.0  0.92287  0.80179  0.11432  1.0000
  H   H3099     1.0  0.91811  0.88701  0.97154  1.0000
  H   H3100     1.0  0.95092  0.87893  0.25463  1.0000
  H   H3101     1.0  0.77039  0.78555  0.33412  1.0000
  C   C3868     1.0  0.52703  0.92720  0.21182  1.0000
  C   C3869     1.0  0.87123  0.81351  0.39001  1.0000
  H   H3102     1.0  0.56409  0.81418  0.16495  1.0000
  C   C3870     1.0  0.54333  0.80431  0.90567  1.0000
  C   C3871     1.0  0.85065  0.95753  0.98461  1.0000
  C   C3872     1.0  0.86073  0.93647  0.09025  1.0000
  H   H3103     1.0  0.53648  0.86793  0.28061  1.0000
  S   S515      1.0  0.49885  0.85311  0.22799  1.0000
  Fe  Fe257     1.0  0.82213  0.85675  0.18109  1.0000
  H   H3104     1.0  0.54773  0.93900  0.25784  1.0000
  S   S516      1.0  0.78950  0.85867  0.17489  1.0000
  C   C3873     1.0  0.70857  0.87969  0.34369  1.0000
  C   C3874     1.0  0.67061  0.87894  0.37106  1.0000
  C   C3875     1.0  0.90543  0.90247  0.29454  1.0000
  H   H3105     1.0  0.65695  0.91829  0.29874  1.0000
  H   H3106     1.0  0.53399  0.96441  0.11094  1.0000
  C   C3876     1.0  0.81308  0.78007  0.00862  1.0000
  C   C3877     1.0  0.55464  0.97630  0.15713  1.0000
  C   C3878     1.0  0.70938  0.90375  0.04177  1.0000
  S   S517      1.0  0.90161  0.92074  0.18185  1.0000
  C   C3879     1.0  0.79449  0.92686  0.29631  1.0000
  H   H3107     1.0  0.77347  0.76980  0.15211  1.0000
  H   H3108     1.0  0.58751  0.95337  0.99596  1.0000
  C   C3880     1.0  0.62980  0.82030  0.13364  1.0000
  H   H3109     1.0  0.50085  0.01186  0.93282  1.0000
  C   C3881     1.0  0.80503  0.90886  0.97925  1.0000
  C   C3882     1.0  0.89787  0.96675  0.95569  1.0000
  C   C3883     1.0  0.68280  0.96599  0.92957  1.0000
  H   H3110     1.0  0.70667  0.82567  0.35198  1.0000
  C   C3884     1.0  0.53697  0.95890  0.14303  1.0000
  C   C3885     1.0  0.74377  0.78748  0.25133  1.0000
  C   C3886     1.0  0.96916  0.96150  0.29786  1.0000
  H   H3111     1.0  0.49770  0.81942  0.32328  1.0000
  H   H3112     1.0  0.91248  0.00887  0.31879  1.0000
  C   C3887     1.0  0.83330  0.93867  0.30612  1.0000
  C   C3888     1.0  0.79423  0.01012  0.13415  1.0000
  S   S518      1.0  0.55304  0.94842  0.34380  1.0000
  S   S519      1.0  0.87730  0.84903  0.18925  1.0000
  C   C3889     1.0  0.91449  0.99564  0.30088  1.0000
  C   C3890     1.0  0.55782  0.85282  0.24697  1.0000
  H   H3113     1.0  0.83771  0.99543  0.09206  1.0000
  C   C3891     1.0  0.84392  0.88083  0.91703  1.0000
  H   H3114     1.0  0.84698  0.87344  0.37501  1.0000
  C   C3892     1.0  0.55384  0.87198  0.25937  1.0000
  H   H3115     1.0  0.88587  0.93863  0.91993  1.0000
  C   C3893     1.0  0.75951  0.89446  0.03684  1.0000
  H   H3116     1.0  0.70699  0.91288  0.19153  1.0000
  H   H3117     1.0  0.75791  0.95442  0.19573  1.0000
  C   C3894     1.0  0.92099  0.97852  0.32060  1.0000
  H   H3118     1.0  0.62769  0.84603  0.22360  1.0000
  H   H3119     1.0  0.58756  0.83190  0.98916  1.0000
  C   C3895     1.0  0.67008  0.97723  0.91430  1.0000
  C   C3896     1.0  0.92773  0.93310  0.37938  1.0000
  C   C3897     1.0  0.64968  0.89984  0.20157  1.0000
  C   C3898     1.0  0.62831  0.86237  0.15563  1.0000
  H   H3120     1.0  0.84507  0.89667  0.01834  1.0000
  C   C3899     1.0  0.52253  0.99461  0.91504  1.0000
  H   H3121     1.0  0.64737  0.81665  0.38236  1.0000
  C   C3900     1.0  0.63364  0.81233  0.89684  1.0000
  C   C3901     1.0  0.68953  0.91098  0.20618  1.0000
  H   H3122     1.0  0.92347  0.97867  0.35411  1.0000
  C   C3902     1.0  0.52652  0.86476  0.94435  1.0000
  C   C3903     1.0  0.76909  0.87813  0.03922  1.0000
  S   S520      1.0  0.63911  0.96160  0.93416  1.0000
  C   C3904     1.0  0.70690  0.84064  0.23972  1.0000
  C   C3905     1.0  0.98650  0.91629  0.05388  1.0000
  C   C3906     1.0  0.76692  0.81479  0.07164  1.0000
  S   S521      1.0  0.63540  0.80592  0.29974  1.0000
  C   C3907     1.0  0.71182  0.90602  0.99510  1.0000
  H   H3123     1.0  0.87320  0.80654  0.26657  1.0000
  H   H3124     1.0  0.62965  0.87338  0.08457  1.0000
  H   H3125     1.0  0.98208  0.92067  0.02292  1.0000
  H   H3126     1.0  0.53166  0.99633  0.24875  1.0000
  C   C3908     1.0  0.58187  0.91568  0.00695  1.0000
  C   C3909     1.0  0.93461  0.83782  0.02589  1.0000
  C   C3910     1.0  0.85346  0.86875  0.99896  1.0000
  H   H3127     1.0  0.68005  0.84031  0.08044  1.0000
  H   H3128     1.0  0.76450  0.93009  0.00255  1.0000
  H   H3129     1.0  0.63421  0.00329  0.97741  1.0000
  C   C3911     1.0  0.92350  0.87383  0.98568  1.0000
  C   C3912     1.0  0.55870  0.86474  0.97233  1.0000
  C   C3913     1.0  0.68418  0.91754  0.24695  1.0000
  C   C3914     1.0  0.85683  0.94396  0.95631  1.0000
  H   H3130     1.0  0.75263  0.87400  0.17486  1.0000
  C   C3915     1.0  0.85546  0.85612  0.96556  1.0000
  H   H3131     1.0  0.66446  0.96808  0.28743  1.0000
  H   H3132     1.0  0.57276  0.77938  0.18971  1.0000
  H   H3133     1.0  0.95934  0.88922  0.16860  1.0000
  C   C3916     1.0  0.89215  0.81156  0.31703  1.0000
  H   H3134     1.0  0.51408  0.98056  0.94754  1.0000
  C   C3917     1.0  0.75950  0.79563  0.27684  1.0000
  H   H3135     1.0  0.89738  0.96046  0.08207  1.0000
  C   C3918     1.0  0.86511  0.79394  0.03386  1.0000
  H   H3136     1.0  0.81391  0.94033  0.15423  1.0000
  H   H3137     1.0  0.69199  0.78075  0.23659  1.0000
  H   H3138     1.0  0.53134  0.80440  0.97591  1.0000
  H   H3139     1.0  0.52814  0.81033  0.34723  1.0000
  C   C3919     1.0  0.81044  0.00652  0.10250  1.0000
  H   H3140     1.0  0.92934  0.88881  0.04314  1.0000
  C   C3920     1.0  0.62906  0.82325  0.17794  1.0000
  H   H3141     1.0  0.77335  0.81482  0.26624  1.0000
  S   S522      1.0  0.69642  0.79889  0.07757  1.0000
  H   H3142     1.0  0.85630  0.00831  0.25384  1.0000
  C   C3921     1.0  0.67228  0.90184  0.18402  1.0000
  H   H3143     1.0  0.96503  0.84682  0.10483  1.0000
  C   C3922     1.0  0.79093  0.82743  0.06859  1.0000
  C   C3923     1.0  0.57229  0.89638  0.24466  1.0000
  C   C3924     1.0  0.87920  0.95623  0.09788  1.0000
  C   C3925     1.0  0.90754  0.76747  0.04869  1.0000
  H   H3144     1.0  0.74704  0.85298  0.94084  1.0000
  S   S523      1.0  0.57410  0.80567  0.30837  1.0000
  C   C3926     1.0  0.65291  0.95485  0.04258  1.0000
  Fe  Fe258     1.0  0.74885  0.96413  0.00211  1.0000
  C   C3927     1.0  0.89152  0.98007  0.98395  1.0000
  S   S524      1.0  0.70853  0.79318  0.97213  1.0000
  C   C3928     1.0  0.76272  0.83666  0.34779  1.0000
  H   H3145     1.0  0.96347  0.91712  0.28042  1.0000
  Fe  Fe259     1.0  0.87315  0.88358  0.18320  1.0000
  H   H3146     1.0  0.72607  0.88443  0.34671  1.0000
  Fe  Fe260     1.0  0.58175  0.95761  0.37796  1.0000
  C   C3929     1.0  0.67889  0.86362  0.30490  1.0000
  C   C3930     1.0  0.72682  0.99684  0.09619  1.0000
  H   H3147     1.0  0.86473  0.92558  0.06852  1.0000
  C   C3931     1.0  0.72587  0.83439  0.33941  1.0000
  C   C3932     1.0  0.80869  0.92349  0.32199  1.0000
  C   C3933     1.0  0.93517  0.96247  0.11461  1.0000
  S   S525      1.0  0.76474  0.96685  0.92779  1.0000
  C   C3934     1.0  0.79194  0.77005  0.90283  1.0000
  C   C3935     1.0  0.97348  0.89847  0.13624  1.0000
  C   C3936     1.0  0.94784  0.96328  0.03437  1.0000
  C   C3937     1.0  0.89857  0.88088  0.27928  1.0000
  Fe  Fe261     1.0  0.59579  0.78819  0.32902  1.0000
  H   H3148     1.0  0.73135  0.80370  0.11251  1.0000
  C   C3938     1.0  0.64422  0.90570  0.24346  1.0000
  C   C3939     1.0  0.96838  0.90470  0.09593  1.0000
  C   C3940     1.0  0.75384  0.89149  0.18003  1.0000
  C   C3941     1.0  0.70831  0.97521  0.12801  1.0000
  H   H3149     1.0  0.89619  0.81244  0.10601  1.0000
  C   C3942     1.0  0.91713  0.78125  0.19276  1.0000
  H   H3150     1.0  0.70494  0.88671  0.94331  1.0000
  C   C3943     1.0  0.76720  0.91302  0.14348  1.0000
  C   C3944     1.0  0.52671  0.93443  0.99935  1.0000
  H   H3151     1.0  0.90790  0.90456  0.09936  1.0000
  C   C3945     1.0  0.51918  0.01033  0.30299  1.0000
  H   H3152     1.0  0.83260  0.95438  0.99650  1.0000
  H   H3153     1.0  0.69740  0.92451  0.26461  1.0000
  C   C3946     1.0  0.87428  0.97036  0.12601  1.0000
  H   H3154     1.0  0.73470  0.91682  0.26060  1.0000
  C   C3947     1.0  0.84372  0.95710  0.26436  1.0000
  C   C3948     1.0  0.85243  0.80735  0.32985  1.0000
  C   C3949     1.0  0.65252  0.77447  0.32738  1.0000
  C   C3950     1.0  0.79316  0.00580  0.18060  1.0000
  H   H3155     1.0  0.59896  0.76815  0.22469  1.0000
  C   C3951     1.0  0.69314  0.88452  0.37488  1.0000
  C   C3952     1.0  0.53462  0.01255  0.26167  1.0000
  S   S526      1.0  0.50270  0.91248  0.14952  1.0000
  C   C3953     1.0  0.79169  0.76823  0.04425  1.0000
  Fe  Fe262     1.0  0.55576  0.79510  0.38407  1.0000
  C   C3954     1.0  0.97835  0.89324  0.38161  1.0000
  Fe  Fe263     1.0  0.72100  0.97510  0.37381  1.0000
  H   H3156     1.0  0.60610  0.99838  0.11974  1.0000
  C   C3955     1.0  0.62115  0.00442  0.08960  1.0000
  H   H3157     1.0  0.94895  0.96979  0.38684  1.0000
  H   H3158     1.0  0.81213  0.01119  0.06623  1.0000
  Fe  Fe264     1.0  0.59426  0.01215  0.36031  1.0000
  H   H3159     1.0  0.85196  0.85209  0.89900  1.0000
  H   H3160     1.0  0.74780  0.78780  0.89833  1.0000
  H   H3161     1.0  0.50515  0.77969  0.31471  1.0000
  C   C3956     1.0  0.69901  0.01219  0.08530  1.0000
  C   C3957     1.0  0.72225  0.01536  0.07525  1.0000
  H   H3162     1.0  0.73227  0.01234  0.17781  1.0000
  C   C3958     1.0  0.53815  0.86476  0.90080  1.0000
  H   H3163     1.0  0.66361  0.99070  0.39005  1.0000
  S   S527      1.0  0.74376  0.01560  0.36714  1.0000
  C   C3959     1.0  0.62072  0.93810  0.39008  1.0000
  S   S528      1.0  0.83383  0.99329  0.90052  1.0000
  H   H3164     1.0  0.87769  0.98544  0.38819  1.0000
  H   H3165     1.0  0.64908  0.76770  0.29795  1.0000
  H   H3166     1.0  0.99356  0.78325  0.09359  1.0000
  C   C3960     1.0  0.64419  0.01618  0.09279  1.0000
  H   H3167     1.0  0.50232  0.90962  0.39472  1.0000
  H   H3168     1.0  0.72797  0.81026  0.39434  1.0000
