data_image0
_chemical_formula_structural       CH2FeCSFeS2FeCSC4SCFeS2FeS2FeSFeS3C6H3C3HC7H4C6H4C2H4C3H2CH3C3HC2HCHCPHC2HCH3C3HCH2C2HC2H2CHCH2CHCH2CHCH2CH4CHCHC2HC4H2C2HC3HCHC3H2CHC5H2CH4C2HCH3SC2HC6H4CHSH4C2HCH2PC3H3C6SC5HS2HCHPH4C2HCFeHC6PC9HC3H5CH2CH3CFeHPC3HC7HPCH2C3HC3HCHCHPHPHCHC6HC3H2CFeHCHC2HCH2CHCHCH2C4HFeS2CH2SHCFeS2HFeS2C2SHCFeS2FeSCFeSFeS3C7H3C6H4SCPC8H4CH2CH3C2HFeHC2H3C2SCH4C2HSHCHCH2C2HCH2CH4CH3SC6HC5H3CHSCH4C4H4SC2H4CH2CHC3HCHC5HC3H3C3H2C5HFeCH2C2HCH2CH2SH3C7PC18H22C2HFeC3HPC2HCHC8HSHCHC2H3C5HC2FeS2CSHFeSFeSC2SFeS2FeS2FeSFeS3H2C6H5C5H4CHC6H7C7H2C7H4CHC2H4C2H4SH2CH3CHC4H2C3H6CH2C3HC3FeCHCHC2HCH2CH2CH2C3PHC2H2CH2C3H3CHC2HC4HC2HC6PC18H20C4HC3PC2HS2FeCHC2H5C6HC3H3C2HFeC2HC3HC2H2C4H2S2C2H4C2PH2C2SFe2CHCS2CFeCFeS2CFeSCSHCFeS2FeS2FeS2FeSFeS3C8H4C6H3C3HC6H5C2HC3H5C6H5CHCHCH3CH3CH3C2H2PC2HC8H2CFeHC3HCH2CH6PCHCHCHCH2C2HC3HC3H2C2HCPC2HC3HSCHCHC2H3C2HCHCH2C2HCHC4SHC6PC18H20CSCH3CHC7PC5HC12H6C3H6CHC2HCHSHCH3CSCHFeH3C3HSHC2PCH3CFeCSCSHCFeCH2S2FeS2H2FeS2FeS2FeSFeS3FeS2FeS2FeSFeS2C2H3C5H2C6H4C2HC6H4C2H4CHC7H4C3H2CH2C2HC2SHC6H2C2HCHSCHCHC4H11C3H2CHC3HC2PC16HPH3CH2C3FeSHC2H2SH3CSHCHSC8PC2HC2H4C2H5CH2CH4C6PHC2HC3HCH3C6H5SHSH6CH6C2HC2HCHCHC5H3CH3CHCH2CHC4HC2PC20H5CH2C4HFeH2CH2CH3FeCHFeH4CH4FeS2CHCFeHSCFeSHFeS2FeS2FeSFeS3FeS2FeS2Fe2S3CH5C2H2C6H4C6H4CH4SHC6H6C5HCH2C2PCH3CSCH2C2HCHCHC2H2C7H2C2PC12H2C2H6CH4C2HCHC4H3SCSH2CFeCSH3C3PC7H2C2HC2H3CHCH3C2H3CHC2HC3HCH2C4FeH2C2H2C3H2C2HCH2SH5CHC2H3CHC2PC15HCH11C4HC6PC14H17CHC2H2CH4C5HCHCPHCHC9HC3PHCH3CH2C2HCHC2HSHFeH2SFeSFeSHFeS2FeSFeS3HCSCFeSHFeS2FeS2FeSFeS3C9H4CHCH2C6H4CH2C9H4CHCHCHC2H5CHC2HCH3C3PC11H2CH6SH5C6PC18HC2H3C2H16CH2CHCH3PC13H2C5PCH7SC2H4C5SFeHC2HCHPHC6HC3HCHC5HCH5C3HCHC4H2C4HCPSC2HC3H2CHC3H4C2H2C4HC2H2C2HC2H4C2HC3HCH3CPC3HCHCHC3HCPCHC3H4CHCH2CH2CSHCH3C3HCH2C4H4CHCH4C3HC2SC2HC3FeCSFeCSFeS2FeS2Fe2S4CS2FeS2FeS2FeS2FeSFeS3C6H4C2HC6H5C2HC5HC6H4SCHCHC4HC2HCH2FeC2HC2FeCHSH2C5H4FeHCH2C2H2CH3CHCSC2HC3H3SHC3H3CHCHCH2C3HC2HC3H3C3H2C3HCHCHC3H3C2HC3HCH5CH2C8PC4HC8HC4H7CH2CHCH4C2HCHPH4C4HCH2CH2SC4H2CHC2HCHC2HPC2P2CH2C9H2C2H2CHCHCH6SCH3SC2H8CH2C2PCH2C4HCHC3HC3FeS2HSCFeSFeS2FeS2FeSFeS3FeS2HSHCPHC6HCH2C6H4C4HC6H4C6H4C6H4CHCHC6PC18H20C2HCHC2SHCH5SC5PCH2CHCHCH2C3HC3HCHCHFeC3HPC2H5CH3C4HC4HC2HCHCH4C2H3C3HCHC3PH4C2HCHC2HCHCHC2H2C6HCHC3HCH2C2PC3H2C15H2CH12C4H2CH2CH4CSHCHSHCHC3HFeCSHPFeHCHFeS2CSCFeSFeS2FeS2FeSFeS3H2C2FeS2C6H2CH3C6H4C6H4CHC9H4C6H4SCH4SC4SCHCH2C2H6SH4C2FeHCHCHC8PC18H20CHC5H3C4HCHC5HCHC12PC14H12C2HCHCHC2SCH2C2HC3H2CHCH5CH2C2H4FeHCHCHCH3CHCH2C2HCFeC2H2CSPHC3H6CH2CH2C2HC3SCHFeHSCHC5HPCSC4FeS2FeS2HFeCSCHSCFeS2FeSHFeSFeS3C6H4C2HC6H4CPC6H5CHC2H5FeHCHCH2C9PC9HC4SC3H13CH2CH2SHC2HCH4C4HCFeC3HC2H7CHC6HC10H4CH3C2HCHCSCHC2HCHC3HC8PC2H2CFeC2HCHC7H4CH3C2HC2HC3HCH3CHSC4H2C2HC3HPHCH6CHC2HC4HC2HCH2SC2HCH6CSH5CHCH4CFe2SHCH3CFeS2C2SCFeSH2FeS2FeSHFeSFeS3C7H2CHC8H5C8H5SHCHCHCHC2HCHC4HCHC2HC2SH3C2HCH2CSHC3HCHCPH2C2HCPHCHC2HPCH2C4H2C5H3C4H2CH2CH3CHC2H2C2H2C2HC2HC4H5CHCH2C2H3C2HC3HPC18H2CH6SH11CH2C3HC2SCPC2H2C9HCH3CH2CHC5HCH3CHCHC2H2C3H4FeH3CSHC2H2CH2CHCH3CHCH2CH2C2HCPH2CH
_chemical_formula_sum              "C2040 H1632 Fe136 S272 P68"
_cell_length_a       62.2837
_cell_length_b       61.2271
_cell_length_c       47.6069
_cell_angle_alpha    90.1232
_cell_angle_beta     90.7688
_cell_angle_gamma    120.135

_space_group_name_H-M_alt    "P 1"
_space_group_IT_number       1

loop_
  _space_group_symop_operation_xyz
  'x, y, z'

loop_
  _atom_site_type_symbol
  _atom_site_label
  _atom_site_symmetry_multiplicity
  _atom_site_fract_x
  _atom_site_fract_y
  _atom_site_fract_z
  _atom_site_occupancy
  C   C1        1.0  0.06962  0.10352  0.37679  1.0000
  H   H1        1.0  0.28024  0.37182  0.38570  1.0000
  H   H2        1.0  0.01289  0.29675  0.47745  1.0000
  Fe  Fe1       1.0  0.28061  0.12798  0.47812  1.0000
  C   C2        1.0  0.14334  0.45608  0.29019  1.0000
  S   S1        1.0  0.23997  0.10998  0.46701  1.0000
  Fe  Fe2       1.0  0.13089  0.26207  0.47588  1.0000
  S   S2        1.0  0.14385  0.27389  0.43079  1.0000
  S   S3        1.0  0.11378  0.21998  0.48068  1.0000
  Fe  Fe3       1.0  0.01862  0.37752  0.17281  1.0000
  C   C3        1.0  0.26707  0.03262  0.44430  1.0000
  S   S4        1.0  0.04184  0.36815  0.20326  1.0000
  C   C4        1.0  0.30369  0.34941  0.10658  1.0000
  C   C5        1.0  0.10940  0.48677  0.25069  1.0000
  C   C6        1.0  0.00399  0.46292  0.00954  1.0000
  C   C7        1.0  0.31962  0.17931  0.25629  1.0000
  S   S5        1.0  0.03083  0.41277  0.14777  1.0000
  C   C8        1.0  0.29108  0.03898  0.49654  1.0000
  Fe  Fe4       1.0  0.18289  0.38367  0.31521  1.0000
  S   S6        1.0  0.17730  0.36558  0.27228  1.0000
  S   S7        1.0  0.16143  0.36823  0.35609  1.0000
  Fe  Fe5       1.0  0.22481  0.43560  0.29481  1.0000
  S   S8        1.0  0.22192  0.42114  0.25065  1.0000
  S   S9        1.0  0.25626  0.47291  0.31296  1.0000
  Fe  Fe6       1.0  0.18016  0.40162  0.25599  1.0000
  S   S10       1.0  0.15778  0.40534  0.21940  1.0000
  Fe  Fe7       1.0  0.21938  0.38644  0.26974  1.0000
  S   S11       1.0  0.24322  0.36847  0.25944  1.0000
  S   S12       1.0  0.18361  0.41870  0.29889  1.0000
  S   S13       1.0  0.22431  0.40174  0.31387  1.0000
  C   C9        1.0  0.30187  0.38702  0.19075  1.0000
  C   C10       1.0  0.29996  0.37180  0.21359  1.0000
  C   C11       1.0  0.28181  0.36615  0.23424  1.0000
  C   C12       1.0  0.26569  0.37604  0.23272  1.0000
  C   C13       1.0  0.26765  0.39124  0.20993  1.0000
  C   C14       1.0  0.28555  0.39665  0.18910  1.0000
  H   H3        1.0  0.28034  0.35417  0.25162  1.0000
  H   H4        1.0  0.25494  0.39830  0.20810  1.0000
  H   H5        1.0  0.28662  0.40824  0.17146  1.0000
  C   C15       1.0  0.23640  0.04592  0.40786  1.0000
  C   C16       1.0  0.28774  0.02866  0.37260  1.0000
  C   C17       1.0  0.30672  0.32997  0.06336  1.0000
  H   H6        1.0  0.16968  0.45274  0.35228  1.0000
  C   C18       1.0  0.12096  0.41381  0.30972  1.0000
  C   C19       1.0  0.07430  0.37927  0.20741  1.0000
  C   C20       1.0  0.08292  0.37337  0.23217  1.0000
  C   C21       1.0  0.10833  0.38131  0.23632  1.0000
  C   C22       1.0  0.12554  0.39517  0.21563  1.0000
  C   C23       1.0  0.11696  0.40116  0.19090  1.0000
  C   C24       1.0  0.09157  0.39336  0.18682  1.0000
  H   H7        1.0  0.06979  0.36243  0.24821  1.0000
  H   H8        1.0  0.11456  0.37647  0.25539  1.0000
  H   H9        1.0  0.13006  0.41183  0.17472  1.0000
  H   H10       1.0  0.08531  0.39795  0.16759  1.0000
  C   C25       1.0  0.14845  0.30043  0.41078  1.0000
  C   C26       1.0  0.14688  0.32061  0.42231  1.0000
  C   C27       1.0  0.15092  0.34118  0.40528  1.0000
  C   C28       1.0  0.15698  0.34205  0.37673  1.0000
  C   C29       1.0  0.15849  0.32182  0.36527  1.0000
  C   C30       1.0  0.15395  0.30108  0.38217  1.0000
  H   H11       1.0  0.14253  0.32037  0.44427  1.0000
  H   H12       1.0  0.14954  0.35663  0.41434  1.0000
  H   H13       1.0  0.16263  0.32192  0.34327  1.0000
  H   H14       1.0  0.15427  0.28515  0.37298  1.0000
  C   C31       1.0  0.27472  0.27930  0.03890  1.0000
  C   C32       1.0  0.08545  0.12136  0.39675  1.0000
  H   H15       1.0  0.27181  0.02112  0.13928  1.0000
  H   H16       1.0  0.16774  0.10132  0.44343  1.0000
  H   H17       1.0  0.16201  0.28264  0.27996  1.0000
  H   H18       1.0  0.21594  0.25753  0.06238  1.0000
  C   C33       1.0  0.26412  0.44820  0.15486  1.0000
  C   C34       1.0  0.25692  0.44215  0.18274  1.0000
  C   C35       1.0  0.11934  0.47097  0.24576  1.0000
  H   H19       1.0  0.21301  0.36041  0.35503  1.0000
  H   H20       1.0  0.28983  0.08193  0.39756  1.0000
  C   C36       1.0  0.10605  0.44962  0.22831  1.0000
  H   H21       1.0  0.26261  0.08875  0.29177  1.0000
  H   H22       1.0  0.20140  0.19222  0.45612  1.0000
  H   H23       1.0  0.22136  0.03507  0.44957  1.0000
  C   C37       1.0  0.18766  0.47052  0.24567  1.0000
  C   C38       1.0  0.30993  0.35113  0.04843  1.0000
  C   C39       1.0  0.00128  0.38698  0.03500  1.0000
  H   H24       1.0  0.00505  0.44280  0.06378  1.0000
  C   C40       1.0  0.99293  0.16119  0.49616  1.0000
  C   C41       1.0  0.28929  0.46280  0.14854  1.0000
  H   H25       1.0  0.30101  0.31319  0.10465  1.0000
  C   C42       1.0  0.03140  0.46295  0.09684  1.0000
  H   H26       1.0  0.21049  0.39341  0.38138  1.0000
  C   C43       1.0  0.19941  0.46965  0.19759  1.0000
  P   P1        1.0  0.32311  0.47596  0.22619  1.0000
  H   H27       1.0  0.29303  0.33674  0.29753  1.0000
  C   C44       1.0  0.15655  0.44682  0.33480  1.0000
  C   C45       1.0  0.13078  0.12488  0.46341  1.0000
  H   H28       1.0  0.11334  0.43723  0.22400  1.0000
  C   C46       1.0  0.09157  0.11349  0.42178  1.0000
  H   H29       1.0  0.22170  0.07973  0.36256  1.0000
  H   H30       1.0  0.30146  0.34887  0.12917  1.0000
  H   H31       1.0  0.14084  0.11644  0.42313  1.0000
  C   C47       1.0  0.21171  0.32671  0.31789  1.0000
  C   C48       1.0  0.30727  0.47115  0.17007  1.0000
  C   C49       1.0  0.11959  0.18275  0.42913  1.0000
  H   H32       1.0  0.21113  0.46734  0.18270  1.0000
  C   C50       1.0  0.13353  0.20659  0.41710  1.0000
  H   H33       1.0  0.24109  0.37762  0.45464  1.0000
  H   H34       1.0  0.08569  0.08107  0.44599  1.0000
  C   C51       1.0  0.02293  0.28529  0.41010  1.0000
  C   C52       1.0  0.27489  0.45034  0.20425  1.0000
  H   H35       1.0  0.28164  0.00017  0.49174  1.0000
  C   C53       1.0  0.31127  0.41649  0.27647  1.0000
  C   C54       1.0  0.29440  0.06999  0.38519  1.0000
  H   H36       1.0  0.17691  0.21026  0.47659  1.0000
  H   H37       1.0  0.31177  0.16382  0.24128  1.0000
  C   C55       1.0  0.09231  0.13905  0.47456  1.0000
  H   H38       1.0  0.03171  0.31131  0.37593  1.0000
  C   C56       1.0  0.22562  0.38763  0.41968  1.0000
  H   H39       1.0  0.27699  0.07180  0.44961  1.0000
  H   H40       1.0  0.32108  0.39301  0.36318  1.0000
  C   C57       1.0  0.31262  0.45275  0.25388  1.0000
  H   H41       1.0  0.19601  0.32707  0.27743  1.0000
  C   C58       1.0  0.17543  0.29080  0.29709  1.0000
  H   H42       1.0  0.22655  0.34615  0.31618  1.0000
  H   H43       1.0  0.03030  0.34411  0.40520  1.0000
  C   C59       1.0  0.18203  0.19896  0.48940  1.0000
  H   H44       1.0  0.31237  0.17608  0.42767  1.0000
  C   C60       1.0  0.19449  0.31591  0.29574  1.0000
  H   H45       1.0  0.25899  0.29082  0.07227  1.0000
  H   H46       1.0  0.30167  0.10923  0.25677  1.0000
  C   C61       1.0  0.00370  0.47613  0.07652  1.0000
  H   H47       1.0  0.04742  0.06393  0.36627  1.0000
  H   H48       1.0  0.01297  0.20398  0.44842  1.0000
  H   H49       1.0  0.22349  0.06361  0.26467  1.0000
  H   H50       1.0  0.26803  0.15718  0.25962  1.0000
  C   C62       1.0  0.20345  0.46875  0.22638  1.0000
  H   H51       1.0  0.29487  0.46753  0.12692  1.0000
  C   C63       1.0  0.05977  0.07774  0.38170  1.0000
  H   H52       1.0  0.27802  0.00837  0.37506  1.0000
  C   C64       1.0  0.31840  0.99900  0.07749  1.0000
  C   C65       1.0  0.12977  0.16697  0.43261  1.0000
  H   H53       1.0  0.24651  0.05854  0.36507  1.0000
  C   C66       1.0  0.08318  0.44397  0.21635  1.0000
  C   C67       1.0  0.22167  0.06992  0.38147  1.0000
  C   C68       1.0  0.13716  0.42181  0.33294  1.0000
  C   C69       1.0  0.30004  0.06004  0.13697  1.0000
  H   H54       1.0  0.05795  0.04979  0.41051  1.0000
  H   H55       1.0  0.26909  0.44535  0.22568  1.0000
  C   C70       1.0  0.30602  0.37586  0.35395  1.0000
  C   C71       1.0  0.30716  0.37051  0.09163  1.0000
  H   H56       1.0  0.31745  0.01613  0.07631  1.0000
  C   C72       1.0  0.20290  0.17391  0.49404  1.0000
  C   C73       1.0  0.12403  0.43080  0.28843  1.0000
  C   C74       1.0  0.15404  0.17538  0.42359  1.0000
  H   H57       1.0  0.13528  0.40836  0.34892  1.0000
  C   C75       1.0  0.01684  0.29957  0.45526  1.0000
  H   H58       1.0  0.20675  0.08503  0.23489  1.0000
  C   C76       1.0  0.13374  0.12423  0.49266  1.0000
  C   C77       1.0  0.22173  0.04485  0.43048  1.0000
  C   C78       1.0  0.08151  0.08756  0.42662  1.0000
  H   H59       1.0  0.02081  0.33662  0.45592  1.0000
  H   H60       1.0  0.99586  0.15011  0.48058  1.0000
  C   C79       1.0  0.20734  0.06904  0.40426  1.0000
  H   H61       1.0  0.19632  0.07819  0.40313  1.0000
  C   C80       1.0  0.26307  0.34170  0.35460  1.0000
  C   C81       1.0  0.22400  0.09609  0.24660  1.0000
  C   C82       1.0  0.01276  0.45925  0.07749  1.0000
  C   C83       1.0  0.19592  0.18867  0.47782  1.0000
  C   C84       1.0  0.28988  0.05911  0.48444  1.0000
  H   H62       1.0  0.29665  0.25215  0.05833  1.0000
  H   H63       1.0  0.27713  0.11265  0.39548  1.0000
  C   C85       1.0  0.31720  0.13008  0.29571  1.0000
  H   H64       1.0  0.28732  0.06685  0.14095  1.0000
  H   H65       1.0  0.11160  0.42380  0.27044  1.0000
  H   H66       1.0  0.02368  0.27116  0.39706  1.0000
  H   H67       1.0  0.07289  0.42723  0.20322  1.0000
  C   C86       1.0  0.04117  0.48349  0.11543  1.0000
  C   C87       1.0  0.23663  0.12245  0.24524  1.0000
  H   H68       1.0  0.16842  0.23342  0.39923  1.0000
  C   C88       1.0  0.20717  0.05626  0.42860  1.0000
  H   H69       1.0  0.32487  0.19201  0.32664  1.0000
  H   H70       1.0  0.29345  0.11366  0.34816  1.0000
  H   H71       1.0  0.31746  0.22358  0.45775  1.0000
  S   S14       1.0  0.00832  0.45229  0.18826  1.0000
  C   C89       1.0  0.21805  0.38284  0.39153  1.0000
  C   C90       1.0  0.29618  0.41727  0.29742  1.0000
  H   H72       1.0  0.29138  0.46714  0.27489  1.0000
  C   C91       1.0  0.99817  0.47233  0.17414  1.0000
  C   C92       1.0  0.28951  0.43589  0.29688  1.0000
  C   C93       1.0  0.25534  0.27758  0.05528  1.0000
  C   C94       1.0  0.15983  0.46382  0.31341  1.0000
  C   C95       1.0  0.07338  0.45966  0.22150  1.0000
  C   C96       1.0  0.16794  0.19925  0.41154  1.0000
  H   H73       1.0  0.25215  0.31499  0.31991  1.0000
  H   H74       1.0  0.12575  0.21889  0.41499  1.0000
  H   H75       1.0  0.27456  0.16987  0.32368  1.0000
  H   H76       1.0  0.19087  0.46929  0.26785  1.0000
  C   C97       1.0  0.31566  0.11449  0.27315  1.0000
  H   H77       1.0  0.28910  0.40308  0.31362  1.0000
  S   S15       1.0  0.01348  0.40009  0.06905  1.0000
  H   H78       1.0  0.10091  0.17677  0.43591  1.0000
  H   H79       1.0  0.16251  0.16383  0.42619  1.0000
  H   H80       1.0  0.19593  0.05534  0.44627  1.0000
  H   H81       1.0  0.20641  0.22670  0.02358  1.0000
  C   C98       1.0  0.16075  0.10682  0.48617  1.0000
  C   C99       1.0  0.28409  0.21290  0.48069  1.0000
  H   H82       1.0  0.02672  0.42138  0.01399  1.0000
  C   C100      1.0  0.31488  0.17484  0.28509  1.0000
  H   H83       1.0  0.05697  0.10903  0.45809  1.0000
  H   H84       1.0  0.25017  0.44149  0.13820  1.0000
  P   P2        1.0  0.01246  0.25178  0.45430  1.0000
  C   C101      1.0  0.03524  0.24430  0.44140  1.0000
  C   C102      1.0  0.32162  0.29168  0.06834  1.0000
  C   C103      1.0  0.26901  0.01267  0.45619  1.0000
  H   H85       1.0  0.25847  0.16851  0.37122  1.0000
  H   H86       1.0  0.27783  0.43662  0.31307  1.0000
  H   H87       1.0  0.21939  0.25024  0.44789  1.0000
  C   C104      1.0  0.05883  0.26381  0.43353  1.0000
  C   C105      1.0  0.07710  0.25836  0.42532  1.0000
  C   C106      1.0  0.07220  0.23348  0.42531  1.0000
  C   C107      1.0  0.04889  0.21398  0.43325  1.0000
  C   C108      1.0  0.03048  0.21932  0.44133  1.0000
  C   C109      1.0  0.01771  0.28096  0.43884  1.0000
  S   S16       1.0  0.22007  0.16100  0.47792  1.0000
  C   C110      1.0  0.02665  0.32647  0.41455  1.0000
  C   C111      1.0  0.02743  0.30798  0.39805  1.0000
  C   C112      1.0  0.30853  0.04000  0.35537  1.0000
  C   C113      1.0  0.30973  0.36611  0.32908  1.0000
  C   C114      1.0  0.28002  0.04356  0.38691  1.0000
  H   H88       1.0  0.05555  0.45511  0.21226  1.0000
  S   S17       1.0  0.32369  0.39417  0.16332  1.0000
  S   S18       1.0  0.30840  0.12846  0.44657  1.0000
  H   H89       1.0  0.31222  0.36411  0.21514  1.0000
  C   C115      1.0  0.06571  0.06977  0.40661  1.0000
  H   H90       1.0  0.18678  0.20577  0.40500  1.0000
  P   P3        1.0  0.25355  0.02944  0.40972  1.0000
  H   H91       1.0  0.06350  0.28338  0.43450  1.0000
  H   H92       1.0  0.09534  0.27351  0.41966  1.0000
  H   H93       1.0  0.08671  0.22946  0.41982  1.0000
  H   H94       1.0  0.04535  0.19477  0.43428  1.0000
  C   C116      1.0  0.15791  0.10738  0.45709  1.0000
  C   C117      1.0  0.29744  0.45336  0.27512  1.0000
  H   H95       1.0  0.23740  0.43076  0.18770  1.0000
  C   C118      1.0  0.29132  0.03405  0.13600  1.0000
  Fe  Fe8       1.0  0.00212  0.38799  0.11483  1.0000
  H   H96       1.0  0.21843  0.46600  0.23379  1.0000
  C   C119      1.0  0.30019  0.46442  0.19805  1.0000
  C   C120      1.0  0.31286  0.26566  0.07022  1.0000
  C   C121      1.0  0.23595  0.05815  0.38311  1.0000
  C   C122      1.0  0.21962  0.36404  0.37653  1.0000
  C   C123      1.0  0.22903  0.34997  0.38953  1.0000
  C   C124      1.0  0.23719  0.35536  0.41773  1.0000
  P   P4        1.0  0.23264  0.32658  0.37006  1.0000
  C   C125      1.0  0.22870  0.30230  0.39448  1.0000
  C   C126      1.0  0.20985  0.31251  0.34182  1.0000
  C   C127      1.0  0.19102  0.28702  0.34264  1.0000
  C   C128      1.0  0.17376  0.27632  0.32046  1.0000
  C   C129      1.0  0.20931  0.29318  0.41383  1.0000
  C   C130      1.0  0.20604  0.27456  0.43304  1.0000
  C   C131      1.0  0.22202  0.26474  0.43299  1.0000
  C   C132      1.0  0.24129  0.27358  0.41366  1.0000
  C   C133      1.0  0.24465  0.29230  0.39443  1.0000
  H   H97       1.0  0.09268  0.14120  0.39263  1.0000
  C   C134      1.0  0.23524  0.37392  0.43278  1.0000
  C   C135      1.0  0.28278  0.36374  0.36668  1.0000
  C   C136      1.0  0.30974  0.22631  0.47682  1.0000
  H   H98       1.0  0.24501  0.34520  0.42818  1.0000
  H   H99       1.0  0.18917  0.27540  0.36051  1.0000
  H   H100      1.0  0.15893  0.25685  0.32153  1.0000
  H   H101      1.0  0.19664  0.30048  0.41405  1.0000
  H   H102      1.0  0.19090  0.26764  0.44779  1.0000
  C   C137      1.0  0.01645  0.25541  0.49206  1.0000
  H   H103      1.0  0.25366  0.26594  0.41364  1.0000
  H   H104      1.0  0.25964  0.29892  0.37962  1.0000
  C   C138      1.0  0.15768  0.21484  0.40832  1.0000
  H   H105      1.0  0.22388  0.40188  0.43129  1.0000
  H   H106      1.0  0.22913  0.13182  0.23257  1.0000
  H   H107      1.0  0.31818  0.23676  0.08935  1.0000
  C   C139      1.0  0.02131  0.32224  0.44312  1.0000
  Fe  Fe9       1.0  0.99963  0.41501  0.16794  1.0000
  H   H108      1.0  0.27186  0.19983  0.46461  1.0000
  P   P5        1.0  0.29673  0.14289  0.29748  1.0000
  C   C140      1.0  0.28579  0.14233  0.33256  1.0000
  C   C141      1.0  0.26875  0.12475  0.27674  1.0000
  C   C142      1.0  0.25884  0.13677  0.26043  1.0000
  H   H109      1.0  0.10644  0.39420  0.30778  1.0000
  C   C143      1.0  0.23346  0.08403  0.26333  1.0000
  C   C144      1.0  0.25567  0.09830  0.27852  1.0000
  C   C145      1.0  0.28599  0.12581  0.35283  1.0000
  C   C146      1.0  0.27651  0.12493  0.37955  1.0000
  C   C147      1.0  0.26669  0.14034  0.38620  1.0000
  C   C148      1.0  0.26604  0.15651  0.36600  1.0000
  C   C149      1.0  0.27534  0.15735  0.33919  1.0000
  H   H110      1.0  0.17571  0.48275  0.31473  1.0000
  P   P6        1.0  0.30652  0.30371  0.04561  1.0000
  C   C150      1.0  0.27773  0.05592  0.45856  1.0000
  H   H111      1.0  0.30774  0.38629  0.10273  1.0000
  H   H112      1.0  0.25986  0.13990  0.40716  1.0000
  C   C151      1.0  0.30351  0.32926  0.09258  1.0000
  C   C152      1.0  0.26706  0.33188  0.32977  1.0000
  C   C153      1.0  0.14287  0.11619  0.44573  1.0000
  H   H113      1.0  0.14965  0.47818  0.19949  1.0000
  C   C154      1.0  0.23081  0.25865  0.04975  1.0000
  C   C155      1.0  0.01183  0.40210  0.01117  1.0000
  C   C156      1.0  0.31019  0.37133  0.06256  1.0000
  H   H114      1.0  0.05580  0.26813  0.49195  1.0000
  C   C157      1.0  0.30778  0.02510  0.13104  1.0000
  H   H115      1.0  0.02069  0.47445  0.02183  1.0000
  C   C158      1.0  0.29025  0.34413  0.31702  1.0000
  H   H116      1.0  0.06487  0.10968  0.35756  1.0000
  P   P7        1.0  0.11137  0.13617  0.44817  1.0000
  H   H117      1.0  0.03786  0.44948  0.09779  1.0000
  P   P8        1.0  0.14874  0.47765  0.26157  1.0000
  H   H118      1.0  0.05499  0.48580  0.13105  1.0000
  C   C159      1.0  0.16791  0.47365  0.23631  1.0000
  H   H119      1.0  0.17663  0.47337  0.16574  1.0000
  C   C160      1.0  0.32214  0.06628  0.35291  1.0000
  C   C161      1.0  0.22544  0.24128  0.02790  1.0000
  C   C162      1.0  0.31521  0.08127  0.36804  1.0000
  C   C163      1.0  0.31941  0.43406  0.25472  1.0000
  C   C164      1.0  0.16440  0.47528  0.20733  1.0000
  C   C165      1.0  0.08649  0.48107  0.23862  1.0000
  H   H120      1.0  0.31598  0.40171  0.27649  1.0000
  C   C166      1.0  0.26917  0.26166  0.01709  1.0000
  C   C167      1.0  0.06632  0.12355  0.47399  1.0000
  C   C168      1.0  0.17992  0.47296  0.18807  1.0000
  H   H121      1.0  0.31320  0.38783  0.05101  1.0000
  H   H122      1.0  0.31280  0.35249  0.02602  1.0000
  C   C169      1.0  0.32518  0.17276  0.41583  1.0000
  Fe  Fe10      1.0  0.23957  0.13979  0.49485  1.0000
  H   H123      1.0  0.26164  0.99475  0.44526  1.0000
  C   C170      1.0  0.23099  0.99689  0.40157  1.0000
  H   H124      1.0  0.23758  0.99981  0.35679  1.0000
  C   C171      1.0  0.24462  0.24277  0.01161  1.0000
  C   C172      1.0  0.28063  0.01576  0.48242  1.0000
  H   H125      1.0  0.31432  0.02842  0.34422  1.0000
  C   C173      1.0  0.32207  0.31314  0.01231  1.0000
  H   H126      1.0  0.29850  0.07731  0.49502  1.0000
  H   H127      1.0  0.03188  0.11563  0.49299  1.0000
  C   C174      1.0  0.05194  0.12713  0.49382  1.0000
  H   H128      1.0  0.12347  0.17054  0.49559  1.0000
  C   C175      1.0  0.10355  0.15804  0.49519  1.0000
  H   H129      1.0  0.28383  0.26252  0.00430  1.0000
  C   C176      1.0  0.32522  0.07727  0.13310  1.0000
  H   H130      1.0  0.07870  0.49308  0.24263  1.0000
  H   H131      1.0  0.17282  0.10047  0.49495  1.0000
  C   C177      1.0  0.32537  0.24317  0.49762  1.0000
  C   C178      1.0  0.32506  0.25684  0.08777  1.0000
  C   C179      1.0  0.06803  0.32906  0.81733  1.0000
  C   C180      1.0  0.02301  0.26209  0.55057  1.0000
  H   H132      1.0  0.17654  0.17649  0.55549  1.0000
  Fe  Fe11      1.0  0.27184  0.13375  0.54016  1.0000
  S   S19       1.0  0.28710  0.14736  0.58510  1.0000
  S   S20       1.0  0.23016  0.11521  0.53296  1.0000
  C   C181      1.0  0.26378  0.02618  0.88957  1.0000
  H   H133      1.0  0.28195  0.31899  0.53669  1.0000
  H   H134      1.0  0.20105  0.15854  0.53502  1.0000
  S   S21       1.0  0.04425  0.18946  0.49886  1.0000
  H   H135      1.0  0.31876  0.29301  0.63981  1.0000
  C   C182      1.0  0.27412  0.21578  0.50563  1.0000
  Fe  Fe12      1.0  0.12470  0.26913  0.53830  1.0000
  S   S22       1.0  0.12340  0.29294  0.57496  1.0000
  S   S23       1.0  0.10764  0.22742  0.54667  1.0000
  H   H136      1.0  0.15675  0.99588  0.50163  1.0000
  Fe  Fe13      1.0  0.02333  0.39548  0.85475  1.0000
  S   S24       1.0  0.28113  0.15962  0.50308  1.0000
  S   S25       1.0  0.06469  0.40925  0.84690  1.0000
  C   C183      1.0  0.17498  0.19477  0.51758  1.0000
  C   C184      1.0  0.26412  0.25697  0.54632  1.0000
  S   S26       1.0  0.01532  0.41122  0.89389  1.0000
  H   H137      1.0  0.25424  0.20523  0.50840  1.0000
  C   C185      1.0  0.24222  0.49283  0.58440  1.0000
  Fe  Fe14      1.0  0.19673  0.40119  0.69366  1.0000
  S   S27       1.0  0.18303  0.37966  0.73398  1.0000
  S   S28       1.0  0.20213  0.38586  0.65186  1.0000
  Fe  Fe15      1.0  0.21019  0.45151  0.72275  1.0000
  S   S29       1.0  0.19768  0.43316  0.76501  1.0000
  C   C186      1.0  0.06338  0.14593  0.51447  1.0000
  Fe  Fe16      1.0  0.21753  0.41176  0.75423  1.0000
  S   S30       1.0  0.23948  0.40414  0.78850  1.0000
  Fe  Fe17      1.0  0.16439  0.40274  0.74171  1.0000
  S   S31       1.0  0.12296  0.38483  0.75271  1.0000
  S   S32       1.0  0.23219  0.43236  0.71368  1.0000
  S   S33       1.0  0.17596  0.42208  0.69975  1.0000
  C   C187      1.0  0.00941  0.19609  0.52908  1.0000
  C   C188      1.0  0.29824  0.39934  0.82116  1.0000
  C   C189      1.0  0.27538  0.39881  0.81745  1.0000
  C   C190      1.0  0.26881  0.40539  0.79169  1.0000
  C   C191      1.0  0.28555  0.41250  0.76955  1.0000
  C   C192      1.0  0.30836  0.41291  0.77322  1.0000
  C   C193      1.0  0.26858  0.00140  0.62412  1.0000
  H   H138      1.0  0.26268  0.39325  0.83477  1.0000
  H   H139      1.0  0.28088  0.41753  0.74956  1.0000
  H   H140      1.0  0.04918  0.36301  0.88167  1.0000
  C   C194      1.0  0.08056  0.40268  0.82004  1.0000
  C   C195      1.0  0.06834  0.38825  0.79609  1.0000
  C   C196      1.0  0.08163  0.38314  0.77572  1.0000
  C   C197      1.0  0.10742  0.39285  0.77859  1.0000
  C   C198      1.0  0.11973  0.40775  0.80223  1.0000
  C   C199      1.0  0.10639  0.41253  0.82281  1.0000
  H   H141      1.0  0.04858  0.38076  0.79341  1.0000
  H   H142      1.0  0.07184  0.37160  0.75756  1.0000
  H   H143      1.0  0.13944  0.41509  0.80495  1.0000
  H   H144      1.0  0.11617  0.42379  0.84115  1.0000
  S   S34       1.0  0.15846  0.20820  0.53410  1.0000
  C   C200      1.0  0.31538  0.24640  0.52239  1.0000
  P   P9        1.0  0.01881  0.30893  0.89567  1.0000
  C   C201      1.0  0.21596  0.00728  0.50245  1.0000
  C   C202      1.0  0.06336  0.48082  0.91974  1.0000
  C   C203      1.0  0.14589  0.31883  0.59586  1.0000
  C   C204      1.0  0.13773  0.32688  0.61903  1.0000
  C   C205      1.0  0.15462  0.34703  0.63658  1.0000
  C   C206      1.0  0.18000  0.35981  0.63086  1.0000
  C   C207      1.0  0.18819  0.35198  0.60749  1.0000
  C   C208      1.0  0.17129  0.33162  0.59010  1.0000
  H   H145      1.0  0.11811  0.31746  0.62336  1.0000
  H   H146      1.0  0.14796  0.35287  0.65432  1.0000
  H   H147      1.0  0.20775  0.36176  0.60276  1.0000
  H   H148      1.0  0.17787  0.32587  0.57224  1.0000
  C   C209      1.0  0.31039  0.31753  0.98932  1.0000
  H   H149      1.0  0.29274  0.19201  0.73166  1.0000
  H   H150      1.0  0.31625  0.19857  0.67765  1.0000
  C   C210      1.0  0.18135  0.46043  0.83076  1.0000
  H   H151      1.0  0.01181  0.40428  0.96568  1.0000
  H   H152      1.0  0.23252  0.45388  0.58928  1.0000
  H   H153      1.0  0.30758  0.15711  0.64133  1.0000
  C   C211      1.0  0.19598  0.16987  0.52223  1.0000
  C   C212      1.0  0.10205  0.47455  0.82107  1.0000
  H   H154      1.0  0.22944  0.22220  0.58685  1.0000
  Fe  Fe18      1.0  0.13785  0.22891  0.51931  1.0000
  H   H155      1.0  0.20260  0.14410  0.60446  1.0000
  C   C213      1.0  0.18200  0.18006  0.53378  1.0000
  C   C214      1.0  0.02461  0.33652  0.94480  1.0000
  H   H156      1.0  0.25812  0.49251  0.68426  1.0000
  H   H157      1.0  0.02551  0.26423  0.57318  1.0000
  H   H158      1.0  0.10396  0.45815  0.82465  1.0000
  C   C215      1.0  0.24559  0.28768  0.52671  1.0000
  C   C216      1.0  0.15608  0.48527  0.84700  1.0000
  S   S35       1.0  0.27388  0.10314  0.51597  1.0000
  C   C217      1.0  0.22036  0.46697  0.62423  1.0000
  H   H159      1.0  0.30144  0.03810  0.90143  1.0000
  H   H160      1.0  0.02810  0.23687  0.96247  1.0000
  H   H161      1.0  0.16424  0.46464  0.70342  1.0000
  H   H162      1.0  0.01525  0.46942  0.83248  1.0000
  C   C218      1.0  0.08918  0.16120  0.51530  1.0000
  C   C219      1.0  0.05311  0.38352  0.91963  1.0000
  H   H163      1.0  0.28850  0.47032  0.61330  1.0000
  S   S36       1.0  0.99739  0.40234  0.82748  1.0000
  H   H164      1.0  0.32093  0.41820  0.75583  1.0000
  C   C220      1.0  0.30987  0.19510  0.74137  1.0000
  H   H165      1.0  0.16288  0.47780  0.88944  1.0000
  C   C221      1.0  0.00341  0.39246  0.98371  1.0000
  H   H166      1.0  0.01416  0.32452  0.83847  1.0000
  H   H167      1.0  0.04012  0.33453  0.79678  1.0000
  C   C222      1.0  0.25428  0.02146  0.83969  1.0000
  C   C223      1.0  0.30884  0.99723  0.81951  1.0000
  H   H168      1.0  0.28716  0.27554  0.60172  1.0000
  C   C224      1.0  0.06014  0.31573  0.86583  1.0000
  H   H169      1.0  0.02504  0.21209  0.53924  1.0000
  H   H170      1.0  0.21056  0.48518  0.65618  1.0000
  C   C225      1.0  0.30828  0.22803  0.68953  1.0000
  H   H171      1.0  0.06377  0.40171  0.90966  1.0000
  H   H172      1.0  0.29869  0.29208  0.55296  1.0000
  H   H173      1.0  0.06633  0.31100  0.88499  1.0000
  H   H174      1.0  0.24047  0.22933  0.99463  1.0000
  C   C226      1.0  0.03044  0.33767  0.91623  1.0000
  H   H175      1.0  0.26640  0.00292  0.57904  1.0000
  H   H176      1.0  0.06131  0.27345  0.54320  1.0000
  H   H177      1.0  0.24110  0.01705  0.82250  1.0000
  S   S37       1.0  0.99434  0.35540  0.86460  1.0000
  C   C227      1.0  0.04424  0.27616  0.95186  1.0000
  C   C228      1.0  0.16548  0.47569  0.86735  1.0000
  C   C229      1.0  0.12606  0.44094  0.71512  1.0000
  C   C230      1.0  0.14854  0.11508  0.50392  1.0000
  C   C231      1.0  0.23182  0.46974  0.59841  1.0000
  C   C232      1.0  0.04565  0.32911  0.81600  1.0000
  H   H178      1.0  0.23826  0.29947  0.51949  1.0000
  C   C233      1.0  0.30474  0.20693  0.67384  1.0000
  C   C234      1.0  0.00639  0.24255  0.93076  1.0000
  C   C235      1.0  0.29363  0.47482  0.68456  1.0000
  C   C236      1.0  0.01368  0.18210  0.50888  1.0000
  C   C237      1.0  0.27014  0.29863  0.53656  1.0000
  H   H179      1.0  0.99539  0.48937  0.95291  1.0000
  H   H180      1.0  0.05596  0.31363  0.93748  1.0000
  H   H181      1.0  0.23496  0.02264  0.50374  1.0000
  C   C238      1.0  0.28969  0.23213  0.52687  1.0000
  H   H182      1.0  0.28323  0.46509  0.70287  1.0000
  S   S38       1.0  0.10031  0.26292  0.49979  1.0000
  C   C239      1.0  0.17187  0.46986  0.81034  1.0000
  H   H183      1.0  0.30024  0.04149  0.51677  1.0000
  H   H184      1.0  0.22813  0.22585  0.53351  1.0000
  H   H185      1.0  0.09809  0.17589  0.53118  1.0000
  H   H186      1.0  0.03113  0.46620  0.89235  1.0000
  C   C240      1.0  0.29211  0.23746  0.68487  1.0000
  C   C241      1.0  0.27330  0.22647  0.66432  1.0000
  C   C242      1.0  0.27043  0.20597  0.64839  1.0000
  C   C243      1.0  0.28609  0.19618  0.65314  1.0000
  H   H187      1.0  0.09285  0.32277  0.84337  1.0000
  H   H188      1.0  0.12168  0.42770  0.69788  1.0000
  H   H189      1.0  0.22762  0.01480  0.87175  1.0000
  H   H190      1.0  0.06795  0.45906  0.84395  1.0000
  S   S39       1.0  0.22043  0.49288  0.71980  1.0000
  C   C244      1.0  0.04725  0.38218  0.94803  1.0000
  C   C245      1.0  0.17802  0.46319  0.85923  1.0000
  H   H191      1.0  0.25796  0.02547  0.91106  1.0000
  H   H192      1.0  0.26095  0.23387  0.66068  1.0000
  H   H193      1.0  0.25597  0.19750  0.63248  1.0000
  H   H194      1.0  0.28372  0.18020  0.64071  1.0000
  C   C246      1.0  0.29657  0.47757  0.63392  1.0000
  H   H195      1.0  0.30291  0.39431  0.84117  1.0000
  H   H196      1.0  0.02393  0.45798  0.97565  1.0000
  C   C247      1.0  0.15599  0.47801  0.74127  1.0000
  H   H197      1.0  0.29376  0.25314  0.69704  1.0000
  C   C248      1.0  0.31436  0.23982  0.59142  1.0000
  C   C249      1.0  0.31767  0.27832  0.62610  1.0000
  C   C250      1.0  0.24670  0.02023  0.86743  1.0000
  H   H198      1.0  0.31584  0.00265  0.88827  1.0000
  C   C251      1.0  0.29024  0.48074  0.75833  1.0000
  H   H199      1.0  0.19767  0.18189  0.60678  1.0000
  C   C252      1.0  0.04200  0.29383  0.93540  1.0000
  C   C253      1.0  0.27888  0.02844  0.83408  1.0000
  C   C254      1.0  0.19657  0.01266  0.50290  1.0000
  C   C255      1.0  0.23987  0.24614  0.53518  1.0000
  C   C256      1.0  0.00947  0.48256  0.83916  1.0000
  H   H200      1.0  0.08956  0.42042  0.73264  1.0000
  C   C257      1.0  0.21928  0.48730  0.63602  1.0000
  C   C258      1.0  0.28840  0.03315  0.88402  1.0000
  C   C259      1.0  0.00410  0.26017  0.91426  1.0000
  H   H201      1.0  0.21234  0.44908  0.63515  1.0000
  H   H202      1.0  0.02791  0.35770  0.98245  1.0000
  H   H203      1.0  0.05220  0.14908  0.52943  1.0000
  C   C260      1.0  0.04218  0.48003  0.90844  1.0000
  C   C261      1.0  0.28336  0.46540  0.65791  1.0000
  C   C262      1.0  0.27948  0.28334  0.54607  1.0000
  H   H204      1.0  0.18511  0.45556  0.87498  1.0000
  H   H205      1.0  0.05325  0.39931  0.96019  1.0000
  C   C263      1.0  0.10796  0.43683  0.73475  1.0000
  C   C264      1.0  0.11386  0.45317  0.75781  1.0000
  C   C265      1.0  0.13790  0.47406  0.76114  1.0000
  C   C266      1.0  0.23052  0.26142  0.52586  1.0000
  C   C267      1.0  0.32300  0.16679  0.62727  1.0000
  H   H206      1.0  0.01304  0.31851  0.95475  1.0000
  Fe  Fe19      1.0  0.23316  0.08638  0.50585  1.0000
  C   C268      1.0  0.03307  0.35869  0.96062  1.0000
  H   H207      1.0  0.07997  0.33470  0.79919  1.0000
  H   H208      1.0  0.27077  0.18656  0.56036  1.0000
  C   C269      1.0  0.31501  0.40646  0.79907  1.0000
  C   C270      1.0  0.99640  0.25084  0.50912  1.0000
  H   H209      1.0  0.23961  0.14700  0.58213  1.0000
  C   C271      1.0  0.31841  0.16481  0.59803  1.0000
  H   H210      1.0  0.09972  0.44896  0.77319  1.0000
  H   H211      1.0  0.28023  0.02169  0.62669  1.0000
  C   C272      1.0  0.08164  0.47506  0.83218  1.0000
  H   H212      1.0  0.26508  0.44869  0.65593  1.0000
  H   H213      1.0  0.29240  0.31600  0.99158  1.0000
  S   S40       1.0  0.15652  0.27117  0.51374  1.0000
  H   H214      1.0  0.25901  0.45793  0.78457  1.0000
  H   H215      1.0  0.29201  0.15895  0.76182  1.0000
  H   H216      1.0  0.06861  0.46734  0.91258  1.0000
  C   C273      1.0  0.00594  0.45370  0.98333  1.0000
  C   C274      1.0  0.12339  0.32671  0.72925  1.0000
  C   C275      1.0  0.10578  0.32290  0.70848  1.0000
  C   C276      1.0  0.10317  0.30825  0.68473  1.0000
  C   C277      1.0  0.11842  0.29772  0.68152  1.0000
  C   C278      1.0  0.13659  0.30200  0.70200  1.0000
  C   C279      1.0  0.13872  0.31631  0.72607  1.0000
  P   P10       1.0  0.15671  0.28883  0.69841  1.0000
  C   C280      1.0  0.14498  0.26021  0.71851  1.0000
  C   C281      1.0  0.15810  0.28078  0.66212  1.0000
  C   C282      1.0  0.17924  0.29534  0.64592  1.0000
  C   C283      1.0  0.18008  0.28829  0.61816  1.0000
  C   C284      1.0  0.15980  0.26688  0.60624  1.0000
  C   C285      1.0  0.13873  0.25229  0.62218  1.0000
  C   C286      1.0  0.13792  0.25907  0.65005  1.0000
  C   C287      1.0  0.15339  0.24326  0.71291  1.0000
  C   C288      1.0  0.14453  0.22104  0.72833  1.0000
  C   C289      1.0  0.12727  0.21562  0.74949  1.0000
  C   C290      1.0  0.11886  0.23243  0.75524  1.0000
  C   C291      1.0  0.12766  0.25467  0.73984  1.0000
  C   C292      1.0  0.18705  0.31242  0.71152  1.0000
  C   C293      1.0  0.19948  0.30675  0.73258  1.0000
  C   C294      1.0  0.22222  0.32577  0.74367  1.0000
  C   C295      1.0  0.23271  0.35045  0.73377  1.0000
  C   C296      1.0  0.22057  0.35614  0.71266  1.0000
  C   C297      1.0  0.19772  0.33727  0.70179  1.0000
  H   H217      1.0  0.12554  0.33827  0.74754  1.0000
  H   H218      1.0  0.09444  0.33163  0.71073  1.0000
  H   H219      1.0  0.08966  0.30549  0.66847  1.0000
  H   H220      1.0  0.11633  0.28690  0.66268  1.0000
  H   H221      1.0  0.15251  0.31982  0.74226  1.0000
  H   H222      1.0  0.19503  0.31228  0.65431  1.0000
  H   H223      1.0  0.19618  0.29991  0.60557  1.0000
  H   H224      1.0  0.16017  0.26187  0.58446  1.0000
  H   H225      1.0  0.12284  0.23599  0.61269  1.0000
  H   H226      1.0  0.12137  0.24759  0.66205  1.0000
  H   H227      1.0  0.16683  0.24726  0.69661  1.0000
  H   H228      1.0  0.15105  0.20800  0.72384  1.0000
  H   H229      1.0  0.12040  0.19839  0.76142  1.0000
  H   H230      1.0  0.10547  0.22825  0.77165  1.0000
  H   H231      1.0  0.12087  0.26738  0.74467  1.0000
  H   H232      1.0  0.19155  0.28791  0.74093  1.0000
  H   H233      1.0  0.23158  0.32155  0.76033  1.0000
  H   H234      1.0  0.25005  0.36526  0.74279  1.0000
  H   H235      1.0  0.22852  0.37533  0.70512  1.0000
  H   H236      1.0  0.18815  0.34213  0.68604  1.0000
  H   H237      1.0  0.19098  0.45063  0.82444  1.0000
  H   H238      1.0  0.21153  0.25282  0.51798  1.0000
  C   C298      1.0  0.04317  0.26725  0.53369  1.0000
  C   C299      1.0  0.15002  0.46162  0.71831  1.0000
  H   H239      1.0  0.12485  0.13077  0.50701  1.0000
  Fe  Fe20      1.0  0.08472  0.22137  0.50733  1.0000
  C   C300      1.0  0.99966  0.25400  0.53828  1.0000
  C   C301      1.0  0.29600  0.03390  0.85623  1.0000
  C   C302      1.0  0.30932  0.17639  0.75870  1.0000
  H   H240      1.0  0.15106  0.11499  0.52647  1.0000
  P   P11       1.0  0.27613  0.23698  0.55778  1.0000
  C   C303      1.0  0.25207  0.20723  0.57112  1.0000
  C   C304      1.0  0.29874  0.24982  0.58618  1.0000
  H   H241      1.0  0.05973  0.28238  0.96652  1.0000
  C   C305      1.0  0.07528  0.32239  0.84225  1.0000
  H   H242      1.0  0.29519  0.46617  0.75680  1.0000
  C   C306      1.0  0.29996  0.26857  0.60426  1.0000
  C   C307      1.0  0.25481  0.18584  0.57015  1.0000
  C   C308      1.0  0.23712  0.16329  0.58244  1.0000
  C   C309      1.0  0.21642  0.16176  0.59537  1.0000
  C   C310      1.0  0.21370  0.18304  0.59671  1.0000
  C   C311      1.0  0.23162  0.20580  0.58499  1.0000
  C   C312      1.0  0.02185  0.28598  0.91653  1.0000
  C   C313      1.0  0.04473  0.36139  0.90375  1.0000
  H   H243      1.0  0.17452  0.46726  0.78843  1.0000
  S   S41       1.0  0.20170  0.04434  0.50504  1.0000
  H   H244      1.0  0.31354  0.32889  0.94596  1.0000
  C   C314      1.0  0.03078  0.32308  0.83968  1.0000
  H   H245      1.0  0.28459  0.02954  0.81247  1.0000
  C   C315      1.0  0.32210  0.32451  0.96336  1.0000
  C   C316      1.0  0.03766  0.31588  0.86470  1.0000
  H   H246      1.0  0.24532  0.48956  0.78679  1.0000
  H   H247      1.0  0.31297  0.22446  0.57862  1.0000
  H   H248      1.0  0.99251  0.22269  0.92908  1.0000
  C   C317      1.0  0.15888  0.48209  0.81830  1.0000
  C   C318      1.0  0.03994  0.26405  0.50456  1.0000
  C   C319      1.0  0.26950  0.47586  0.77400  1.0000
  C   C320      1.0  0.02642  0.25053  0.94958  1.0000
  C   C321      1.0  0.26190  0.49373  0.77544  1.0000
  H   H249      1.0  0.17496  0.49335  0.74381  1.0000
  C   C322      1.0  0.13977  0.78210  0.23473  1.0000
  C   C323      1.0  0.21520  0.98131  0.42265  1.0000
  Fe  Fe21      1.0  0.12879  0.83641  0.46660  1.0000
  S   S42       1.0  0.12979  0.80896  0.43415  1.0000
  S   S43       1.0  0.11834  0.86668  0.46126  1.0000
  C   C324      1.0  0.30022  0.95076  0.19715  1.0000
  S   S44       1.0  0.02443  0.59514  0.12294  1.0000
  H   H250      1.0  0.30378  0.94832  0.11914  1.0000
  Fe  Fe22      1.0  0.03129  0.62165  0.16005  1.0000
  S   S45       1.0  0.06569  0.64080  0.18994  1.0000
  Fe  Fe23      1.0  0.30620  0.62087  0.33776  1.0000
  S   S46       1.0  0.28035  0.58746  0.30918  1.0000
  C   C325      1.0  0.29305  0.95776  0.17237  1.0000
  C   C326      1.0  0.32073  0.64563  0.47347  1.0000
  S   S47       1.0  0.28985  0.64010  0.36280  1.0000
  Fe  Fe24      1.0  0.20426  0.80075  0.29571  1.0000
  S   S48       1.0  0.20972  0.81037  0.24959  1.0000
  S   S49       1.0  0.19221  0.82379  0.32276  1.0000
  Fe  Fe25      1.0  0.22516  0.76463  0.28982  1.0000
  S   S50       1.0  0.23233  0.77244  0.24360  1.0000
  S   S51       1.0  0.22769  0.73418  0.31534  1.0000
  Fe  Fe26      1.0  0.24724  0.81370  0.25476  1.0000
  S   S52       1.0  0.28566  0.84768  0.24350  1.0000
  Fe  Fe27      1.0  0.19417  0.76846  0.24183  1.0000
  S   S53       1.0  0.16641  0.74811  0.20518  1.0000
  S   S54       1.0  0.24243  0.80581  0.30144  1.0000
  S   S55       1.0  0.18634  0.75893  0.28750  1.0000
  H   H251      1.0  0.19426  0.52369  0.24367  1.0000
  H   H252      1.0  0.19147  0.93466  0.12174  1.0000
  C   C327      1.0  0.28985  0.71386  0.32053  1.0000
  C   C328      1.0  0.29352  0.73532  0.30571  1.0000
  C   C329      1.0  0.27461  0.74155  0.30346  1.0000
  C   C330      1.0  0.25178  0.72651  0.31630  1.0000
  C   C331      1.0  0.24794  0.70482  0.33082  1.0000
  C   C332      1.0  0.26676  0.69840  0.33273  1.0000
  H   H253      1.0  0.31127  0.74739  0.29613  1.0000
  H   H254      1.0  0.27789  0.75827  0.29223  1.0000
  H   H255      1.0  0.23038  0.69300  0.34084  1.0000
  H   H256      1.0  0.26358  0.68178  0.34405  1.0000
  H   H257      1.0  0.25777  0.97686  0.17189  1.0000
  C   C333      1.0  0.24959  0.51201  0.29318  1.0000
  C   C334      1.0  0.25541  0.53745  0.29266  1.0000
  C   C335      1.0  0.27348  0.55557  0.31110  1.0000
  C   C336      1.0  0.28583  0.54798  0.32996  1.0000
  C   C337      1.0  0.28028  0.52263  0.33017  1.0000
  H   H258      1.0  0.04647  0.55654  0.06709  1.0000
  H   H259      1.0  0.24584  0.54312  0.27788  1.0000
  H   H260      1.0  0.29964  0.56161  0.34439  1.0000
  H   H261      1.0  0.29004  0.51699  0.34473  1.0000
  C   C338      1.0  0.02980  0.62253  0.01907  1.0000
  H   H262      1.0  0.04260  0.62882  0.03681  1.0000
  C   C339      1.0  0.13805  0.71844  0.20190  1.0000
  C   C340      1.0  0.13077  0.69940  0.22190  1.0000
  C   C341      1.0  0.10871  0.67589  0.21782  1.0000
  C   C342      1.0  0.09327  0.67111  0.19391  1.0000
  C   C343      1.0  0.10033  0.69032  0.17414  1.0000
  C   C344      1.0  0.12263  0.71367  0.17801  1.0000
  H   H263      1.0  0.14255  0.70260  0.24011  1.0000
  H   H264      1.0  0.10358  0.66128  0.23331  1.0000
  H   H265      1.0  0.08881  0.68708  0.15562  1.0000
  H   H266      1.0  0.12803  0.72815  0.16228  1.0000
  H   H267      1.0  0.28766  0.62592  0.49811  1.0000
  H   H268      1.0  0.08906  0.72400  0.22568  1.0000
  H   H269      1.0  0.11910  0.50343  0.26383  1.0000
  C   C345      1.0  0.24904  0.96953  0.15154  1.0000
  C   C346      1.0  0.29734  0.89069  0.17285  1.0000
  C   C347      1.0  0.28585  0.87133  0.19294  1.0000
  C   C348      1.0  0.29812  0.87260  0.21828  1.0000
  C   C349      1.0  0.14002  0.76308  0.47112  1.0000
  C   C350      1.0  0.16465  0.77725  0.46245  1.0000
  C   C351      1.0  0.02897  0.67790  0.02430  1.0000
  H   H270      1.0  0.26771  0.85515  0.18856  1.0000
  H   H271      1.0  0.21257  0.82944  0.40428  1.0000
  C   C352      1.0  0.02929  0.66655  0.23140  1.0000
  C   C353      1.0  0.14810  0.81365  0.40385  1.0000
  C   C354      1.0  0.16205  0.83734  0.39153  1.0000
  C   C355      1.0  0.17547  0.83998  0.36690  1.0000
  C   C356      1.0  0.17531  0.81906  0.35428  1.0000
  C   C357      1.0  0.16160  0.79538  0.36678  1.0000
  C   C358      1.0  0.14805  0.79273  0.39137  1.0000
  H   H272      1.0  0.16212  0.85356  0.40067  1.0000
  H   H273      1.0  0.18595  0.85836  0.35740  1.0000
  H   H274      1.0  0.16127  0.77912  0.35739  1.0000
  H   H275      1.0  0.13737  0.77432  0.40072  1.0000
  C   C359      1.0  0.30371  0.69718  0.41592  1.0000
  H   H276      1.0  0.25984  0.86711  0.45815  1.0000
  C   C360      1.0  0.04620  0.55345  0.04461  1.0000
  C   C361      1.0  0.31072  0.53434  0.24358  1.0000
  H   H277      1.0  0.00500  0.75326  0.41597  1.0000
  H   H278      1.0  0.99827  0.56185  0.27169  1.0000
  H   H279      1.0  0.18139  0.84089  0.45171  1.0000
  H   H280      1.0  0.30351  0.75222  0.40803  1.0000
  C   C362      1.0  0.00171  0.51398  0.17334  1.0000
  C   C363      1.0  0.01498  0.79496  0.48008  1.0000
  H   H281      1.0  0.26573  0.56154  0.47571  1.0000
  H   H282      1.0  0.21945  0.81052  0.36217  1.0000
  H   H283      1.0  0.08795  0.70068  0.34576  1.0000
  H   H284      1.0  0.07623  0.75552  0.30173  1.0000
  S   S56       1.0  0.30379  0.63649  0.44109  1.0000
  H   H285      1.0  0.18515  0.94441  0.43317  1.0000
  H   H286      1.0  0.30156  0.50770  0.20997  1.0000
  C   C364      1.0  0.08623  0.72864  0.37125  1.0000
  H   H287      1.0  0.01103  0.71666  0.48743  1.0000
  H   H288      1.0  0.00743  0.51033  0.09524  1.0000
  H   H289      1.0  0.01077  0.53341  0.18057  1.0000
  C   C365      1.0  0.04826  0.53324  0.03419  1.0000
  H   H290      1.0  0.02441  0.72817  0.40188  1.0000
  C   C366      1.0  0.18750  0.52804  0.26248  1.0000
  C   C367      1.0  0.20141  0.55219  0.27444  1.0000
  C   C368      1.0  0.19354  0.55825  0.29907  1.0000
  C   C369      1.0  0.17164  0.54024  0.31171  1.0000
  H   H291      1.0  0.21671  0.98850  0.44379  1.0000
  H   H292      1.0  0.06747  0.67816  0.23942  1.0000
  C   C370      1.0  0.12543  0.76191  0.27965  1.0000
  C   C371      1.0  0.21787  0.80532  0.43357  1.0000
  C   C372      1.0  0.22587  0.95027  0.09938  1.0000
  H   H293      1.0  0.29515  0.67821  0.40725  1.0000
  H   H294      1.0  0.13523  0.72377  0.29224  1.0000
  H   H295      1.0  0.26447  0.83010  0.46361  1.0000
  H   H296      1.0  0.21872  0.56604  0.26507  1.0000
  H   H297      1.0  0.20474  0.57676  0.30864  1.0000
  H   H298      1.0  0.16575  0.54487  0.33103  1.0000
  C   C373      1.0  0.19400  0.94689  0.38920  1.0000
  H   H299      1.0  0.03548  0.71078  0.29331  1.0000
  H   H300      1.0  0.23576  0.49834  0.27885  1.0000
  C   C374      1.0  0.00557  0.66792  0.01152  1.0000
  C   C375      1.0  0.18106  0.80032  0.47584  1.0000
  C   C376      1.0  0.21987  0.85075  0.45683  1.0000
  H   H301      1.0  0.26255  0.96751  0.08266  1.0000
  C   C377      1.0  0.01139  0.68488  0.26151  1.0000
  C   C378      1.0  0.24981  0.89509  0.44906  1.0000
  C   C379      1.0  0.20059  0.85584  0.45151  1.0000
  Fe  Fe28      1.0  0.31846  0.64623  0.39632  1.0000
  C   C380      1.0  0.04335  0.56947  0.02603  1.0000
  H   H302      1.0  0.29038  0.93122  0.20377  1.0000
  C   C381      1.0  0.07851  0.74753  0.32107  1.0000
  H   H303      1.0  0.03051  0.67318  0.04592  1.0000
  C   C382      1.0  0.22026  0.80342  0.38277  1.0000
  C   C383      1.0  0.14224  0.78258  0.26394  1.0000
  H   H304      1.0  0.00334  0.60388  0.26106  1.0000
  C   C384      1.0  0.13163  0.77178  0.49320  1.0000
  H   H305      1.0  0.12816  0.76260  0.30223  1.0000
  H   H306      1.0  0.15750  0.79882  0.27441  1.0000
  C   C385      1.0  0.30838  0.73885  0.41657  1.0000
  H   H307      1.0  0.15301  0.69620  0.29858  1.0000
  H   H308      1.0  0.17055  0.77036  0.44496  1.0000
  C   C386      1.0  0.05457  0.69627  0.26844  1.0000
  H   H309      1.0  0.22231  0.77715  0.45620  1.0000
  H   H310      1.0  0.08976  0.72172  0.39068  1.0000
  C   C387      1.0  0.11739  0.66193  0.29991  1.0000
  C   C388      1.0  0.10578  0.74057  0.26624  1.0000
  C   C389      1.0  0.26203  0.50445  0.31195  1.0000
  P   P12       1.0  0.21294  0.81899  0.46480  1.0000
  H   H311      1.0  0.05021  0.52066  0.04864  1.0000
  C   C390      1.0  0.01400  0.49704  0.09498  1.0000
  C   C391      1.0  0.15777  0.51601  0.29994  1.0000
  H   H312      1.0  0.28773  0.88920  0.15322  1.0000
  H   H313      1.0  0.23441  0.91907  0.44014  1.0000
  C   C392      1.0  0.12033  0.76103  0.22123  1.0000
  H   H314      1.0  0.99566  0.68681  0.26729  1.0000
  H   H315      1.0  0.11898  0.76035  0.19849  1.0000
  C   C393      1.0  0.00902  0.66895  0.23912  1.0000
  C   C394      1.0  0.22694  0.98767  0.37381  1.0000
  C   C395      1.0  0.00968  0.49758  0.18347  1.0000
  H   H316      1.0  0.12729  0.74564  0.46033  1.0000
  H   H317      1.0  0.27757  0.94337  0.16019  1.0000
  H   H318      1.0  0.07951  0.63132  0.30009  1.0000
  C   C396      1.0  0.21658  0.81425  0.40681  1.0000
  H   H319      1.0  0.20593  0.95542  0.34640  1.0000
  C   C397      1.0  0.32291  0.54333  0.26945  1.0000
  C   C398      1.0  0.30614  0.98289  0.16315  1.0000
  H   H320      1.0  0.12525  0.64978  0.30232  1.0000
  C   C399      1.0  0.03406  0.69850  0.27617  1.0000
  C   C400      1.0  0.10344  0.74029  0.23684  1.0000
  C   C401      1.0  0.22193  0.78479  0.43581  1.0000
  C   C402      1.0  0.09163  0.65156  0.29863  1.0000
  H   H321      1.0  0.08553  0.75989  0.39142  1.0000
  C   C403      1.0  0.05193  0.68013  0.24595  1.0000
  C   C404      1.0  0.16564  0.50966  0.27528  1.0000
  H   H322      1.0  0.02759  0.65438  0.21385  1.0000
  C   C405      1.0  0.11818  0.57582  0.24842  1.0000
  C   C406      1.0  0.12608  0.55941  0.23899  1.0000
  C   C407      1.0  0.15116  0.56651  0.24115  1.0000
  C   C408      1.0  0.16842  0.59014  0.25247  1.0000
  C   C409      1.0  0.16063  0.60676  0.26204  1.0000
  C   C410      1.0  0.13534  0.59935  0.26003  1.0000
  P   P13       1.0  0.18272  0.63735  0.27683  1.0000
  C   C411      1.0  0.17085  0.64216  0.30928  1.0000
  C   C412      1.0  0.21157  0.63809  0.28460  1.0000
  C   C413      1.0  0.21598  0.63112  0.31120  1.0000
  C   C414      1.0  0.23791  0.63077  0.31673  1.0000
  C   C415      1.0  0.25567  0.63753  0.29588  1.0000
  C   C416      1.0  0.25145  0.64454  0.26938  1.0000
  C   C417      1.0  0.22941  0.64464  0.26365  1.0000
  C   C418      1.0  0.15488  0.62151  0.32588  1.0000
  C   C419      1.0  0.14626  0.62545  0.35133  1.0000
  C   C420      1.0  0.15371  0.64999  0.36049  1.0000
  C   C421      1.0  0.16976  0.67060  0.34421  1.0000
  C   C422      1.0  0.17823  0.66670  0.31872  1.0000
  C   C423      1.0  0.18836  0.66268  0.25309  1.0000
  C   C424      1.0  0.21045  0.68605  0.25576  1.0000
  C   C425      1.0  0.21436  0.70635  0.23896  1.0000
  C   C426      1.0  0.19623  0.70363  0.21941  1.0000
  C   C427      1.0  0.17435  0.68039  0.21630  1.0000
  C   C428      1.0  0.17037  0.65997  0.23305  1.0000
  H   H323      1.0  0.09876  0.57039  0.24648  1.0000
  H   H324      1.0  0.11280  0.54128  0.22976  1.0000
  H   H325      1.0  0.15730  0.55379  0.23382  1.0000
  H   H326      1.0  0.18775  0.59526  0.25365  1.0000
  H   H327      1.0  0.12892  0.61187  0.26720  1.0000
  H   H328      1.0  0.20262  0.62594  0.32776  1.0000
  H   H329      1.0  0.24125  0.62540  0.33727  1.0000
  H   H330      1.0  0.27278  0.63745  0.30028  1.0000
  H   H331      1.0  0.26540  0.65003  0.25338  1.0000
  H   H332      1.0  0.22637  0.64989  0.24289  1.0000
  H   H333      1.0  0.14936  0.60241  0.31941  1.0000
  H   H334      1.0  0.13404  0.60948  0.36413  1.0000
  H   H335      1.0  0.14726  0.65309  0.38032  1.0000
  H   H336      1.0  0.17592  0.68975  0.35130  1.0000
  H   H337      1.0  0.19074  0.68298  0.30664  1.0000
  H   H338      1.0  0.22447  0.68893  0.27140  1.0000
  H   H339      1.0  0.23132  0.72435  0.24163  1.0000
  H   H340      1.0  0.19895  0.71960  0.20688  1.0000
  H   H341      1.0  0.16028  0.67839  0.20115  1.0000
  H   H342      1.0  0.15311  0.64238  0.23038  1.0000
  C   C429      1.0  0.32150  0.70446  0.43748  1.0000
  C   C430      1.0  0.22470  0.78328  0.38516  1.0000
  C   C431      1.0  0.22544  0.77391  0.41168  1.0000
  C   C432      1.0  0.30985  0.98343  0.10121  1.0000
  H   H343      1.0  0.21688  0.94267  0.07920  1.0000
  C   C433      1.0  0.00456  0.61348  0.02351  1.0000
  C   C434      1.0  0.08371  0.75008  0.37172  1.0000
  C   C435      1.0  0.08149  0.66725  0.29500  1.0000
  P   P14       1.0  0.08419  0.71383  0.28682  1.0000
  C   C436      1.0  0.12288  0.70370  0.29413  1.0000
  C   C437      1.0  0.08170  0.72638  0.32032  1.0000
  H   H344      1.0  0.07813  0.77626  0.34703  1.0000
  S   S57       1.0  0.01020  0.63892  0.14001  1.0000
  S   S58       1.0  0.31497  0.70783  0.32371  1.0000
  Fe  Fe29      1.0  0.31920  0.67635  0.34425  1.0000
  C   C438      1.0  0.07962  0.75936  0.34666  1.0000
  H   H345      1.0  0.15333  0.79774  0.22249  1.0000
  C   C439      1.0  0.31062  0.96092  0.10145  1.0000
  C   C440      1.0  0.09710  0.69345  0.29220  1.0000
  H   H346      1.0  0.06151  0.65887  0.29407  1.0000
  H   H347      1.0  0.06840  0.70119  0.01908  1.0000
  H   H348      1.0  0.19078  0.88415  0.44201  1.0000
  H   H349      1.0  0.22740  0.77487  0.36640  1.0000
  H   H350      1.0  0.22869  0.75815  0.41343  1.0000
  C   C441      1.0  0.25179  0.96433  0.10145  1.0000
  C   C442      1.0  0.08520  0.71677  0.34568  1.0000
  C   C443      1.0  0.13300  0.68803  0.29786  1.0000
  C   C444      1.0  0.31193  0.51492  0.22947  1.0000
  C   C445      1.0  0.20587  0.88041  0.44571  1.0000
  C   C446      1.0  0.22313  0.95544  0.14939  1.0000
  H   H351      1.0  0.17984  0.92752  0.38456  1.0000
  C   C447      1.0  0.20878  0.96262  0.36776  1.0000
  C   C448      1.0  0.19706  0.95633  0.41659  1.0000
  C   C449      1.0  0.24458  0.87053  0.45502  1.0000
  H   H352      1.0  0.32174  0.93743  0.07976  1.0000
  H   H353      1.0  0.26890  0.91028  0.44779  1.0000
  H   H354      1.0  0.03990  0.51636  0.12906  1.0000
  C   C450      1.0  0.32074  0.96864  0.21273  1.0000
  C   C451      1.0  0.21155  0.94576  0.12334  1.0000
  H   H355      1.0  0.21203  0.95183  0.16799  1.0000
  Fe  Fe30      1.0  0.00132  0.61068  0.10427  1.0000
  C   C452      1.0  0.29729  0.71442  0.40532  1.0000
  C   C453      1.0  0.32114  0.91178  0.17779  1.0000
  H   H356      1.0  0.29957  0.54184  0.23497  1.0000
  C   C454      1.0  0.26357  0.97392  0.12760  1.0000
  C   C455      1.0  0.23431  0.82073  0.49221  1.0000
  C   C456      1.0  0.32066  0.95455  0.07893  1.0000
  H   H357      1.0  0.04121  0.58480  0.03417  1.0000
  C   C457      1.0  0.23045  0.90006  0.44463  1.0000
  C   C458      1.0  0.32183  0.89384  0.22332  1.0000
  H   H358      1.0  0.31437  0.83185  0.19888  1.0000
  H   H359      1.0  0.14118  0.50200  0.31036  1.0000
  C   C459      1.0  0.25376  0.54872  0.49167  1.0000
  C   C460      1.0  0.32540  0.50428  0.24124  1.0000
  C   C461      1.0  0.00442  0.71990  0.40031  1.0000
  C   C462      1.0  0.03265  0.50067  0.11429  1.0000
  H   H360      1.0  0.02491  0.50451  0.19851  1.0000
  H   H361      1.0  0.32110  0.55768  0.28082  1.0000
  S   S59       1.0  0.99246  0.61316  0.05748  1.0000
  S   S60       1.0  0.99765  0.59220  0.18318  1.0000
  C   C463      1.0  0.04737  0.52899  0.00519  1.0000
  C   C464      1.0  0.05027  0.69349  0.00910  1.0000
  H   H362      1.0  0.22513  0.52449  0.46206  1.0000
  H   H363      1.0  0.02976  0.79245  0.47201  1.0000
  H   H364      1.0  0.28390  0.70893  0.38820  1.0000
  H   H365      1.0  0.30769  0.69360  0.49082  1.0000
  C   C465      1.0  0.23085  0.52793  0.48400  1.0000
  C   C466      1.0  0.25852  0.82671  0.48524  1.0000
  P   P15       1.0  0.29704  0.99158  0.13062  1.0000
  H   H366      1.0  0.31991  0.79645  0.18261  1.0000
  H   H367      1.0  0.99800  0.68407  0.38458  1.0000
  C   C467      1.0  0.99351  0.73406  0.40815  1.0000
  C   C468      1.0  0.02091  0.81692  0.49536  1.0000
  S   S61       1.0  0.18091  0.92992  0.49411  1.0000
  Fe  Fe31      1.0  0.14756  0.88871  0.49512  1.0000
  Fe  Fe32      1.0  0.09168  0.84726  0.49701  1.0000
  C   C469      1.0  0.99578  0.71772  0.49666  1.0000
  H   H368      1.0  0.14777  0.95154  0.49764  1.0000
  C   C470      1.0  0.17229  0.80910  0.49765  1.0000
  S   S62       1.0  0.15942  0.85919  0.49816  1.0000
  S   S63       1.0  0.03517  0.62099  0.93358  1.0000
  C   C471      1.0  0.17199  0.99217  0.50128  1.0000
  Fe  Fe33      1.0  0.02129  0.61651  0.88751  1.0000
  C   C472      1.0  0.02948  0.78393  0.55682  1.0000
  Fe  Fe34      1.0  0.13072  0.84087  0.53139  1.0000
  S   S64       1.0  0.13238  0.82331  0.57340  1.0000
  S   S65       1.0  0.12036  0.87125  0.53034  1.0000
  C   C473      1.0  0.19084  0.54009  0.79983  1.0000
  Fe  Fe35      1.0  0.03651  0.64049  0.82807  1.0000
  S   S66       1.0  0.06078  0.67476  0.80023  1.0000
  C   C474      1.0  0.16801  0.53587  0.75659  1.0000
  S   S67       1.0  0.04955  0.61983  0.85585  1.0000
  H   H369      1.0  0.09461  0.50018  0.94820  1.0000
  C   C475      1.0  0.27519  0.51663  0.76144  1.0000
  Fe  Fe36      1.0  0.31571  0.66721  0.64904  1.0000
  S   S68       1.0  0.28390  0.67530  0.65607  1.0000
  S   S69       1.0  0.30809  0.63712  0.61627  1.0000
  Fe  Fe37      1.0  0.22148  0.80122  0.68519  1.0000
  S   S70       1.0  0.20764  0.80663  0.72691  1.0000
  S   S71       1.0  0.21681  0.81314  0.64063  1.0000
  Fe  Fe38      1.0  0.25444  0.78275  0.71300  1.0000
  S   S72       1.0  0.24307  0.78741  0.75629  1.0000
  S   S73       1.0  0.28530  0.77275  0.70852  1.0000
  Fe  Fe39      1.0  0.20385  0.76906  0.73881  1.0000
  S   S74       1.0  0.17619  0.73724  0.76763  1.0000
  Fe  Fe40      1.0  0.24770  0.82447  0.74197  1.0000
  S   S75       1.0  0.26350  0.85856  0.77244  1.0000
  S   S76       1.0  0.21524  0.76238  0.69596  1.0000
  S   S77       1.0  0.26169  0.82125  0.69983  1.0000
  C   C476      1.0  0.28484  0.70271  0.67057  1.0000
  C   C477      1.0  0.30660  0.72293  0.68206  1.0000
  C   C478      1.0  0.30634  0.74411  0.69357  1.0000
  C   C479      1.0  0.28443  0.74550  0.69362  1.0000
  C   C480      1.0  0.26271  0.72535  0.68199  1.0000
  C   C481      1.0  0.26291  0.70408  0.67069  1.0000
  C   C482      1.0  0.32204  0.69950  0.56038  1.0000
  C   C483      1.0  0.00387  0.72800  0.94214  1.0000
  H   H370      1.0  0.24583  0.72626  0.68148  1.0000
  H   H371      1.0  0.24599  0.68868  0.66174  1.0000
  H   H372      1.0  0.31805  0.82931  0.71561  1.0000
  H   H373      1.0  0.30993  0.63916  0.54428  1.0000
  C   C484      1.0  0.24590  0.51684  0.70137  1.0000
  C   C485      1.0  0.25040  0.54176  0.70257  1.0000
  C   C486      1.0  0.27050  0.56136  0.68828  1.0000
  C   C487      1.0  0.28618  0.55613  0.67247  1.0000
  C   C488      1.0  0.28141  0.53114  0.67092  1.0000
  C   C489      1.0  0.26155  0.51163  0.68551  1.0000
  H   H374      1.0  0.23835  0.54594  0.71478  1.0000
  H   H375      1.0  0.27394  0.58050  0.68961  1.0000
  H   H376      1.0  0.29317  0.52681  0.65838  1.0000
  C   C490      1.0  0.02253  0.61723  0.96791  1.0000
  C   C491      1.0  0.26099  0.98586  0.64766  1.0000
  C   C492      1.0  0.00888  0.52830  0.94160  1.0000
  H   H377      1.0  0.01914  0.49666  0.90798  1.0000
  C   C493      1.0  0.09293  0.69149  0.79117  1.0000
  C   C494      1.0  0.11040  0.68616  0.80324  1.0000
  C   C495      1.0  0.13566  0.70029  0.79567  1.0000
  C   C496      1.0  0.14390  0.71988  0.77588  1.0000
  C   C497      1.0  0.12637  0.72498  0.76355  1.0000
  C   C498      1.0  0.10114  0.71094  0.77123  1.0000
  H   H378      1.0  0.10449  0.67119  0.81842  1.0000
  H   H379      1.0  0.14896  0.69608  0.80532  1.0000
  H   H380      1.0  0.13229  0.73992  0.74832  1.0000
  H   H381      1.0  0.08788  0.71528  0.76169  1.0000
  H   H382      1.0  0.11792  0.89635  0.61598  1.0000
  C   C499      1.0  0.01515  0.76629  0.57728  1.0000
  C   C500      1.0  0.32070  0.88408  0.85021  1.0000
  H   H383      1.0  0.06484  0.71123  0.96958  1.0000
  C   C501      1.0  0.31311  0.89251  0.75970  1.0000
  C   C502      1.0  0.29316  0.88632  0.77745  1.0000
  C   C503      1.0  0.29660  0.90288  0.79990  1.0000
  H   H384      1.0  0.03953  0.57748  0.98295  1.0000
  H   H385      1.0  0.06025  0.78345  0.62799  1.0000
  H   H386      1.0  0.31076  0.88012  0.74226  1.0000
  H   H387      1.0  0.28131  0.89837  0.81372  1.0000
  H   H388      1.0  0.03432  0.51236  0.81166  1.0000
  C   C504      1.0  0.15633  0.82107  0.59179  1.0000
  C   C505      1.0  0.15142  0.81015  0.61864  1.0000
  C   C506      1.0  0.16965  0.80770  0.63401  1.0000
  C   C507      1.0  0.19311  0.81614  0.62266  1.0000
  C   C508      1.0  0.19803  0.82716  0.59584  1.0000
  C   C509      1.0  0.17985  0.82975  0.58053  1.0000
  H   H389      1.0  0.13332  0.80341  0.62761  1.0000
  H   H390      1.0  0.16551  0.79913  0.65454  1.0000
  H   H391      1.0  0.21610  0.83381  0.58691  1.0000
  H   H392      1.0  0.18400  0.83837  0.56005  1.0000
  H   H393      1.0  0.08411  0.67175  0.90507  1.0000
  C   C510      1.0  0.21076  0.98195  0.50034  1.0000
  H   H394      1.0  0.22145  0.59283  0.75995  1.0000
  C   C511      1.0  0.04820  0.77182  0.92910  1.0000
  H   H395      1.0  0.26678  0.99409  0.66851  1.0000
  C   C512      1.0  0.00340  0.67314  0.98338  1.0000
  H   H396      1.0  0.01568  0.56559  0.93056  1.0000
  H   H397      1.0  0.20896  0.90470  0.51015  1.0000
  H   H398      1.0  0.29280  0.59556  0.56794  1.0000
  C   C513      1.0  0.05827  0.68349  0.91737  1.0000
  H   H399      1.0  0.25102  0.49467  0.56438  1.0000
  H   H400      1.0  0.06533  0.81520  0.54637  1.0000
  H   H401      1.0  0.10844  0.62658  0.93332  1.0000
  C   C514      1.0  0.24137  0.51346  0.59621  1.0000
  H   H402      1.0  0.32371  0.86218  0.81721  1.0000
  H   H403      1.0  0.32196  0.93759  0.82216  1.0000
  H   H404      1.0  0.06290  0.74739  0.92119  1.0000
  C   C515      1.0  0.07936  0.69371  0.87285  1.0000
  C   C516      1.0  0.99457  0.51679  0.85634  1.0000
  H   H405      1.0  0.09393  0.53264  0.80919  1.0000
  H   H406      1.0  0.27901  0.56956  0.52512  1.0000
  P   P16       1.0  0.02214  0.69570  0.93158  1.0000
  C   C517      1.0  0.06555  0.80122  0.58778  1.0000
  C   C518      1.0  0.07790  0.49925  0.93984  1.0000
  H   H407      1.0  0.29218  0.99049  0.83167  1.0000
  C   C519      1.0  0.06057  0.56580  0.92823  1.0000
  C   C520      1.0  0.01291  0.52410  0.83606  1.0000
  C   C521      1.0  0.09442  0.60901  0.92372  1.0000
  C   C522      1.0  0.09122  0.60714  0.89452  1.0000
  C   C523      1.0  0.07295  0.58458  0.88213  1.0000
  C   C524      1.0  0.05755  0.56406  0.89889  1.0000
  C   C525      1.0  0.25424  0.57649  0.61711  1.0000
  C   C526      1.0  0.28820  0.55960  0.58107  1.0000
  H   H408      1.0  0.05458  0.67373  0.93717  1.0000
  H   H409      1.0  0.30063  0.87465  0.84824  1.0000
  C   C527      1.0  0.99869  0.72855  0.52336  1.0000
  Fe  Fe41      1.0  0.01832  0.58432  0.83666  1.0000
  H   H410      1.0  0.02124  0.78434  0.53681  1.0000
  C   C528      1.0  0.30390  0.50385  0.74431  1.0000
  C   C529      1.0  0.14779  0.79472  0.50652  1.0000
  C   C530      1.0  0.04817  0.69892  0.98100  1.0000
  H   H411      1.0  0.04321  0.54685  0.88889  1.0000
  C   C531      1.0  0.04662  0.74825  0.92715  1.0000
  H   H412      1.0  0.09193  0.69231  0.85840  1.0000
  H   H413      1.0  0.08245  0.59012  0.96303  1.0000
  C   C532      1.0  0.24407  0.56344  0.59173  1.0000
  H   H414      1.0  0.25544  0.60351  0.64710  1.0000
  H   H415      1.0  0.30533  0.53916  0.73442  1.0000
  H   H416      1.0  0.10267  0.62324  0.88149  1.0000
  H   H417      1.0  0.07030  0.58310  0.85950  1.0000
  H   H418      1.0  0.18482  0.56771  0.72877  1.0000
  H   H419      1.0  0.06301  0.49643  0.83672  1.0000
  P   P17       1.0  0.25470  0.54313  0.57763  1.0000
  C   C533      1.0  0.11673  0.51597  0.80127  1.0000
  H   H420      1.0  0.13001  0.53205  0.78947  1.0000
  C   C534      1.0  0.26087  0.99082  0.59727  1.0000
  H   H421      1.0  0.26811  0.57416  0.62842  1.0000
  C   C535      1.0  0.02025  0.50687  0.82746  1.0000
  H   H422      1.0  0.99528  0.79732  0.56449  1.0000
  C   C536      1.0  0.22718  0.81603  0.52050  1.0000
  H   H423      1.0  0.20870  0.81091  0.52691  1.0000
  H   H424      1.0  0.01613  0.73531  0.53466  1.0000
  C   C537      1.0  0.31967  0.92514  0.80480  1.0000
  C   C538      1.0  0.30831  0.69026  0.53540  1.0000
  H   H425      1.0  0.05834  0.63209  0.98833  1.0000
  C   C539      1.0  0.07109  0.51669  0.94883  1.0000
  C   C540      1.0  0.30203  0.58538  0.57454  1.0000
  C   C541      1.0  0.27529  0.82827  0.50611  1.0000
  H   H426      1.0  0.11247  0.76106  0.49966  1.0000
  C   C542      1.0  0.22991  0.51053  0.62225  1.0000
  C   C543      1.0  0.02764  0.77349  0.93747  1.0000
  C   C544      1.0  0.31041  0.98068  0.80045  1.0000
  H   H427      1.0  0.14119  0.80156  0.52345  1.0000
  H   H428      1.0  0.29509  0.96151  0.79783  1.0000
  C   C545      1.0  0.24703  0.59309  0.62777  1.0000
  C   C546      1.0  0.04252  0.56531  0.99702  1.0000
  H   H429      1.0  0.22471  0.61040  0.62095  1.0000
  C   C547      1.0  0.00552  0.75159  0.94411  1.0000
  P   P18       1.0  0.04105  0.53854  0.94903  1.0000
  C   C548      1.0  0.09629  0.51645  0.81250  1.0000
  C   C549      1.0  0.26127  0.55320  0.51992  1.0000
  H   H430      1.0  0.22925  0.52607  0.63221  1.0000
  C   C550      1.0  0.16680  0.96686  0.49908  1.0000
  C   C551      1.0  0.31698  0.49669  0.68749  1.0000
  C   C552      1.0  0.18643  0.56003  0.74865  1.0000
  H   H431      1.0  0.28094  0.82483  0.55034  1.0000
  S   S78       1.0  0.00660  0.60494  0.80670  1.0000
  C   C553      1.0  0.29602  0.52166  0.74582  1.0000
  H   H432      1.0  0.19742  0.49569  0.49868  1.0000
  C   C554      1.0  0.02474  0.68826  0.96772  1.0000
  H   H433      1.0  0.19295  0.53270  0.81965  1.0000
  C   C555      1.0  0.04493  0.54526  0.98633  1.0000
  C   C556      1.0  0.22972  0.59697  0.61301  1.0000
  H   H434      1.0  0.08295  0.53135  0.96376  1.0000
  H   H435      1.0  0.23825  0.81378  0.56304  1.0000
  H   H436      1.0  0.06953  0.71429  0.84390  1.0000
  C   C557      1.0  0.22636  0.56711  0.57720  1.0000
  C   C558      1.0  0.06674  0.70621  0.86472  1.0000
  H   H437      1.0  0.26872  0.53008  0.76174  1.0000
  C   C559      1.0  0.24398  0.81758  0.54129  1.0000
  H   H438      1.0  0.31414  0.69044  0.58016  1.0000
  C   C560      1.0  0.99304  0.67242  0.91569  1.0000
  H   H439      1.0  0.22531  0.57520  0.80536  1.0000
  H   H440      1.0  0.31043  0.80691  0.76064  1.0000
  C   C561      1.0  0.21928  0.58388  0.58781  1.0000
  C   C562      1.0  0.17013  0.52569  0.78220  1.0000
  H   H441      1.0  0.03944  0.71615  0.87572  1.0000
  C   C563      1.0  0.20707  0.57419  0.76622  1.0000
  H   H442      1.0  0.20596  0.58700  0.57630  1.0000
  C   C564      1.0  0.07506  0.68227  0.89913  1.0000
  C   C565      1.0  0.05450  0.80141  0.56214  1.0000
  C   C566      1.0  0.99717  0.60739  0.97242  1.0000
  C   C567      1.0  0.04925  0.51532  0.93839  1.0000
  S   S79       1.0  0.01035  0.64025  0.86102  1.0000
  H   H443      1.0  0.29073  0.52760  0.59645  1.0000
  C   C568      1.0  0.16238  0.60060  0.68639  1.0000
  C   C569      1.0  0.18765  0.60908  0.68320  1.0000
  C   C570      1.0  0.20536  0.63347  0.69194  1.0000
  C   C571      1.0  0.19786  0.64932  0.70412  1.0000
  C   C572      1.0  0.17249  0.64087  0.70777  1.0000
  C   C573      1.0  0.15481  0.61650  0.69836  1.0000
  P   P19       1.0  0.16251  0.66192  0.72151  1.0000
  C   C574      1.0  0.13405  0.64443  0.74097  1.0000
  C   C575      1.0  0.18646  0.68475  0.74483  1.0000
  C   C576      1.0  0.20773  0.70528  0.73358  1.0000
  C   C577      1.0  0.22678  0.72263  0.75128  1.0000
  C   C578      1.0  0.22445  0.72012  0.78039  1.0000
  C   C579      1.0  0.20320  0.69996  0.79182  1.0000
  C   C580      1.0  0.18431  0.68222  0.77414  1.0000
  C   C581      1.0  0.12985  0.62330  0.75678  1.0000
  C   C582      1.0  0.10813  0.61001  0.77230  1.0000
  C   C583      1.0  0.09054  0.61780  0.77237  1.0000
  C   C584      1.0  0.09469  0.63893  0.75699  1.0000
  C   C585      1.0  0.11637  0.65229  0.74147  1.0000
  C   C586      1.0  0.15829  0.67877  0.69279  1.0000
  C   C587      1.0  0.15776  0.70102  0.69822  1.0000
  C   C588      1.0  0.15516  0.71464  0.67622  1.0000
  C   C589      1.0  0.15327  0.70626  0.64852  1.0000
  C   C590      1.0  0.15372  0.68407  0.64284  1.0000
  C   C591      1.0  0.15618  0.67032  0.66487  1.0000
  H   H444      1.0  0.14862  0.58181  0.67923  1.0000
  H   H445      1.0  0.19354  0.59690  0.67365  1.0000
  H   H446      1.0  0.22500  0.64033  0.68899  1.0000
  H   H447      1.0  0.21203  0.66819  0.71030  1.0000
  H   H448      1.0  0.13515  0.60988  0.69998  1.0000
  H   H449      1.0  0.20962  0.70791  0.71110  1.0000
  H   H450      1.0  0.24316  0.73834  0.74239  1.0000
  H   H451      1.0  0.23887  0.73414  0.79402  1.0000
  H   H452      1.0  0.20111  0.69844  0.81438  1.0000
  H   H453      1.0  0.16792  0.66703  0.78351  1.0000
  H   H454      1.0  0.14350  0.61731  0.75744  1.0000
  H   H455      1.0  0.10492  0.59376  0.78450  1.0000
  H   H456      1.0  0.07378  0.60765  0.78458  1.0000
  H   H457      1.0  0.08129  0.64531  0.75758  1.0000
  H   H458      1.0  0.11931  0.66893  0.73039  1.0000
  H   H459      1.0  0.15948  0.70794  0.71950  1.0000
  H   H460      1.0  0.15503  0.73194  0.68073  1.0000
  H   H461      1.0  0.15166  0.71711  0.63149  1.0000
  H   H462      1.0  0.15238  0.67767  0.62133  1.0000
  H   H463      1.0  0.15666  0.65334  0.65995  1.0000
  C   C592      1.0  0.04977  0.70726  0.88282  1.0000
  S   S80       1.0  0.02708  0.55455  0.82113  1.0000
  C   C593      1.0  0.04568  0.69620  0.90947  1.0000
  H   H464      1.0  0.20197  0.91878  0.55576  1.0000
  H   H465      1.0  0.24147  0.88619  0.59708  1.0000
  H   H466      1.0  0.23099  0.88050  0.50777  1.0000
  C   C594      1.0  0.26803  0.82375  0.53413  1.0000
  H   H467      1.0  0.18434  0.82716  0.50776  1.0000
  C   C595      1.0  0.30077  0.54715  0.59026  1.0000
  C   C596      1.0  0.25147  0.89347  0.67211  1.0000
  C   C597      1.0  0.23175  0.87158  0.68318  1.0000
  C   C598      1.0  0.20757  0.86295  0.67325  1.0000
  C   C599      1.0  0.20302  0.87620  0.65233  1.0000
  C   C600      1.0  0.22268  0.89853  0.64149  1.0000
  C   C601      1.0  0.24702  0.90680  0.65120  1.0000
  P   P20       1.0  0.21727  0.91518  0.61343  1.0000
  C   C602      1.0  0.18581  0.90929  0.61471  1.0000
  C   C603      1.0  0.23809  0.94886  0.61742  1.0000
  C   C604      1.0  0.24567  0.95972  0.64438  1.0000
  C   C605      1.0  0.20925  0.56425  0.79180  1.0000
  C   C606      1.0  0.18615  0.96148  0.49844  1.0000
  H   H468      1.0  0.21826  0.55741  0.55751  1.0000
  C   C607      1.0  0.24570  0.96468  0.59389  1.0000
  C   C608      1.0  0.18045  0.92660  0.62772  1.0000
  C   C609      1.0  0.15605  0.92195  0.62814  1.0000
  C   C610      1.0  0.13681  0.89993  0.61583  1.0000
  C   C611      1.0  0.14197  0.88253  0.60316  1.0000
  C   C612      1.0  0.16636  0.88723  0.60245  1.0000
  C   C613      1.0  0.22172  0.90413  0.57995  1.0000
  C   C614      1.0  0.21228  0.90883  0.55515  1.0000
  C   C615      1.0  0.21607  0.90072  0.52919  1.0000
  C   C616      1.0  0.22860  0.88720  0.52782  1.0000
  C   C617      1.0  0.23778  0.88214  0.55236  1.0000
  C   C618      1.0  0.23446  0.89064  0.57835  1.0000
  H   H469      1.0  0.27024  0.89982  0.67956  1.0000
  H   H470      1.0  0.23525  0.86103  0.69908  1.0000
  H   H471      1.0  0.19243  0.84553  0.68130  1.0000
  H   H472      1.0  0.18421  0.86866  0.64444  1.0000
  H   H473      1.0  0.26261  0.92337  0.64239  1.0000
  H   H474      1.0  0.23947  0.94805  0.66293  1.0000
  C   C619      1.0  0.31871  0.70146  0.50976  1.0000
  C   C620      1.0  0.24591  0.53678  0.54082  1.0000
  C   C621      1.0  0.00125  0.81968  0.50562  1.0000
  H   H475      1.0  0.23972  0.95707  0.57291  1.0000
  H   H476      1.0  0.19499  0.94378  0.63739  1.0000
  H   H477      1.0  0.15204  0.93550  0.63788  1.0000
  H   H478      1.0  0.14654  0.49502  0.85372  1.0000
  H   H479      1.0  0.12708  0.86540  0.59367  1.0000
  H   H480      1.0  0.17003  0.87363  0.59231  1.0000
  C   C622      1.0  0.07935  0.58833  0.94055  1.0000
  H   H481      1.0  0.24724  0.87138  0.55134  1.0000
  C   C623      1.0  0.00185  0.54593  0.93363  1.0000
  C   C624      1.0  0.03870  0.62450  0.99147  1.0000
  H   H482      1.0  0.32296  0.90972  0.88273  1.0000
  C   C625      1.0  0.07880  0.49604  0.82800  1.0000
  H   H483      1.0  0.06545  0.78881  0.92427  1.0000
  S   S81       1.0  0.31218  0.58007  0.65466  1.0000
  H   H484      1.0  0.02892  0.79177  0.93905  1.0000
  C   C626      1.0  0.05154  0.78360  0.60819  1.0000
  H   H485      1.0  0.99444  0.64085  0.93384  1.0000
  H   H486      1.0  0.32359  0.72221  0.68219  1.0000
  H   H487      1.0  0.00549  0.83654  0.51741  1.0000
  C   C627      1.0  0.22265  0.51623  0.53294  1.0000
  S   S82       1.0  0.05228  0.84146  0.50237  1.0000
  C   C628      1.0  0.03524  0.49727  0.91758  1.0000
  H   H488      1.0  0.08500  0.81472  0.59178  1.0000
  Fe  Fe42      1.0  0.32384  0.62158  0.64825  1.0000
  H   H489      1.0  0.32326  0.75955  0.70244  1.0000
  H   H490      1.0  0.04816  0.51277  0.99767  1.0000
  H   H491      1.0  0.01597  0.75283  0.61921  1.0000
  C   C629      1.0  0.32021  0.49893  0.63659  1.0000
  C   C630      1.0  0.02640  0.76623  0.60305  1.0000
  C   C631      1.0  0.21528  0.51171  0.50463  1.0000
  H   H492      1.0  0.15217  0.52504  0.74269  1.0000
  S   S83       1.0  0.10055  0.81612  0.50037  1.0000
  H   H493      1.0  0.28976  0.67397  0.53582  1.0000
  C   C632      1.0  0.32024  0.64502  0.52501  1.0000
  C   C633      1.0  0.02428  0.72614  0.93318  1.0000
  P   P21       1.0  0.14651  0.49422  0.79196  1.0000
  C   C634      1.0  0.11981  0.49497  0.80551  1.0000
  H   H494      1.0  0.21013  0.50372  0.54867  1.0000
  H   H495      1.0  0.22596  0.97821  0.49992  1.0000
  H   H496      1.0  0.29390  0.83288  0.50055  1.0000
  C   C635      1.0  0.30767  0.63764  0.49879  1.0000
  Fe  Fe43      1.0  0.39464  0.03166  0.15773  1.0000
  C   C636      1.0  0.33519  0.20385  0.24673  1.0000
  S   S84       1.0  0.38831  0.06478  0.16767  1.0000
  C   C637      1.0  0.40328  0.46492  0.08154  1.0000
  S   S85       1.0  0.43003  0.03889  0.13775  1.0000
  H   H497      1.0  0.33907  0.15138  0.33175  1.0000
  C   C638      1.0  0.50502  0.22354  0.49271  1.0000
  Fe  Fe44      1.0  0.62327  0.02462  0.17422  1.0000
  C   C639      1.0  0.53417  0.11208  0.04300  1.0000
  H   H498      1.0  0.33048  0.43247  0.23847  1.0000
  H   H499      1.0  0.48498  0.42604  0.11875  1.0000
  S   S86       1.0  0.37120  0.00493  0.12277  1.0000
  S   S87       1.0  0.60656  0.02703  0.13275  1.0000
  Fe  Fe45      1.0  0.62676  0.30322  0.34893  1.0000
  S   S88       1.0  0.63384  0.34072  0.36531  1.0000
  S   S89       1.0  0.59077  0.27104  0.32956  1.0000
  H   H500      1.0  0.45039  0.39910  0.08557  1.0000
  H   H501      1.0  0.60212  0.06908  0.03573  1.0000
  Fe  Fe46      1.0  0.39696  0.20682  0.31546  1.0000
  S   S90       1.0  0.38201  0.18660  0.27387  1.0000
  S   S91       1.0  0.37347  0.20744  0.35195  1.0000
  Fe  Fe47      1.0  0.45079  0.23580  0.29368  1.0000
  S   S92       1.0  0.43953  0.21735  0.25095  1.0000
  S   S93       1.0  0.48877  0.26939  0.30559  1.0000
  Fe  Fe48      1.0  0.40716  0.22435  0.25364  1.0000
  S   S94       1.0  0.39472  0.23928  0.21609  1.0000
  Fe  Fe49      1.0  0.41542  0.18126  0.27428  1.0000
  S   S95       1.0  0.41594  0.14414  0.26919  1.0000
  S   S96       1.0  0.41981  0.24466  0.29490  1.0000
  S   S97       1.0  0.42895  0.19955  0.31731  1.0000
  Fe  Fe50      1.0  0.39299  0.36915  0.17158  1.0000
  S   S98       1.0  0.38886  0.40203  0.18699  1.0000
  S   S99       1.0  0.40196  0.34753  0.20513  1.0000
  Fe  Fe51      1.0  0.38668  0.37945  0.10953  1.0000
  S   S100      1.0  0.38097  0.41153  0.12100  1.0000
  S   S101      1.0  0.39391  0.37057  0.06478  1.0000
  Fe  Fe52      1.0  0.41317  0.42384  0.15099  1.0000
  S   S102      1.0  0.43870  0.46639  0.14817  1.0000
  Fe  Fe53      1.0  0.35679  0.38789  0.15639  1.0000
  S   S103      1.0  0.42016  0.39268  0.13823  1.0000
  S   S104      1.0  0.35949  0.35383  0.14231  1.0000
  C   C640      1.0  0.38737  0.37995  0.03179  1.0000
  C   C641      1.0  0.36988  0.38773  0.02894  1.0000
  H   H502      1.0  0.59354  0.29092  0.43038  1.0000
  H   H503      1.0  0.36115  0.38972  0.04747  1.0000
  H   H504      1.0  0.47194  0.11363  0.26913  1.0000
  C   C642      1.0  0.47130  0.48250  0.15320  1.0000
  C   C643      1.0  0.49386  0.46068  0.09785  1.0000
  C   C644      1.0  0.63939  0.01460  0.01457  1.0000
  C   C645      1.0  0.48313  0.47203  0.16862  1.0000
  C   C646      1.0  0.34385  0.14737  0.40563  1.0000
  H   H505      1.0  0.47235  0.45315  0.17686  1.0000
  H   H506      1.0  0.33754  0.02016  0.17253  1.0000
  C   C647      1.0  0.39962  0.31720  0.20730  1.0000
  C   C648      1.0  0.40552  0.30994  0.23303  1.0000
  C   C649      1.0  0.40428  0.28637  0.23596  1.0000
  C   C650      1.0  0.39701  0.26953  0.21319  1.0000
  C   C651      1.0  0.39097  0.27667  0.18746  1.0000
  C   C652      1.0  0.39230  0.30034  0.18448  1.0000
  H   H507      1.0  0.41095  0.32265  0.25092  1.0000
  H   H508      1.0  0.40867  0.28104  0.25591  1.0000
  H   H509      1.0  0.38527  0.26384  0.16968  1.0000
  H   H510      1.0  0.38771  0.30554  0.16455  1.0000
  C   C653      1.0  0.47860  0.00044  0.17176  1.0000
  C   C654      1.0  0.43753  0.04987  0.26207  1.0000
  H   H511      1.0  0.32763  0.37567  0.31903  1.0000
  C   C655      1.0  0.56276  0.27131  0.32280  1.0000
  C   C656      1.0  0.56021  0.29222  0.32905  1.0000
  C   C657      1.0  0.53745  0.29134  0.32358  1.0000
  C   C658      1.0  0.51695  0.26948  0.31213  1.0000
  C   C659      1.0  0.51946  0.24855  0.30602  1.0000
  C   C660      1.0  0.54237  0.24967  0.31089  1.0000
  H   H512      1.0  0.57579  0.30906  0.33805  1.0000
  H   H513      1.0  0.53572  0.30765  0.32836  1.0000
  H   H514      1.0  0.50384  0.23161  0.29735  1.0000
  H   H515      1.0  0.54434  0.23363  0.30553  1.0000
  C   C661      1.0  0.53267  0.47766  0.03202  1.0000
  C   C662      1.0  0.32686  0.19509  0.30421  1.0000
  H   H516      1.0  0.50841  0.47251  0.11284  1.0000
  H   H517      1.0  0.59578  0.36479  0.25368  1.0000
  H   H518      1.0  0.58569  0.32290  0.47197  1.0000
  H   H519      1.0  0.60983  0.15448  0.27729  1.0000
  C   C663      1.0  0.33298  0.10640  0.27091  1.0000
  H   H520      1.0  0.52035  0.43382  0.27656  1.0000
  C   C664      1.0  0.57070  0.37856  0.24421  1.0000
  C   C665      1.0  0.39637  0.08670  0.19616  1.0000
  C   C666      1.0  0.40614  0.08400  0.22171  1.0000
  C   C667      1.0  0.41189  0.10173  0.24371  1.0000
  C   C668      1.0  0.40825  0.12251  0.24049  1.0000
  C   C669      1.0  0.39859  0.12527  0.21491  1.0000
  C   C670      1.0  0.39261  0.10742  0.19298  1.0000
  H   H521      1.0  0.40906  0.06817  0.22459  1.0000
  H   H522      1.0  0.41918  0.09932  0.26345  1.0000
  H   H523      1.0  0.39562  0.14109  0.21205  1.0000
  H   H524      1.0  0.38506  0.10974  0.17336  1.0000
  C   C671      1.0  0.49808  0.06267  0.02828  1.0000
  C   C672      1.0  0.35614  0.18555  0.37872  1.0000
  C   C673      1.0  0.35840  0.16441  0.38459  1.0000
  H   H525      1.0  0.33772  0.20601  0.39034  1.0000
  H   H526      1.0  0.37140  0.16123  0.37298  1.0000
  C   C674      1.0  0.45924  0.30789  0.34320  1.0000
  H   H527      1.0  0.42431  0.03335  0.27348  1.0000
  H   H528      1.0  0.51869  0.28680  0.38694  1.0000
  C   C675      1.0  0.58523  0.05395  0.04442  1.0000
  C   C676      1.0  0.50659  0.41591  0.26737  1.0000
  H   H529      1.0  0.53303  0.00118  0.18585  1.0000
  C   C677      1.0  0.64928  0.22744  0.28277  1.0000
  C   C678      1.0  0.55105  0.10680  0.23006  1.0000
  S   S105      1.0  0.64302  0.29508  0.38736  1.0000
  H   H530      1.0  0.37409  0.45077  0.17107  1.0000
  C   C679      1.0  0.57206  0.13009  0.22455  1.0000
  C   C680      1.0  0.48510  0.32082  0.34138  1.0000
  C   C681      1.0  0.55717  0.31013  0.39754  1.0000
  C   C682      1.0  0.34298  0.30864  0.08371  1.0000
  C   C683      1.0  0.45482  0.43036  0.06078  1.0000
  C   C684      1.0  0.35215  0.48059  0.21269  1.0000
  H   H531      1.0  0.35532  0.31296  0.02622  1.0000
  H   H532      1.0  0.54174  0.38717  0.23664  1.0000
  C   C685      1.0  0.42840  0.46499  0.04275  1.0000
  C   C686      1.0  0.38249  0.45541  0.06371  1.0000
  H   H533      1.0  0.36130  0.08179  0.12553  1.0000
  C   C687      1.0  0.35209  0.46224  0.19479  1.0000
  H   H534      1.0  0.65556  0.03307  0.01797  1.0000
  S   S106      1.0  0.64216  0.34063  0.44633  1.0000
  C   C688      1.0  0.49575  0.19753  0.49407  1.0000
  H   H535      1.0  0.51779  0.47847  0.18689  1.0000
  C   C689      1.0  0.34552  0.31555  0.00879  1.0000
  H   H536      1.0  0.43894  0.04865  0.00663  1.0000
  C   C690      1.0  0.60972  0.08715  0.23713  1.0000
  C   C691      1.0  0.53372  0.05560  0.15042  1.0000
  C   C692      1.0  0.46139  0.06836  0.22017  1.0000
  C   C693      1.0  0.39685  0.48677  0.19170  1.0000
  H   H537      1.0  0.51480  0.25528  0.46592  1.0000
  H   H538      1.0  0.45628  0.35179  0.23551  1.0000
  H   H539      1.0  0.36599  0.10849  0.28865  1.0000
  H   H540      1.0  0.55845  0.32679  0.38804  1.0000
  H   H541      1.0  0.50298  0.01121  0.20807  1.0000
  H   H542      1.0  0.48182  0.16284  0.47044  1.0000
  H   H543      1.0  0.35916  0.24285  0.25844  1.0000
  H   H544      1.0  0.52401  0.16047  0.25463  1.0000
  H   H545      1.0  0.35561  0.26715  0.11693  1.0000
  H   H546      1.0  0.34570  0.13104  0.40995  1.0000
  H   H547      1.0  0.54793  0.13123  0.04901  1.0000
  C   C694      1.0  0.62599  0.10492  0.21815  1.0000
  C   C695      1.0  0.56312  0.01234  0.06467  1.0000
  C   C696      1.0  0.35403  0.13000  0.31308  1.0000
  H   H548      1.0  0.58990  0.17925  0.28896  1.0000
  H   H549      1.0  0.32665  0.48268  0.16478  1.0000
  C   C697      1.0  0.48767  0.47173  0.07587  1.0000
  H   H550      1.0  0.54671  0.05488  0.16522  1.0000
  C   C698      1.0  0.48917  0.99779  0.03285  1.0000
  C   C699      1.0  0.64141  0.13004  0.22665  1.0000
  C   C700      1.0  0.46833  0.45656  0.05683  1.0000
  H   H551      1.0  0.48321  0.04380  0.02326  1.0000
  C   C701      1.0  0.51670  0.06677  0.04807  1.0000
  C   C702      1.0  0.53461  0.09166  0.05552  1.0000
  P   P22       1.0  0.51606  0.04071  0.06657  1.0000
  C   C703      1.0  0.54274  0.03723  0.05968  1.0000
  C   C704      1.0  0.51576  0.04819  0.10328  1.0000
  C   C705      1.0  0.49935  0.05610  0.11248  1.0000
  C   C706      1.0  0.49964  0.06287  0.14060  1.0000
  C   C707      1.0  0.42367  0.02985  0.00229  1.0000
  C   C708      1.0  0.62409  0.11963  0.27326  1.0000
  C   C709      1.0  0.53311  0.04821  0.12248  1.0000
  C   C710      1.0  0.46763  0.39065  0.24223  1.0000
  C   C711      1.0  0.32673  0.00076  0.17906  1.0000
  C   C712      1.0  0.57681  0.36097  0.25456  1.0000
  C   C713      1.0  0.54622  0.37365  0.24549  1.0000
  C   C714      1.0  0.56432  0.05663  0.04753  1.0000
  C   C715      1.0  0.48841  0.01158  0.05610  1.0000
  C   C716      1.0  0.54225  0.01497  0.06787  1.0000
  C   C717      1.0  0.45605  0.31756  0.29457  1.0000
  C   C718      1.0  0.65309  0.33408  0.47810  1.0000
  H   H552      1.0  0.61503  0.22598  0.29308  1.0000
  P   P23       1.0  0.45806  0.47046  0.03027  1.0000
  H   H553      1.0  0.54861  0.09523  0.07149  1.0000
  H   H554      1.0  0.48613  0.05682  0.09802  1.0000
  H   H555      1.0  0.48621  0.06782  0.14783  1.0000
  C   C719      1.0  0.34659  0.22397  0.26587  1.0000
  H   H556      1.0  0.47040  0.43276  0.00785  1.0000
  H   H557      1.0  0.59585  0.32907  0.41008  1.0000
  C   C720      1.0  0.33299  0.04260  0.12687  1.0000
  C   C721      1.0  0.57922  0.31703  0.49318  1.0000
  C   C722      1.0  0.34255  0.21956  0.29459  1.0000
  Fe  Fe54      1.0  0.40660  0.01057  0.10413  1.0000
  S   S107      1.0  0.45848  0.00923  0.18746  1.0000
  H   H558      1.0  0.52087  0.46084  0.04391  1.0000
  C   C723      1.0  0.44448  0.04713  0.23511  1.0000
  C   C724      1.0  0.49648  0.33220  0.31618  1.0000
  H   H559      1.0  0.44463  0.31629  0.27663  1.0000
  H   H560      1.0  0.34525  0.25372  0.49451  1.0000
  S   S108      1.0  0.39168  0.00023  0.18497  1.0000
  H   H561      1.0  0.59640  0.08057  0.27947  1.0000
  H   H562      1.0  0.49636  0.32176  0.35938  1.0000
  H   H563      1.0  0.35002  0.00754  0.21561  1.0000
  C   C725      1.0  0.37433  0.46528  0.18448  1.0000
  S   S109      1.0  0.63736  0.01257  0.07244  1.0000
  H   H564      1.0  0.55377  0.25046  0.42989  1.0000
  C   C726      1.0  0.51669  0.99822  0.17428  1.0000
  H   H565      1.0  0.45043  0.29886  0.36263  1.0000
  S   S110      1.0  0.64199  0.05746  0.20653  1.0000
  C   C727      1.0  0.51588  0.10780  0.02287  1.0000
  C   C728      1.0  0.48919  0.18305  0.46937  1.0000
  C   C729      1.0  0.45747  0.27983  0.21243  1.0000
  C   C730      1.0  0.45563  0.28886  0.18613  1.0000
  C   C731      1.0  0.46667  0.31483  0.18185  1.0000
  C   C732      1.0  0.47925  0.33173  0.20399  1.0000
  C   C733      1.0  0.47995  0.32267  0.23089  1.0000
  C   C734      1.0  0.46956  0.29660  0.23480  1.0000
  P   P24       1.0  0.49604  0.34444  0.25949  1.0000
  C   C735      1.0  0.58466  0.03187  0.05307  1.0000
  C   C736      1.0  0.50972  0.39486  0.26931  1.0000
  H   H566      1.0  0.46453  0.16974  0.33427  1.0000
  C   C737      1.0  0.47074  0.36963  0.24411  1.0000
  C   C738      1.0  0.41123  0.01382  0.02490  1.0000
  H   H567      1.0  0.32620  0.10168  0.36689  1.0000
  H   H568      1.0  0.54389  0.23024  0.38217  1.0000
  H   H569      1.0  0.52577  0.39661  0.28053  1.0000
  H   H570      1.0  0.40173  0.46813  0.10365  1.0000
  C   C739      1.0  0.48196  0.33012  0.29238  1.0000
  C   C740      1.0  0.47149  0.09261  0.23218  1.0000
  H   H571      1.0  0.44892  0.25970  0.21558  1.0000
  H   H572      1.0  0.44541  0.27566  0.16922  1.0000
  H   H573      1.0  0.46527  0.32185  0.16144  1.0000
  H   H574      1.0  0.48802  0.35180  0.20018  1.0000
  H   H575      1.0  0.47061  0.28915  0.25509  1.0000
  C   C741      1.0  0.40722  0.45490  0.02510  1.0000
  H   H576      1.0  0.33214  0.09484  0.25320  1.0000
  H   H577      1.0  0.36474  0.45136  0.07193  1.0000
  C   C742      1.0  0.35517  0.29982  0.10112  1.0000
  H   H578      1.0  0.46415  0.01366  0.08703  1.0000
  H   H579      1.0  0.52591  0.99985  0.07753  1.0000
  H   H580      1.0  0.42466  0.29636  0.32119  1.0000
  H   H581      1.0  0.36821  0.44238  0.02181  1.0000
  C   C743      1.0  0.45396  0.10120  0.13906  1.0000
  C   C744      1.0  0.47222  0.10839  0.11877  1.0000
  C   C745      1.0  0.49715  0.11926  0.12702  1.0000
  C   C746      1.0  0.50382  0.12292  0.15557  1.0000
  C   C747      1.0  0.48549  0.11530  0.17616  1.0000
  C   C748      1.0  0.46050  0.10432  0.16759  1.0000
  P   P25       1.0  0.49371  0.12008  0.21321  1.0000
  H   H582      1.0  0.60102  0.02998  0.05119  1.0000
  C   C749      1.0  0.52440  0.12409  0.21836  1.0000
  C   C750      1.0  0.44759  0.07388  0.27423  1.0000
  H   H583      1.0  0.54602  0.04222  0.11626  1.0000
  C   C751      1.0  0.48064  0.43450  0.10122  1.0000
  C   C752      1.0  0.56937  0.15042  0.21601  1.0000
  C   C753      1.0  0.54565  0.14742  0.21275  1.0000
  H   H584      1.0  0.43894  0.41845  0.04737  1.0000
  C   C754      1.0  0.33673  0.13808  0.31535  1.0000
  H   H585      1.0  0.46431  0.19681  0.37235  1.0000
  H   H586      1.0  0.35018  0.32877  0.08227  1.0000
  H   H587      1.0  0.51975  0.31539  0.27519  1.0000
  C   C755      1.0  0.49230  0.14721  0.22613  1.0000
  C   C756      1.0  0.47286  0.15113  0.21739  1.0000
  C   C757      1.0  0.47105  0.17138  0.22819  1.0000
  C   C758      1.0  0.48853  0.18789  0.24785  1.0000
  C   C759      1.0  0.50776  0.18402  0.25699  1.0000
  C   C760      1.0  0.50948  0.16358  0.24649  1.0000
  H   H588      1.0  0.43457  0.09266  0.13276  1.0000
  H   H589      1.0  0.46695  0.10535  0.09669  1.0000
  H   H590      1.0  0.51129  0.12477  0.11125  1.0000
  H   H591      1.0  0.52323  0.13140  0.16132  1.0000
  H   H592      1.0  0.44594  0.09798  0.18291  1.0000
  S   S111      1.0  0.63814  0.00049  0.15699  1.0000
  H   H593      1.0  0.36953  0.13688  0.32784  1.0000
  S   S112      1.0  0.42166  0.02500  0.05995  1.0000
  H   H594      1.0  0.58568  0.16848  0.21168  1.0000
  H   H595      1.0  0.54388  0.16325  0.20560  1.0000
  H   H596      1.0  0.43677  0.02851  0.22574  1.0000
  H   H597      1.0  0.58494  0.39593  0.23503  1.0000
  H   H598      1.0  0.59041  0.13230  0.22671  1.0000
  H   H599      1.0  0.48323  0.43015  0.25197  1.0000
  C   C761      1.0  0.60862  0.09453  0.26463  1.0000
  H   H600      1.0  0.45863  0.13834  0.20277  1.0000
  H   H601      1.0  0.45568  0.17395  0.22179  1.0000
  H   H602      1.0  0.48691  0.20347  0.25624  1.0000
  H   H603      1.0  0.52118  0.19680  0.27241  1.0000
  H   H604      1.0  0.34615  0.03626  0.12336  1.0000
  H   H605      1.0  0.44206  0.07604  0.29506  1.0000
  C   C762      1.0  0.60967  0.18878  0.28521  1.0000
  C   C763      1.0  0.39912  0.37818  0.00750  1.0000
  H   H606      1.0  0.50383  0.17174  0.32098  1.0000
  C   C764      1.0  0.46120  0.41935  0.08259  1.0000
  C   C765      1.0  0.35212  0.11411  0.29091  1.0000
  H   H607      1.0  0.41281  0.37233  0.00942  1.0000
  C   C766      1.0  0.33957  0.18968  0.39460  1.0000
  H   H608      1.0  0.51653  0.34232  0.31535  1.0000
  C   C767      1.0  0.49192  0.19455  0.44327  1.0000
  H   H609      1.0  0.35225  0.23497  0.30954  1.0000
  C   C768      1.0  0.49220  0.37174  0.25691  1.0000
  C   C769      1.0  0.44472  0.30644  0.31986  1.0000
  C   C770      1.0  0.50787  0.23513  0.46666  1.0000
  C   C771      1.0  0.51680  0.06262  0.15956  1.0000
  C   C772      1.0  0.62377  0.21510  0.28747  1.0000
  H   H610      1.0  0.48643  0.18296  0.42442  1.0000
  H   H611      1.0  0.55315  0.09098  0.23651  1.0000
  H   H612      1.0  0.46663  0.06573  0.19935  1.0000
  C   C773      1.0  0.52779  0.35131  0.25772  1.0000
  H   H613      1.0  0.56528  0.07391  0.04076  1.0000
  H   H614      1.0  0.56295  0.32437  0.27331  1.0000
  H   H615      1.0  0.51137  0.08548  0.23128  1.0000
  C   C774      1.0  0.34166  0.06853  0.12802  1.0000
  H   H616      1.0  0.54343  0.20213  0.34529  1.0000
  C   C775      1.0  0.32710  0.15136  0.42132  1.0000
  H   H617      1.0  0.45113  0.38884  0.23193  1.0000
  H   H618      1.0  0.59868  0.06749  0.23069  1.0000
  C   C776      1.0  0.53390  0.33330  0.26697  1.0000
  H   H619      1.0  0.62755  0.09887  0.19721  1.0000
  C   C777      1.0  0.64065  0.13760  0.25434  1.0000
  C   C778      1.0  0.62603  0.00039  0.03790  1.0000
  C   C779      1.0  0.42601  0.46937  0.07124  1.0000
  C   C780      1.0  0.64683  0.18704  0.27415  1.0000
  H   H620      1.0  0.33836  0.07507  0.33975  1.0000
  C   C781      1.0  0.50151  0.22073  0.44173  1.0000
  C   C782      1.0  0.52732  0.10378  0.22705  1.0000
  P   P26       1.0  0.50395  0.23571  0.40838  1.0000
  C   C783      1.0  0.50411  0.21571  0.38038  1.0000
  C   C784      1.0  0.47739  0.23984  0.40291  1.0000
  C   C785      1.0  0.47317  0.24700  0.37640  1.0000
  C   C786      1.0  0.45188  0.24855  0.37098  1.0000
  C   C787      1.0  0.43436  0.24258  0.39192  1.0000
  C   C788      1.0  0.43834  0.23540  0.41845  1.0000
  C   C789      1.0  0.45979  0.23407  0.42401  1.0000
  C   C790      1.0  0.52628  0.21680  0.37254  1.0000
  C   C791      1.0  0.52609  0.20073  0.35149  1.0000
  C   C792      1.0  0.50387  0.18378  0.33770  1.0000
  C   C793      1.0  0.48174  0.18264  0.34522  1.0000
  C   C794      1.0  0.48177  0.19829  0.36668  1.0000
  C   C795      1.0  0.53299  0.26547  0.40863  1.0000
  C   C796      1.0  0.53460  0.28728  0.39691  1.0000
  C   C797      1.0  0.36312  0.39220  0.00203  1.0000
  C   C798      1.0  0.57829  0.31141  0.40976  1.0000
  C   C799      1.0  0.57693  0.28984  0.42134  1.0000
  C   C800      1.0  0.55438  0.26700  0.42093  1.0000
  C   C801      1.0  0.55836  0.33825  0.26571  1.0000
  C   C802      1.0  0.46454  0.09520  0.25939  1.0000
  H   H621      1.0  0.48616  0.25080  0.35971  1.0000
  H   H622      1.0  0.44875  0.25383  0.35026  1.0000
  H   H623      1.0  0.41749  0.24307  0.38739  1.0000
  H   H624      1.0  0.42451  0.23041  0.43452  1.0000
  H   H625      1.0  0.46216  0.22798  0.44453  1.0000
  C   C803      1.0  0.53385  0.47614  0.00281  1.0000
  H   H626      1.0  0.51544  0.12359  0.01321  1.0000
  H   H627      1.0  0.62372  0.12488  0.29492  1.0000
  C   C804      1.0  0.48565  0.41386  0.25362  1.0000
  C   C805      1.0  0.49790  0.08311  0.01547  1.0000
  C   C806      1.0  0.38446  0.45039  0.03552  1.0000
  C   C807      1.0  0.62112  0.17477  0.27862  1.0000
  H   H628      1.0  0.51646  0.06706  0.18149  1.0000
  Fe  Fe55      1.0  0.42578  0.00592  0.16237  1.0000
  H   H629      1.0  0.37164  0.31319  0.11292  1.0000
  H   H630      1.0  0.41408  0.48893  0.18376  1.0000
  C   C808      1.0  0.50885  0.48643  0.17432  1.0000
  H   H631      1.0  0.33484  0.44532  0.18901  1.0000
  H   H632      1.0  0.50638  0.00366  0.02204  1.0000
  C   C809      1.0  0.46564  0.00348  0.06935  1.0000
  H   H633      1.0  0.56525  0.27764  0.48455  1.0000
  H   H634      1.0  0.33209  0.09740  0.13425  1.0000
  H   H635      1.0  0.49771  0.49209  0.07434  1.0000
  Fe  Fe56      1.0  0.65249  0.33369  0.40253  1.0000
  C   C810      1.0  0.49963  0.00381  0.18682  1.0000
  H   H636      1.0  0.48345  0.07975  0.00021  1.0000
  Fe  Fe57      1.0  0.61930  0.00113  0.11578  1.0000
  H   H637      1.0  0.44159  0.47580  0.08580  1.0000
  H   H638      1.0  0.65449  0.14310  0.21175  1.0000
  H   H639      1.0  0.40773  0.44964  0.00357  1.0000
  H   H640      1.0  0.34890  0.39731  0.00005  1.0000
  C   C811      1.0  0.34616  0.27392  0.10328  1.0000
  H   H641      1.0  0.56284  0.99542  0.07200  1.0000
  H   H642      1.0  0.60306  0.13077  0.00748  1.0000
  H   H643      1.0  0.33923  0.20729  0.22457  1.0000
  H   H644      1.0  0.33559  0.00492  0.03702  1.0000
  Fe  Fe58      1.0  0.41035  0.04445  0.84509  1.0000
  S   S113      1.0  0.41593  0.08447  0.84121  1.0000
  S   S114      1.0  0.43398  0.04107  0.87934  1.0000
  C   C812      1.0  0.46135  0.42897  0.96394  1.0000
  H   H645      1.0  0.56062  0.11985  0.99191  1.0000
  C   C813      1.0  0.51853  0.45606  0.91428  1.0000
  Fe  Fe59      1.0  0.62696  0.01856  0.85431  1.0000
  H   H646      1.0  0.37849  0.20069  0.57733  1.0000
  S   S115      1.0  0.59831  0.00818  0.88842  1.0000
  C   C814      1.0  0.54269  0.44716  0.94773  1.0000
  Fe  Fe60      1.0  0.64227  0.30295  0.65830  1.0000
  S   S116      1.0  0.60428  0.26903  0.66898  1.0000
  H   H647      1.0  0.61962  0.10282  0.99452  1.0000
  Fe  Fe61      1.0  0.41428  0.21647  0.67877  1.0000
  S   S117      1.0  0.39306  0.20539  0.71892  1.0000
  S   S118      1.0  0.39893  0.21099  0.63351  1.0000
  Fe  Fe62      1.0  0.46532  0.24075  0.71087  1.0000
  S   S119      1.0  0.44693  0.23019  0.75311  1.0000
  S   S120      1.0  0.50683  0.26979  0.70849  1.0000
  Fe  Fe63      1.0  0.42012  0.19262  0.73252  1.0000
  S   S121      1.0  0.40454  0.15120  0.74528  1.0000
  Fe  Fe64      1.0  0.42162  0.24387  0.73654  1.0000
  S   S122      1.0  0.42030  0.27809  0.75499  1.0000
  S   S123      1.0  0.44036  0.20252  0.69126  1.0000
  S   S124      1.0  0.44099  0.25552  0.69507  1.0000
  Fe  Fe65      1.0  0.37749  0.35663  0.85267  1.0000
  S   S125      1.0  0.39313  0.38830  0.82178  1.0000
  S   S126      1.0  0.36984  0.31629  0.84449  1.0000
  Fe  Fe66      1.0  0.37486  0.39057  0.89925  1.0000
  S   S127      1.0  0.39040  0.42463  0.87090  1.0000
  S   S128      1.0  0.36370  0.39400  0.94419  1.0000
  Fe  Fe67      1.0  0.36434  0.39772  0.83724  1.0000
  Fe  Fe68      1.0  0.41748  0.41255  0.85764  1.0000
  S   S129      1.0  0.45980  0.43465  0.85522  1.0000
  S   S130      1.0  0.34719  0.36433  0.86633  1.0000
  S   S131      1.0  0.40338  0.38016  0.88792  1.0000
  C   C815      1.0  0.47898  0.46780  0.85138  1.0000
  H   H648      1.0  0.37027  0.20587  0.77858  1.0000
  H   H649      1.0  0.35455  0.22991  0.66680  1.0000
  H   H650      1.0  0.51251  0.46581  0.85125  1.0000
  H   H651      1.0  0.44934  0.47621  0.85058  1.0000
  H   H652      1.0  0.64341  0.01585  0.96934  1.0000
  C   C816      1.0  0.37428  0.38968  0.97764  1.0000
  C   C817      1.0  0.39283  0.38328  0.98061  1.0000
  H   H653      1.0  0.45939  0.08606  0.81233  1.0000
  H   H654      1.0  0.40174  0.38146  0.96213  1.0000
  C   C818      1.0  0.38378  0.30591  0.81920  1.0000
  C   C819      1.0  0.37900  0.28085  0.82006  1.0000
  C   C820      1.0  0.38975  0.27187  0.80054  1.0000
  C   C821      1.0  0.40538  0.28785  0.77974  1.0000
  C   C822      1.0  0.40979  0.31277  0.77860  1.0000
  C   C823      1.0  0.39913  0.32176  0.79818  1.0000
  H   H655      1.0  0.36705  0.26836  0.83612  1.0000
  H   H656      1.0  0.38621  0.25273  0.80187  1.0000
  H   H657      1.0  0.42155  0.32530  0.76247  1.0000
  H   H658      1.0  0.40274  0.34094  0.79704  1.0000
  C   C824      1.0  0.57719  0.26965  0.67923  1.0000
  C   C825      1.0  0.57838  0.29164  0.68948  1.0000
  C   C826      1.0  0.55664  0.29125  0.69820  1.0000
  C   C827      1.0  0.53342  0.26887  0.69696  1.0000
  C   C828      1.0  0.53213  0.24684  0.68654  1.0000
  C   C829      1.0  0.55391  0.24727  0.67778  1.0000
  H   H659      1.0  0.59614  0.30889  0.69111  1.0000
  H   H660      1.0  0.55787  0.30842  0.70613  1.0000
  H   H661      1.0  0.51439  0.22953  0.68519  1.0000
  H   H662      1.0  0.55268  0.23017  0.66975  1.0000
  C   C830      1.0  0.38081  0.05835  0.90934  1.0000
  H   H663      1.0  0.36951  0.01849  0.77850  1.0000
  H   H664      1.0  0.36699  0.04785  0.81227  1.0000
  H   H665      1.0  0.52240  0.45809  0.99249  1.0000
  H   H666      1.0  0.46150  0.00439  0.89613  1.0000
  S   S132      1.0  0.42123  0.02554  0.81252  1.0000
  H   H667      1.0  0.64956  0.33958  0.54943  1.0000
  C   C831      1.0  0.41485  0.10329  0.81324  1.0000
  C   C832      1.0  0.42201  0.12868  0.81885  1.0000
  C   C833      1.0  0.42043  0.14412  0.79786  1.0000
  C   C834      1.0  0.41131  0.13425  0.77099  1.0000
  C   C835      1.0  0.40466  0.10902  0.76521  1.0000
  C   C836      1.0  0.40664  0.09370  0.78605  1.0000
  H   H668      1.0  0.42842  0.13634  0.83976  1.0000
  H   H669      1.0  0.42525  0.16331  0.80279  1.0000
  H   H670      1.0  0.39748  0.10112  0.74455  1.0000
  H   H671      1.0  0.40139  0.07438  0.78117  1.0000
  H   H672      1.0  0.49953  0.48431  0.94479  1.0000
  H   H673      1.0  0.49880  0.08744  0.82474  1.0000
  C   C837      1.0  0.33198  0.24954  0.61330  1.0000
  C   C838      1.0  0.39646  0.99770  0.96812  1.0000
  C   C839      1.0  0.36765  0.19300  0.62063  1.0000
  C   C840      1.0  0.36304  0.19126  0.59141  1.0000
  C   C841      1.0  0.34528  0.32658  0.95995  1.0000
  H   H674      1.0  0.55267  0.26448  0.53347  1.0000
  C   C842      1.0  0.49899  0.10161  0.81091  1.0000
  H   H675      1.0  0.58816  0.21455  0.68900  1.0000
  H   H676      1.0  0.37045  0.45782  0.71622  1.0000
  C   C843      1.0  0.44873  0.38564  0.78088  1.0000
  C   C844      1.0  0.32770  0.27911  0.78499  1.0000
  P   P27       1.0  0.33314  0.24232  0.71558  1.0000
  C   C845      1.0  0.43441  0.38981  0.76110  1.0000
  H   H677      1.0  0.37517  0.32426  0.98012  1.0000
  H   H678      1.0  0.51997  0.39080  0.84596  1.0000
  H   H679      1.0  0.53641  0.40918  0.94666  1.0000
  C   C846      1.0  0.47674  0.10072  0.80380  1.0000
  S   S133      1.0  0.64824  0.33231  0.62613  1.0000
  C   C847      1.0  0.49562  0.01255  0.84152  1.0000
  H   H680      1.0  0.33627  0.29092  0.70489  1.0000
  H   H681      1.0  0.62935  0.20317  0.68698  1.0000
  C   C848      1.0  0.40413  0.29595  0.69469  1.0000
  C   C849      1.0  0.38148  0.28268  0.70843  1.0000
  H   H682      1.0  0.55721  0.02557  0.99352  1.0000
  C   C850      1.0  0.35263  0.10334  0.79510  1.0000
  H   H683      1.0  0.33551  0.17599  0.55766  1.0000
  C   C851      1.0  0.33092  0.30160  0.77382  1.0000
  H   H684      1.0  0.59654  0.37767  0.65898  1.0000
  C   C852      1.0  0.32885  0.02199  0.82306  1.0000
  C   C853      1.0  0.36778  0.24849  0.67464  1.0000
  H   H685      1.0  0.41865  0.31374  0.70336  1.0000
  H   H686      1.0  0.37909  0.29072  0.72756  1.0000
  C   C854      1.0  0.53133  0.42224  0.93770  1.0000
  C   C855      1.0  0.53205  0.00735  0.84115  1.0000
  C   C856      1.0  0.44741  0.46526  0.97265  1.0000
  C   C857      1.0  0.50722  0.43118  0.90430  1.0000
  C   C858      1.0  0.56054  0.28417  0.52800  1.0000
  C   C859      1.0  0.45643  0.38340  0.72346  1.0000
  C   C860      1.0  0.50484  0.47816  0.85006  1.0000
  H   H687      1.0  0.33187  0.31613  0.78776  1.0000
  H   H688      1.0  0.37407  0.45512  0.76789  1.0000
  C   C861      1.0  0.46674  0.37982  0.77207  1.0000
  C   C862      1.0  0.47088  0.37934  0.74318  1.0000
  P   P28       1.0  0.48591  0.37535  0.79760  1.0000
  C   C863      1.0  0.46700  0.35937  0.82757  1.0000
  C   C864      1.0  0.46385  0.37351  0.84873  1.0000
  C   C865      1.0  0.44853  0.36145  0.87147  1.0000
  C   C866      1.0  0.43585  0.33514  0.87307  1.0000
  C   C867      1.0  0.43901  0.32091  0.85229  1.0000
  C   C868      1.0  0.45457  0.33293  0.82967  1.0000
  C   C869      1.0  0.49764  0.35639  0.78208  1.0000
  C   C870      1.0  0.48166  0.33476  0.76610  1.0000
  C   C871      1.0  0.49042  0.32001  0.75387  1.0000
  C   C872      1.0  0.51533  0.32685  0.75720  1.0000
  C   C873      1.0  0.53148  0.34846  0.77284  1.0000
  C   C874      1.0  0.52271  0.36320  0.78525  1.0000
  H   H689      1.0  0.45956  0.38276  0.70123  1.0000
  H   H690      1.0  0.32630  0.27642  0.80756  1.0000
  C   C875      1.0  0.56747  0.10715  0.98726  1.0000
  C   C876      1.0  0.57637  0.32788  0.54146  1.0000
  H   H691      1.0  0.48531  0.37591  0.73581  1.0000
  H   H692      1.0  0.44593  0.37253  0.88739  1.0000
  H   H693      1.0  0.42308  0.32573  0.89002  1.0000
  H   H694      1.0  0.42871  0.30047  0.85315  1.0000
  H   H695      1.0  0.45609  0.32132  0.81360  1.0000
  H   H696      1.0  0.46231  0.32917  0.76314  1.0000
  C   C877      1.0  0.34752  0.09536  0.85300  1.0000
  H   H697      1.0  0.52205  0.31535  0.74758  1.0000
  H   H698      1.0  0.55083  0.35376  0.77527  1.0000
  H   H699      1.0  0.53561  0.37988  0.79709  1.0000
  H   H700      1.0  0.39948  0.07342  0.91433  1.0000
  C   C878      1.0  0.39036  0.26195  0.66079  1.0000
  C   C879      1.0  0.33037  0.26459  0.73826  1.0000
  H   H701      1.0  0.35058  0.18174  0.66101  1.0000
  C   C880      1.0  0.34080  0.07480  0.83473  1.0000
  H   H702      1.0  0.49366  0.42515  0.88726  1.0000
  C   C881      1.0  0.53498  0.45147  0.80511  1.0000
  C   C882      1.0  0.44521  0.45483  0.94583  1.0000
  C   C883      1.0  0.37041  0.03589  0.92444  1.0000
  C   C884      1.0  0.34741  0.18071  0.63852  1.0000
  H   H703      1.0  0.42633  0.29559  0.66059  1.0000
  H   H704      1.0  0.36856  0.14277  0.80516  1.0000
  H   H705      1.0  0.58095  0.34245  0.55708  1.0000
  S   S134      1.0  0.65004  0.06036  0.84153  1.0000
  C   C885      1.0  0.33333  0.28719  0.72715  1.0000
  S   S135      1.0  0.37603  0.00789  0.85725  1.0000
  H   H706      1.0  0.37137  0.23867  0.74777  1.0000
  H   H707      1.0  0.42049  0.39419  0.76809  1.0000
  C   C886      1.0  0.54812  0.45313  0.82980  1.0000
  Fe  Fe69      1.0  0.44286  0.02003  0.84705  1.0000
  C   C887      1.0  0.55444  0.01236  0.97684  1.0000
  S   S136      1.0  0.34446  0.40792  0.80252  1.0000
  H   H708      1.0  0.37654  0.07820  0.87484  1.0000
  H   H709      1.0  0.36344  0.13572  0.85663  1.0000
  H   H710      1.0  0.58554  0.22784  0.73726  1.0000
  C   C888      1.0  0.49772  0.02155  0.91586  1.0000
  C   C889      1.0  0.51157  0.03097  0.94085  1.0000
  C   C890      1.0  0.49911  0.02847  0.96605  1.0000
  P   P29       1.0  0.54454  0.04258  0.94109  1.0000
  C   C891      1.0  0.54808  0.01586  0.94946  1.0000
  C   C892      1.0  0.55824  0.05555  0.90762  1.0000
  C   C893      1.0  0.57901  0.05431  0.89875  1.0000
  C   C894      1.0  0.59058  0.06549  0.87358  1.0000
  C   C895      1.0  0.58182  0.07847  0.85738  1.0000
  C   C896      1.0  0.56159  0.08043  0.86646  1.0000
  C   C897      1.0  0.54988  0.06911  0.89154  1.0000
  H   H711      1.0  0.50939  0.03467  0.98572  1.0000
  H   H712      1.0  0.33639  0.32322  0.73637  1.0000
  C   C898      1.0  0.63415  0.03340  0.76506  1.0000
  C   C899      1.0  0.46316  0.43903  0.99090  1.0000
  H   H713      1.0  0.35458  0.33260  0.93999  1.0000
  C   C900      1.0  0.56174  0.06888  0.96482  1.0000
  C   C901      1.0  0.55263  0.08499  0.97178  1.0000
  H   H714      1.0  0.65625  0.18398  0.68909  1.0000
  H   H715      1.0  0.53211  0.04133  0.82920  1.0000
  H   H716      1.0  0.43799  0.46070  0.92835  1.0000
  C   C902      1.0  0.58604  0.07554  0.97303  1.0000
  H   H717      1.0  0.61939  0.05155  0.79083  1.0000
  C   C903      1.0  0.58337  0.33514  0.51369  1.0000
  H   H718      1.0  0.56227  0.47147  0.83775  1.0000
  H   H719      1.0  0.38091  0.03355  0.94133  1.0000
  H   H720      1.0  0.58647  0.04493  0.91139  1.0000
  C   C904      1.0  0.41634  0.02193  0.97413  1.0000
  C   C905      1.0  0.45216  0.43669  0.94147  1.0000
  H   H721      1.0  0.55466  0.09034  0.85382  1.0000
  H   H722      1.0  0.53427  0.07089  0.89824  1.0000
  H   H723      1.0  0.35895  0.47632  0.79950  1.0000
  C   C906      1.0  0.33235  0.21757  0.73686  1.0000
  H   H724      1.0  0.65280  0.04504  0.77333  1.0000
  C   C907      1.0  0.52096  0.02220  0.83651  1.0000
  C   C908      1.0  0.36023  0.12381  0.81347  1.0000
  H   H725      1.0  0.53447  0.08097  0.96440  1.0000
  C   C909      1.0  0.33107  0.18021  0.77207  1.0000
  C   C910      1.0  0.35688  0.32192  0.98260  1.0000
  C   C911      1.0  0.60077  0.09766  0.98859  1.0000
  H   H726      1.0  0.59387  0.06401  0.96671  1.0000
  C   C912      1.0  0.36626  0.46601  0.75907  1.0000
  H   H727      1.0  0.39404  0.25371  0.64264  1.0000
  H   H728      1.0  0.60835  0.30296  0.57106  1.0000
  C   C913      1.0  0.54272  0.43121  0.84439  1.0000
  C   C914      1.0  0.58915  0.36135  0.64509  1.0000
  C   C915      1.0  0.57138  0.20351  0.70088  1.0000
  C   C916      1.0  0.62898  0.01464  0.74486  1.0000
  Fe  Fe70      1.0  0.40082  0.00347  0.88930  1.0000
  H   H729      1.0  0.55668  0.45323  0.96430  1.0000
  H   H730      1.0  0.59076  0.08699  0.83781  1.0000
  C   C917      1.0  0.36286  0.25896  0.69829  1.0000
  C   C918      1.0  0.51087  0.40580  0.80947  1.0000
  H   H731      1.0  0.42699  0.39181  0.71719  1.0000
  H   H732      1.0  0.50679  0.02207  0.89651  1.0000
  C   C919      1.0  0.36764  0.06102  0.88688  1.0000
  C   C920      1.0  0.58939  0.32404  0.62855  1.0000
  C   C921      1.0  0.53598  0.46414  0.93651  1.0000
  H   H733      1.0  0.35133  0.48130  0.69610  1.0000
  H   H734      1.0  0.44225  0.47958  0.97556  1.0000
  C   C922      1.0  0.61524  0.03728  0.77481  1.0000
  C   C923      1.0  0.43813  0.38854  0.73242  1.0000
  H   H735      1.0  0.56199  0.36858  0.62556  1.0000
  C   C924      1.0  0.52417  0.40762  0.83429  1.0000
  H   H736      1.0  0.61372  0.34897  0.66121  1.0000
  H   H737      1.0  0.65337  0.19764  0.58443  1.0000
  S   S137      1.0  0.48320  0.03279  0.83826  1.0000
  H   H738      1.0  0.46680  0.41495  0.96048  1.0000
  H   H739      1.0  0.53888  0.46855  0.79411  1.0000
  H   H740      1.0  0.33715  0.06343  0.79088  1.0000
  H   H741      1.0  0.60644  0.06415  0.86667  1.0000
  H   H742      1.0  0.35497  0.10657  0.77266  1.0000
  C   C925      1.0  0.40853  0.28564  0.67079  1.0000
  H   H743      1.0  0.47783  0.30317  0.74184  1.0000
  C   C926      1.0  0.33383  0.26899  0.63043  1.0000
  C   C927      1.0  0.56979  0.35626  0.62619  1.0000
  H   H744      1.0  0.59645  0.31120  0.63069  1.0000
  H   H745      1.0  0.55166  0.01507  0.83754  1.0000
  H   H746      1.0  0.44566  0.38704  0.80298  1.0000
  C   C928      1.0  0.59887  0.34519  0.64633  1.0000
  H   H747      1.0  0.50625  0.42719  0.77601  1.0000
  C   C929      1.0  0.51349  0.41421  0.91608  1.0000
  C   C930      1.0  0.56478  0.30227  0.54884  1.0000
  P   P30       1.0  0.55868  0.29252  0.58511  1.0000
  C   C931      1.0  0.52595  0.27381  0.59245  1.0000
  C   C932      1.0  0.57457  0.27505  0.59110  1.0000
  C   C933      1.0  0.56292  0.25160  0.60458  1.0000
  C   C934      1.0  0.57549  0.23820  0.60830  1.0000
  C   C935      1.0  0.59973  0.24814  0.59871  1.0000
  C   C936      1.0  0.61139  0.27142  0.58518  1.0000
  C   C937      1.0  0.59890  0.28483  0.58139  1.0000
  C   C938      1.0  0.51835  0.26920  0.62052  1.0000
  C   C939      1.0  0.49314  0.25526  0.62689  1.0000
  C   C940      1.0  0.47526  0.24589  0.60529  1.0000
  C   C941      1.0  0.48264  0.25054  0.57728  1.0000
  C   C942      1.0  0.50790  0.26453  0.57082  1.0000
  C   C943      1.0  0.57068  0.31938  0.60872  1.0000
  C   C944      1.0  0.56048  0.33528  0.60815  1.0000
  C   C945      1.0  0.51642  0.42793  0.79493  1.0000
  H   H748      1.0  0.51366  0.46886  0.90434  1.0000
  C   C946      1.0  0.64695  0.22526  0.65038  1.0000
  H   H749      1.0  0.42607  0.03459  0.95708  1.0000
  H   H750      1.0  0.54438  0.24375  0.61266  1.0000
  H   H751      1.0  0.56675  0.22053  0.61951  1.0000
  H   H752      1.0  0.60971  0.23813  0.60231  1.0000
  H   H753      1.0  0.63029  0.27929  0.57796  1.0000
  H   H754      1.0  0.53195  0.27650  0.63756  1.0000
  H   H755      1.0  0.48748  0.25190  0.64866  1.0000
  H   H756      1.0  0.45567  0.23519  0.61036  1.0000
  H   H757      1.0  0.46868  0.24344  0.56063  1.0000
  H   H758      1.0  0.51318  0.26830  0.54907  1.0000
  H   H759      1.0  0.54541  0.33147  0.59367  1.0000
  C   C947      1.0  0.33357  0.30558  0.74488  1.0000
  C   C948      1.0  0.64348  0.20791  0.67135  1.0000
  C   C949      1.0  0.63252  0.00488  0.98690  1.0000
  C   C950      1.0  0.33864  0.17721  0.58016  1.0000
  H   H760      1.0  0.53857  0.12123  0.80558  1.0000
  C   C951      1.0  0.43823  0.13856  0.69772  1.0000
  C   C952      1.0  0.43264  0.11452  0.68875  1.0000
  C   C953      1.0  0.44717  0.10442  0.69814  1.0000
  C   C954      1.0  0.46720  0.11834  0.71662  1.0000
  C   C955      1.0  0.47269  0.14239  0.72609  1.0000
  C   C956      1.0  0.45817  0.15249  0.71631  1.0000
  P   P31       1.0  0.49856  0.16006  0.75009  1.0000
  C   C957      1.0  0.49912  0.13780  0.77458  1.0000
  C   C958      1.0  0.52728  0.17637  0.73102  1.0000
  C   C959      1.0  0.54802  0.19745  0.74326  1.0000
  C   C960      1.0  0.55101  0.18231  0.68871  1.0000
  C   C961      1.0  0.52899  0.16879  0.70367  1.0000
  C   C962      1.0  0.47677  0.11865  0.78565  1.0000
  C   C963      1.0  0.52135  0.12064  0.80007  1.0000
  C   C964      1.0  0.52148  0.13873  0.78199  1.0000
  C   C965      1.0  0.49433  0.18340  0.76868  1.0000
  C   C966      1.0  0.50163  0.20685  0.75620  1.0000
  C   C967      1.0  0.49894  0.22526  0.77051  1.0000
  C   C968      1.0  0.48858  0.22031  0.79720  1.0000
  C   C969      1.0  0.48102  0.19696  0.80967  1.0000
  C   C970      1.0  0.48390  0.17857  0.79552  1.0000
  H   H761      1.0  0.42664  0.14618  0.69091  1.0000
  H   H762      1.0  0.41689  0.10365  0.67477  1.0000
  H   H763      1.0  0.44274  0.08570  0.69134  1.0000
  H   H764      1.0  0.47822  0.11020  0.72376  1.0000
  H   H765      1.0  0.46168  0.17081  0.72340  1.0000
  H   H766      1.0  0.54714  0.20371  0.76430  1.0000
  H   H767      1.0  0.55213  0.17665  0.66747  1.0000
  H   H768      1.0  0.51333  0.15272  0.69365  1.0000
  H   H769      1.0  0.45931  0.11756  0.78021  1.0000
  H   H770      1.0  0.53896  0.15318  0.77372  1.0000
  H   H771      1.0  0.50935  0.21098  0.73533  1.0000
  H   H772      1.0  0.50462  0.24329  0.76069  1.0000
  H   H773      1.0  0.48614  0.23448  0.80803  1.0000
  H   H774      1.0  0.47265  0.19295  0.83020  1.0000
  H   H775      1.0  0.47772  0.16062  0.80558  1.0000
  H   H776      1.0  0.47261  0.39386  0.84727  1.0000
  H   H777      1.0  0.50463  0.39492  0.90827  1.0000
  C   C971      1.0  0.56988  0.21106  0.72813  1.0000
  H   H778      1.0  0.55273  0.43257  0.86371  1.0000
  C   C972      1.0  0.35752  0.11982  0.84241  1.0000
  C   C973      1.0  0.35237  0.01283  0.78944  1.0000
  H   H779      1.0  0.32775  0.26002  0.53789  1.0000
  H   H780      1.0  0.63547  0.23395  0.64972  1.0000
  C   C974      1.0  0.46921  0.48392  0.84965  1.0000
  H   H781      1.0  0.57628  0.02512  0.77251  1.0000
  H   H782      1.0  0.45045  0.42870  0.92062  1.0000
  H   H783      1.0  0.34535  0.09254  0.87546  1.0000
  H   H784      1.0  0.34758  0.27660  0.64729  1.0000
  C   C975      1.0  0.35398  0.22135  0.75062  1.0000
  C   C976      1.0  0.34390  0.04122  0.87933  1.0000
  C   C977      1.0  0.34287  0.07892  0.80561  1.0000
  C   C978      1.0  0.35334  0.20278  0.76823  1.0000
  C   C979      1.0  0.35085  0.02941  0.80847  1.0000
  H   H785      1.0  0.63593  0.16943  0.54317  1.0000
  C   C980      1.0  0.35310  0.48067  0.71868  1.0000
  H   H786      1.0  0.46340  0.01545  0.98525  1.0000
  C   C981      1.0  0.36404  0.46740  0.72997  1.0000
  P   P32       1.0  0.65387  0.01056  0.73196  1.0000
  H   H787      1.0  0.34407  0.24180  0.61697  1.0000
  C   C982      1.0  0.32747  0.26068  0.76738  1.0000
  H   H788      1.0  0.32582  0.24388  0.77686  1.0000
  C   C983      1.0  0.34684  0.01601  0.91702  1.0000
  C   C984      1.0  0.65470  0.33488  0.52967  1.0000
  C   C985      1.0  0.47197  0.01110  0.91568  1.0000
  C   C986      1.0  0.45970  0.00905  0.94068  1.0000
  C   C987      1.0  0.59100  0.02245  0.76442  1.0000
  C   C988      1.0  0.60475  0.00038  0.73375  1.0000
  C   C989      1.0  0.33366  0.01858  0.89446  1.0000
  C   C990      1.0  0.59146  0.11342  0.99581  1.0000
  C   C991      1.0  0.54366  0.99781  0.92854  1.0000
  H   H789      1.0  0.33932  0.99827  0.92811  1.0000
  C   C992      1.0  0.58577  0.00409  0.74378  1.0000
  C   C993      1.0  0.47321  0.01760  0.96591  1.0000
  C   C994      1.0  0.35771  0.47801  0.77694  1.0000
  P   P33       1.0  0.32772  0.04324  0.84856  1.0000
  H   H790      1.0  0.53828  0.99984  0.90738  1.0000
  C   C995      1.0  0.65577  0.17918  0.54729  1.0000
  H   H791      1.0  0.50981  0.23468  0.51187  1.0000
  H   H792      1.0  0.49349  0.18855  0.51427  1.0000
  H   H793      1.0  0.43967  0.00053  0.94044  1.0000
  C   C996      1.0  0.45569  0.45690  0.99562  1.0000
  H   H794      1.0  0.63496  0.34852  0.50427  1.0000
  H   H795      1.0  0.59289  0.35496  0.50822  1.0000
  C   C997      1.0  0.64642  0.33989  0.50404  1.0000
  C   C998      1.0  0.34430  0.49264  0.73652  1.0000
  H   H796      1.0  0.64828  0.01548  0.67122  1.0000
  C   C999      1.0  0.34699  0.49149  0.76576  1.0000
  H   H797      1.0  0.33072  0.16570  0.78538  1.0000
  C   C1000     1.0  0.65855  0.19703  0.67248  1.0000
  C   C1001     1.0  0.56773  0.29154  0.50031  1.0000
  H   H798      1.0  0.60150  0.65936  0.28777  1.0000
  S   S138      1.0  0.40512  0.97792  0.12774  1.0000
  H   H799      1.0  0.34907  0.87546  0.19709  1.0000
  Fe  Fe71      1.0  0.37092  0.97381  0.14883  1.0000
  H   H800      1.0  0.60923  0.78812  0.41666  1.0000
  H   H801      1.0  0.35694  0.66700  0.45539  1.0000
  S   S139      1.0  0.58394  0.96565  0.12572  1.0000
  Fe  Fe72      1.0  0.60098  0.96652  0.16821  1.0000
  S   S140      1.0  0.58753  0.92950  0.19306  1.0000
  Fe  Fe73      1.0  0.63706  0.59961  0.14417  1.0000
  S   S141      1.0  0.61193  0.59748  0.17874  1.0000
  H   H802      1.0  0.43301  0.72124  0.43744  1.0000
  Fe  Fe74      1.0  0.59916  0.59474  0.09766  1.0000
  S   S142      1.0  0.57171  0.59258  0.12982  1.0000
  S   S143      1.0  0.58538  0.59270  0.05201  1.0000
  Fe  Fe75      1.0  0.60424  0.62399  0.15345  1.0000
  S   S144      1.0  0.61087  0.66254  0.16935  1.0000
  Fe  Fe76      1.0  0.58131  0.56635  0.15254  1.0000
  S   S145      1.0  0.55493  0.52918  0.17346  1.0000
  S   S146      1.0  0.63111  0.62790  0.11987  1.0000
  S   S147      1.0  0.60696  0.56666  0.11934  1.0000
  H   H803      1.0  0.60732  0.84650  0.15630  1.0000
  C   C1002     1.0  0.37986  0.73149  0.46406  1.0000
  S   S148      1.0  0.34692  0.68416  0.37957  1.0000
  C   C1003     1.0  0.39814  0.91684  0.20668  1.0000
  Fe  Fe77      1.0  0.35963  0.66224  0.35331  1.0000
  S   S149      1.0  0.39993  0.67146  0.34991  1.0000
  H   H804      1.0  0.56104  0.56313  0.24091  1.0000
  Fe  Fe78      1.0  0.53071  0.76625  0.28215  1.0000
  S   S150      1.0  0.54670  0.76671  0.23975  1.0000
  S   S151      1.0  0.49166  0.76069  0.28617  1.0000
  Fe  Fe79      1.0  0.57962  0.77944  0.31338  1.0000
  S   S152      1.0  0.59889  0.78052  0.27328  1.0000
  S   S153      1.0  0.59239  0.78175  0.35922  1.0000
  Fe  Fe80      1.0  0.58079  0.80213  0.25565  1.0000
  S   S154      1.0  0.60406  0.83780  0.22944  1.0000
  Fe  Fe81      1.0  0.56345  0.74522  0.26020  1.0000
  S   S155      1.0  0.55639  0.70614  0.24569  1.0000
  S   S156      1.0  0.56383  0.80300  0.29671  1.0000
  S   S157      1.0  0.54516  0.74284  0.30159  1.0000
  C   C1004     1.0  0.37376  0.91681  0.11166  1.0000
  C   C1005     1.0  0.64808  0.57659  0.33700  1.0000
  C   C1006     1.0  0.51254  0.98884  0.14674  1.0000
  C   C1007     1.0  0.46594  0.73515  0.30288  1.0000
  C   C1008     1.0  0.46750  0.71508  0.31459  1.0000
  C   C1009     1.0  0.44696  0.69552  0.32838  1.0000
  C   C1010     1.0  0.42465  0.69587  0.33083  1.0000
  C   C1011     1.0  0.42288  0.71570  0.31866  1.0000
  C   C1012     1.0  0.44340  0.73517  0.30469  1.0000
  H   H805      1.0  0.48456  0.71469  0.31289  1.0000
  H   H806      1.0  0.44845  0.68013  0.33732  1.0000
  H   H807      1.0  0.40581  0.71618  0.32025  1.0000
  H   H808      1.0  0.44194  0.75055  0.29558  1.0000
  C   C1013     1.0  0.59744  0.59244  0.01832  1.0000
  H   H809      1.0  0.56476  0.70585  0.43590  1.0000
  C   C1014     1.0  0.47828  0.90824  0.20041  1.0000
  H   H810      1.0  0.62601  0.58517  0.03298  1.0000
  H   H811      1.0  0.65745  0.96646  0.25011  1.0000
  C   C1015     1.0  0.59464  0.67420  0.18945  1.0000
  C   C1016     1.0  0.60549  0.70047  0.19358  1.0000
  C   C1017     1.0  0.59383  0.71068  0.21001  1.0000
  C   C1018     1.0  0.57132  0.69468  0.22307  1.0000
  C   C1019     1.0  0.56037  0.66841  0.21875  1.0000
  C   C1020     1.0  0.57179  0.65824  0.20186  1.0000
  H   H812      1.0  0.62313  0.71305  0.18410  1.0000
  H   H813      1.0  0.60249  0.73089  0.21300  1.0000
  H   H814      1.0  0.54292  0.65581  0.22859  1.0000
  H   H815      1.0  0.56302  0.63806  0.19869  1.0000
  C   C1021     1.0  0.51129  0.52130  0.14794  1.0000
  H   H816      1.0  0.57196  0.54067  0.04142  1.0000
  H   H817      1.0  0.52196  0.54031  0.14007  1.0000
  C   C1022     1.0  0.62532  0.79979  0.40413  1.0000
  C   C1023     1.0  0.42038  0.66967  0.45779  1.0000
  C   C1024     1.0  0.40742  0.94268  0.20223  1.0000
  C   C1025     1.0  0.59943  0.86356  0.22064  1.0000
  C   C1026     1.0  0.57736  0.86339  0.22634  1.0000
  C   C1027     1.0  0.57414  0.88366  0.21767  1.0000
  C   C1028     1.0  0.59286  0.90445  0.20323  1.0000
  C   C1029     1.0  0.61511  0.90480  0.19794  1.0000
  C   C1030     1.0  0.61831  0.88451  0.20655  1.0000
  H   H818      1.0  0.56262  0.84747  0.23706  1.0000
  H   H819      1.0  0.55690  0.88316  0.22208  1.0000
  H   H820      1.0  0.62993  0.92076  0.18738  1.0000
  H   H821      1.0  0.63552  0.88497  0.20211  1.0000
  C   C1031     1.0  0.41797  0.66706  0.42858  1.0000
  H   H822      1.0  0.41718  0.86611  0.20977  1.0000
  C   C1032     1.0  0.56892  0.86397  0.12432  1.0000
  H   H823      1.0  0.40102  0.78192  0.45368  1.0000
  C   C1033     1.0  0.59886  0.96642  0.00552  1.0000
  H   H824      1.0  0.62452  0.85548  0.28891  1.0000
  C   C1034     1.0  0.33227  0.83554  0.19131  1.0000
  C   C1035     1.0  0.55433  0.71563  0.43662  1.0000
  H   H825      1.0  0.38940  0.56208  0.17371  1.0000
  H   H826      1.0  0.38831  0.92631  0.06991  1.0000
  H   H827      1.0  0.45148  0.93868  0.16923  1.0000
  H   H828      1.0  0.35146  0.92937  0.20760  1.0000
  H   H829      1.0  0.41426  0.97787  0.22036  1.0000
  C   C1036     1.0  0.45693  0.88626  0.20868  1.0000
  H   H830      1.0  0.33437  0.76517  0.44665  1.0000
  C   C1037     1.0  0.61750  0.58851  0.01482  1.0000
  C   C1038     1.0  0.47969  0.52122  0.04747  1.0000
  H   H831      1.0  0.43071  0.90910  0.12815  1.0000
  C   C1039     1.0  0.64962  0.91778  0.30739  1.0000
  H   H832      1.0  0.36476  0.66748  0.18614  1.0000
  H   H833      1.0  0.61753  0.92646  0.25410  1.0000
  H   H834      1.0  0.40161  0.84410  0.49603  1.0000
  C   C1040     1.0  0.46516  0.69495  0.45367  1.0000
  C   C1041     1.0  0.46287  0.69229  0.42429  1.0000
  C   C1042     1.0  0.43910  0.67824  0.41194  1.0000
  P   P34       1.0  0.48987  0.70732  0.40215  1.0000
  C   C1043     1.0  0.51825  0.71866  0.42255  1.0000
  C   C1044     1.0  0.48832  0.68505  0.37593  1.0000
  C   C1045     1.0  0.48574  0.65087  0.33463  1.0000
  C   C1046     1.0  0.50137  0.67679  0.33111  1.0000
  C   C1047     1.0  0.50281  0.69376  0.35177  1.0000
  C   C1048     1.0  0.49160  0.73452  0.38499  1.0000
  C   C1049     1.0  0.47061  0.73735  0.38243  1.0000
  C   C1050     1.0  0.47218  0.75824  0.36866  1.0000
  C   C1051     1.0  0.49458  0.77631  0.35703  1.0000
  C   C1052     1.0  0.51555  0.77374  0.35959  1.0000
  C   C1053     1.0  0.51420  0.75315  0.37375  1.0000
  H   H835      1.0  0.42184  0.60661  0.16562  1.0000
  H   H836      1.0  0.42043  0.82765  0.46254  1.0000
  C   C1054     1.0  0.53591  0.85845  0.05671  1.0000
  H   H837      1.0  0.48319  0.70570  0.46383  1.0000
  H   H838      1.0  0.43688  0.67614  0.38932  1.0000
  H   H839      1.0  0.48464  0.63778  0.31854  1.0000
  H   H840      1.0  0.51240  0.68384  0.31233  1.0000
  H   H841      1.0  0.51512  0.71370  0.34865  1.0000
  H   H842      1.0  0.52454  0.68812  0.41071  1.0000
  S   S158      1.0  0.33407  0.65693  0.31696  1.0000
  H   H843      1.0  0.45277  0.72322  0.39010  1.0000
  H   H844      1.0  0.45571  0.75978  0.36577  1.0000
  H   H845      1.0  0.49543  0.79172  0.34500  1.0000
  H   H846      1.0  0.53267  0.78728  0.34976  1.0000
  H   H847      1.0  0.53079  0.75161  0.37534  1.0000
  C   C1055     1.0  0.37818  0.57030  0.21312  1.0000
  C   C1056     1.0  0.39249  0.57661  0.18894  1.0000
  C   C1057     1.0  0.41075  0.60168  0.18439  1.0000
  C   C1058     1.0  0.41479  0.62042  0.20406  1.0000
  C   C1059     1.0  0.40072  0.61419  0.22864  1.0000
  C   C1060     1.0  0.38222  0.58898  0.23289  1.0000
  P   P35       1.0  0.40634  0.63870  0.25390  1.0000
  C   C1061     1.0  0.39024  0.65510  0.24347  1.0000
  C   C1062     1.0  0.39487  0.62502  0.28792  1.0000
  C   C1063     1.0  0.41109  0.62686  0.30977  1.0000
  C   C1064     1.0  0.40171  0.61650  0.33605  1.0000
  C   C1065     1.0  0.37617  0.60439  0.34072  1.0000
  C   C1066     1.0  0.35995  0.60261  0.31913  1.0000
  C   C1067     1.0  0.36924  0.61297  0.29290  1.0000
  C   C1068     1.0  0.38570  0.66906  0.26356  1.0000
  C   C1069     1.0  0.48035  0.50396  0.02847  1.0000
  C   C1070     1.0  0.36618  0.68174  0.22792  1.0000
  C   C1071     1.0  0.37061  0.66788  0.20776  1.0000
  C   C1072     1.0  0.38266  0.65464  0.21545  1.0000
  C   C1073     1.0  0.43947  0.66036  0.25489  1.0000
  C   C1074     1.0  0.44910  0.68634  0.25087  1.0000
  C   C1075     1.0  0.47469  0.70255  0.24869  1.0000
  C   C1076     1.0  0.49090  0.69315  0.25107  1.0000
  C   C1077     1.0  0.48157  0.66740  0.25532  1.0000
  C   C1078     1.0  0.45593  0.65100  0.25708  1.0000
  H   H848      1.0  0.42804  0.95277  0.02780  1.0000
  C   C1079     1.0  0.64502  0.96043  0.09893  1.0000
  C   C1080     1.0  0.37740  0.91056  0.13884  1.0000
  H   H849      1.0  0.42899  0.63979  0.20013  1.0000
  H   H850      1.0  0.37097  0.58358  0.25144  1.0000
  H   H851      1.0  0.43096  0.63692  0.30700  1.0000
  C   C1081     1.0  0.65748  0.87589  0.31524  1.0000
  C   C1082     1.0  0.51803  0.53833  0.00872  1.0000
  H   H852      1.0  0.51025  0.83683  0.02323  1.0000
  H   H853      1.0  0.35640  0.61190  0.27662  1.0000
  H   H854      1.0  0.39144  0.66975  0.28528  1.0000
  H   H855      1.0  0.33760  0.96556  0.03836  1.0000
  H   H856      1.0  0.44577  0.68564  0.49300  1.0000
  H   H857      1.0  0.58196  0.74650  0.46192  1.0000
  H   H858      1.0  0.38605  0.64418  0.19951  1.0000
  H   H859      1.0  0.43706  0.69431  0.24927  1.0000
  H   H860      1.0  0.48202  0.72256  0.24536  1.0000
  H   H861      1.0  0.51071  0.70588  0.24946  1.0000
  H   H862      1.0  0.49435  0.66027  0.25675  1.0000
  H   H863      1.0  0.44891  0.63098  0.25968  1.0000
  H   H864      1.0  0.41570  0.95125  0.18241  1.0000
  H   H865      1.0  0.50792  0.92602  0.13354  1.0000
  H   H866      1.0  0.51820  0.92659  0.08342  1.0000
  H   H867      1.0  0.58597  0.85592  0.01140  1.0000
  C   C1083     1.0  0.47320  0.65888  0.37970  1.0000
  H   H868      1.0  0.60539  0.91576  0.14373  1.0000
  H   H869      1.0  0.47648  0.51531  0.13078  1.0000
  C   C1084     1.0  0.54658  0.50087  0.04594  1.0000
  H   H870      1.0  0.39578  0.84908  0.16260  1.0000
  C   C1085     1.0  0.38341  0.73026  0.43510  1.0000
  H   H871      1.0  0.32668  0.96294  0.23144  1.0000
  H   H872      1.0  0.35687  0.69203  0.22201  1.0000
  H   H873      1.0  0.41467  0.52186  0.21485  1.0000
  P   P36       1.0  0.65443  0.67853  0.02300  1.0000
  C   C1086     1.0  0.55080  0.75139  0.45196  1.0000
  C   C1087     1.0  0.52798  0.74150  0.43770  1.0000
  C   C1088     1.0  0.59078  0.86362  0.13103  1.0000
  C   C1089     1.0  0.51749  0.55520  0.02805  1.0000
  C   C1090     1.0  0.41507  0.91178  0.12412  1.0000
  C   C1091     1.0  0.63282  0.93036  0.26831  1.0000
  C   C1092     1.0  0.41497  0.72545  0.47364  1.0000
  C   C1093     1.0  0.47616  0.92692  0.18598  1.0000
  C   C1094     1.0  0.61802  0.62883  0.26032  1.0000
  C   C1095     1.0  0.60010  0.62675  0.24061  1.0000
  C   C1096     1.0  0.56274  0.52120  0.00141  1.0000
  C   C1097     1.0  0.44396  0.68358  0.47033  1.0000
  C   C1098     1.0  0.34661  0.66077  0.47465  1.0000
  H   H874      1.0  0.49650  0.91105  0.20566  1.0000
  H   H875      1.0  0.42646  0.97668  0.06909  1.0000
  C   C1099     1.0  0.59185  0.65106  0.07030  1.0000
  C   C1100     1.0  0.47428  0.99069  0.14439  1.0000
  C   C1101     1.0  0.62248  0.54865  0.37367  1.0000
  C   C1102     1.0  0.62521  0.68475  0.09732  1.0000
  C   C1103     1.0  0.48551  0.50708  0.14271  1.0000
  P   P37       1.0  0.64554  0.65927  0.26682  1.0000
  C   C1104     1.0  0.43342  0.88283  0.20226  1.0000
  H   H876      1.0  0.56791  0.81582  0.17832  1.0000
  H   H877      1.0  0.63867  0.96108  0.05454  1.0000
  H   H878      1.0  0.39970  0.65663  0.41868  1.0000
  H   H879      1.0  0.36899  0.59707  0.36131  1.0000
  H   H880      1.0  0.55101  0.89143  0.15468  1.0000
  H   H881      1.0  0.37045  0.69317  0.27146  1.0000
  H   H882      1.0  0.60237  0.64331  0.22983  1.0000
  S   S159      1.0  0.33481  0.93532  0.15120  1.0000
  C   C1105     1.0  0.64280  0.85849  0.29420  1.0000
  C   C1106     1.0  0.37831  0.84546  0.17125  1.0000
  H   H883      1.0  0.59461  0.96540  0.05075  1.0000
  H   H884      1.0  0.63787  0.55326  0.27771  1.0000
  H   H885      1.0  0.37955  0.91357  0.27439  1.0000
  H   H886      1.0  0.59191  0.56638  0.27663  1.0000
  C   C1107     1.0  0.32966  0.97041  0.05573  1.0000
  C   C1108     1.0  0.54608  0.82857  0.15560  1.0000
  C   C1109     1.0  0.39638  0.94738  0.24959  1.0000
  C   C1110     1.0  0.40663  0.95787  0.22371  1.0000
  C   C1111     1.0  0.56404  0.73854  0.45130  1.0000
  S   S160      1.0  0.53321  0.98151  0.12987  1.0000
  Fe  Fe82      1.0  0.57199  0.99138  0.14478  1.0000
  H   H887      1.0  0.46250  0.65148  0.39856  1.0000
  C   C1112     1.0  0.57859  0.86913  0.05006  1.0000
  C   C1113     1.0  0.35834  0.82063  0.17181  1.0000
  H   H888      1.0  0.61734  0.73455  0.27005  1.0000
  C   C1114     1.0  0.56149  0.52262  0.03061  1.0000
  H   H889      1.0  0.58348  0.94744  0.00225  1.0000
  P   P38       1.0  0.64642  0.89442  0.33267  1.0000
  H   H890      1.0  0.37168  0.73245  0.41971  1.0000
  C   C1115     1.0  0.33323  0.91333  0.20335  1.0000
  C   C1116     1.0  0.61462  0.87512  0.34322  1.0000
  C   C1117     1.0  0.60577  0.85009  0.35146  1.0000
  C   C1118     1.0  0.58175  0.83568  0.36177  1.0000
  C   C1119     1.0  0.56627  0.84601  0.36359  1.0000
  C   C1120     1.0  0.57503  0.87102  0.35568  1.0000
  H   H891      1.0  0.62829  0.60767  0.28853  1.0000
  C   C1121     1.0  0.65316  0.54146  0.35133  1.0000
  C   C1122     1.0  0.59413  0.58332  0.26681  1.0000
  C   C1123     1.0  0.53955  0.90809  0.09028  1.0000
  H   H892      1.0  0.46533  0.51515  0.06292  1.0000
  C   C1124     1.0  0.49976  0.51277  0.00917  1.0000
  H   H893      1.0  0.42708  0.72340  0.48861  1.0000
  C   C1125     1.0  0.49830  0.54667  0.04735  1.0000
  C   C1126     1.0  0.59030  0.84619  0.15032  1.0000
  C   C1127     1.0  0.61291  0.92500  0.12403  1.0000
  C   C1128     1.0  0.57199  0.85667  0.02401  1.0000
  C   C1129     1.0  0.62934  0.56967  0.35669  1.0000
  H   H894      1.0  0.60793  0.54324  0.38892  1.0000
  C   C1130     1.0  0.33801  0.51380  0.26704  1.0000
  H   H895      1.0  0.57521  0.81645  0.36835  1.0000
  H   H896      1.0  0.54758  0.83467  0.37130  1.0000
  H   H897      1.0  0.56311  0.87910  0.35728  1.0000
  H   H898      1.0  0.54569  0.50213  0.06858  1.0000
  H   H899      1.0  0.51818  0.75194  0.43800  1.0000
  C   C1131     1.0  0.60721  0.69642  0.28043  1.0000
  C   C1132     1.0  0.33270  0.72893  0.44900  1.0000
  C   C1133     1.0  0.62252  0.80028  0.37477  1.0000
  H   H900      1.0  0.58804  0.66165  0.11237  1.0000
  C   C1134     1.0  0.44404  0.98224  0.05925  1.0000
  H   H901      1.0  0.48765  0.97728  0.11079  1.0000
  C   C1135     1.0  0.39258  0.78867  0.46850  1.0000
  C   C1136     1.0  0.64874  0.81443  0.41749  1.0000
  C   C1137     1.0  0.64471  0.57935  0.24437  1.0000
  C   C1138     1.0  0.63166  0.95063  0.07382  1.0000
  H   H902      1.0  0.52162  0.85851  0.06936  1.0000
  H   H903      1.0  0.56324  0.98946  0.00369  1.0000
  C   C1139     1.0  0.39812  0.90811  0.14533  1.0000
  C   C1140     1.0  0.54741  0.84521  0.01424  1.0000
  C   C1141     1.0  0.54645  0.84590  0.13623  1.0000
  C   C1142     1.0  0.60805  0.65561  0.04815  1.0000
  H   H904      1.0  0.64058  0.83209  0.26276  1.0000
  C   C1143     1.0  0.65165  0.57048  0.26784  1.0000
  P   P39       1.0  0.40094  0.89763  0.17986  1.0000
  S   S161      1.0  0.33276  0.62448  0.37238  1.0000
  C   C1144     1.0  0.39300  0.82395  0.49222  1.0000
  C   C1145     1.0  0.65185  0.84516  0.27932  1.0000
  H   H905      1.0  0.62918  0.51834  0.38425  1.0000
  C   C1146     1.0  0.40362  0.81468  0.47340  1.0000
  C   C1147     1.0  0.60880  0.92810  0.07380  1.0000
  C   C1148     1.0  0.41170  0.91864  0.09709  1.0000
  H   H906      1.0  0.49809  0.55975  0.06257  1.0000
  H   H907      1.0  0.60127  0.64343  0.02975  1.0000
  C   C1149     1.0  0.52300  0.51119  0.16422  1.0000
  H   H908      1.0  0.46822  0.96624  0.00466  1.0000
  C   C1150     1.0  0.52935  0.84596  0.03067  1.0000
  C   C1151     1.0  0.37085  0.77173  0.48255  1.0000
  C   C1152     1.0  0.37378  0.68237  0.25578  1.0000
  H   H909      1.0  0.49275  0.94416  0.18005  1.0000
  H   H910      1.0  0.54473  0.90940  0.06847  1.0000
  H   H911      1.0  0.64567  0.95541  0.14366  1.0000
  H   H912      1.0  0.35772  0.91876  0.10698  1.0000
  C   C1153     1.0  0.56070  0.87063  0.06627  1.0000
  C   C1154     1.0  0.52457  0.91789  0.09865  1.0000
  H   H913      1.0  0.39561  0.95918  0.26607  1.0000
  H   H914      1.0  0.61747  0.84174  0.35030  1.0000
  C   C1155     1.0  0.44493  0.96885  0.03594  1.0000
  C   C1156     1.0  0.51881  0.91765  0.12697  1.0000
  C   C1157     1.0  0.56803  0.82881  0.16276  1.0000
  C   C1158     1.0  0.64546  0.72582  0.25775  1.0000
  H   H915      1.0  0.59766  0.87768  0.05751  1.0000
  C   C1159     1.0  0.59925  0.88566  0.34593  1.0000
  C   C1160     1.0  0.47181  0.64190  0.35901  1.0000
  H   H916      1.0  0.65687  0.56144  0.18140  1.0000
  H   H917      1.0  0.63946  0.64751  0.20622  1.0000
  C   C1161     1.0  0.43111  0.90117  0.18698  1.0000
  C   C1162     1.0  0.53149  0.70566  0.42232  1.0000
  H   H918      1.0  0.38215  0.88691  0.23738  1.0000
  C   C1163     1.0  0.65229  0.70727  0.25659  1.0000
  C   C1164     1.0  0.64353  0.81547  0.35886  1.0000
  H   H919      1.0  0.45862  0.87204  0.22042  1.0000
  H   H920      1.0  0.45996  0.62177  0.36193  1.0000
  H   H921      1.0  0.52888  0.81515  0.16543  1.0000
  H   H922      1.0  0.52928  0.84545  0.13091  1.0000
  C   C1165     1.0  0.33678  0.53327  0.28104  1.0000
  C   C1166     1.0  0.61401  0.67786  0.27944  1.0000
  H   H923      1.0  0.34021  0.59385  0.32293  1.0000
  C   C1167     1.0  0.57953  0.60320  0.23391  1.0000
  C   C1168     1.0  0.61481  0.60688  0.27348  1.0000
  C   C1169     1.0  0.39142  0.98956  0.01893  1.0000
  H   H924      1.0  0.63979  0.63533  0.06056  1.0000
  C   C1170     1.0  0.52822  0.90784  0.14697  1.0000
  H   H925      1.0  0.52493  0.90884  0.16908  1.0000
  H   H926      1.0  0.38189  0.97689  0.03600  1.0000
  H   H927      1.0  0.37558  0.51668  0.23341  1.0000
  C   C1171     1.0  0.54850  0.89757  0.11021  1.0000
  P   P40       1.0  0.35627  0.73812  0.47622  1.0000
  C   C1172     1.0  0.38863  0.90660  0.23309  1.0000
  C   C1173     1.0  0.60517  0.97652  0.03310  1.0000
  C   C1174     1.0  0.63299  0.67488  0.05033  1.0000
  H   H928      1.0  0.41430  0.61874  0.35313  1.0000
  C   C1175     1.0  0.54306  0.89793  0.13867  1.0000
  H   H929      1.0  0.34577  0.53992  0.30141  1.0000
  C   C1176     1.0  0.59958  0.91476  0.09888  1.0000
  H   H930      1.0  0.64174  0.81601  0.33627  1.0000
  C   C1177     1.0  0.45271  0.92359  0.17962  1.0000
  C   C1178     1.0  0.63007  0.91260  0.28846  1.0000
  C   C1179     1.0  0.35216  0.86032  0.19067  1.0000
  H   H931      1.0  0.64846  0.68261  0.32240  1.0000
  C   C1180     1.0  0.49109  0.98473  0.13203  1.0000
  P   P41       1.0  0.56934  0.88671  0.09985  1.0000
  C   C1181     1.0  0.62298  0.72041  0.26976  1.0000
  H   H932      1.0  0.36394  0.55091  0.21654  1.0000
  C   C1182     1.0  0.37488  0.50223  0.21975  1.0000
  C   C1183     1.0  0.38740  0.92174  0.25429  1.0000
  C   C1184     1.0  0.57664  0.58145  0.24682  1.0000
  H   H933      1.0  0.57286  0.63557  0.06877  1.0000
  H   H934      1.0  0.58943  0.69213  0.28886  1.0000
  H   H935      1.0  0.42504  0.92187  0.08094  1.0000
  H   H936      1.0  0.61276  0.89475  0.28893  1.0000
  C   C1185     1.0  0.46753  0.97651  0.02287  1.0000
  H   H937      1.0  0.62011  0.58059  0.35879  1.0000
  C   C1186     1.0  0.64151  0.68932  0.07523  1.0000
  H   H938      1.0  0.56620  0.60172  0.21805  1.0000
  H   H939      1.0  0.40470  0.72495  0.40322  1.0000
  C   C1187     1.0  0.60042  0.66561  0.09487  1.0000
  H   H940      1.0  0.60827  0.87697  0.12174  1.0000
  H   H941      1.0  0.63189  0.69549  0.11678  1.0000
  C   C1188     1.0  0.63567  0.94756  0.12404  1.0000
  S   S162      1.0  0.58707  0.99071  0.18756  1.0000
  H   H942      1.0  0.59822  0.92156  0.05432  1.0000
  C   C1189     1.0  0.39586  0.72910  0.48324  1.0000
  H   H943      1.0  0.36389  0.90748  0.15475  1.0000
  H   H944      1.0  0.65704  0.60782  0.21243  1.0000
  H   H945      1.0  0.33157  0.89508  0.24277  1.0000
  C   C1190     1.0  0.41825  0.72412  0.44484  1.0000
  C   C1191     1.0  0.65538  0.95291  0.26604  1.0000
  C   C1192     1.0  0.37561  0.86540  0.18169  1.0000
  H   H946      1.0  0.62592  0.56889  0.23588  1.0000
  C   C1193     1.0  0.39712  0.50527  0.20924  1.0000
  H   H947      1.0  0.36058  0.80524  0.16413  1.0000
  H   H948      1.0  0.34778  0.50532  0.27698  1.0000
  C   C1194     1.0  0.63442  0.53460  0.37103  1.0000
  C   C1195     1.0  0.39101  0.92108  0.09084  1.0000
  C   C1196     1.0  0.40237  0.72634  0.42558  1.0000
  C   C1197     1.0  0.63662  0.68316  0.26749  1.0000
  H   H949      1.0  0.60599  0.90522  0.34066  1.0000
  H   H950      1.0  0.53219  0.57482  0.02838  1.0000
  H   H951      1.0  0.40393  0.66112  0.47067  1.0000
  H   H952      1.0  0.65733  0.74426  0.24887  1.0000
  C   C1198     1.0  0.33539  0.81566  0.18209  1.0000
  H   H953      1.0  0.65322  0.59293  0.32406  1.0000
  C   C1199     1.0  0.32846  0.99259  0.05498  1.0000
  H   H954      1.0  0.65054  0.81401  0.44009  1.0000
  H   H955      1.0  0.55850  0.76928  0.46312  1.0000
  H   H956      1.0  0.32669  0.69106  0.44505  1.0000
  H   H957      1.0  0.45810  0.98789  0.13269  1.0000
  C   C1200     1.0  0.33390  0.99366  0.20376  1.0000
  C   C1201     1.0  0.65706  0.63975  0.05079  1.0000
  C   C1202     1.0  0.32594  0.74610  0.43845  1.0000
  H   H958      1.0  0.61548  0.68669  0.99897  1.0000
  C   C1203     1.0  0.65869  0.67263  0.32351  1.0000
  C   C1204     1.0  0.39208  0.57894  0.73253  1.0000
  S   S163      1.0  0.41149  0.98196  0.85910  1.0000
  C   C1205     1.0  0.33207  0.98857  0.78524  1.0000
  C   C1206     1.0  0.36417  0.58402  0.70097  1.0000
  H   H959      1.0  0.60041  0.98642  0.71739  1.0000
  C   C1207     1.0  0.61840  0.90551  0.88194  1.0000
  C   C1208     1.0  0.49284  0.73849  0.79430  1.0000
  C   C1209     1.0  0.37122  0.80723  0.50605  1.0000
  Fe  Fe83      1.0  0.61059  0.96314  0.84190  1.0000
  C   C1210     1.0  0.34614  0.72016  0.55979  1.0000
  S   S164      1.0  0.61922  0.94038  0.81029  1.0000
  Fe  Fe84      1.0  0.57197  0.97772  0.85867  1.0000
  C   C1211     1.0  0.39526  0.78337  0.76292  1.0000
  S   S165      1.0  0.58134  0.94899  0.87465  1.0000
  Fe  Fe85      1.0  0.61469  0.62999  0.83635  1.0000
  S   S166      1.0  0.59725  0.59656  0.80674  1.0000
  S   S167      1.0  0.62611  0.67085  0.82441  1.0000
  Fe  Fe86      1.0  0.61551  0.59741  0.88593  1.0000
  S   S168      1.0  0.59784  0.56217  0.85914  1.0000
  S   S169      1.0  0.62844  0.59380  0.93020  1.0000
  Fe  Fe87      1.0  0.62450  0.58600  0.82537  1.0000
  Fe  Fe88      1.0  0.57256  0.57567  0.84312  1.0000
  S   S170      1.0  0.53024  0.55348  0.83995  1.0000
  S   S171      1.0  0.64352  0.62067  0.85296  1.0000
  S   S172      1.0  0.58869  0.60982  0.87188  1.0000
  S   S173      1.0  0.63986  0.99254  0.87124  1.0000
  C   C1212     1.0  0.61221  0.73470  0.64294  1.0000
  S   S174      1.0  0.35420  0.69391  0.63343  1.0000
  S   S175      1.0  0.36287  0.67159  0.55850  1.0000
  Fe  Fe89      1.0  0.36707  0.67434  0.66369  1.0000
  S   S176      1.0  0.39967  0.69242  0.69497  1.0000
  S   S177      1.0  0.36281  0.64505  0.63244  1.0000
  Fe  Fe90      1.0  0.60402  0.80234  0.70117  1.0000
  S   S178      1.0  0.60468  0.79452  0.74763  1.0000
  S   S179      1.0  0.64022  0.82859  0.67881  1.0000
  Fe  Fe91      1.0  0.54728  0.77101  0.69704  1.0000
  S   S180      1.0  0.54404  0.76126  0.74252  1.0000
  S   S181      1.0  0.51480  0.75625  0.66569  1.0000
  Fe  Fe92      1.0  0.57287  0.80212  0.75024  1.0000
  S   S182      1.0  0.56589  0.82144  0.78738  1.0000
  Fe  Fe93      1.0  0.57597  0.75422  0.73665  1.0000
  S   S183      1.0  0.57004  0.71551  0.75052  1.0000
  S   S184      1.0  0.57396  0.81247  0.70480  1.0000
  S   S185      1.0  0.57759  0.76175  0.69011  1.0000
  C   C1213     1.0  0.43162  0.70978  0.68638  1.0000
  C   C1214     1.0  0.44946  0.72155  0.70807  1.0000
  C   C1215     1.0  0.47502  0.73525  0.70222  1.0000
  C   C1216     1.0  0.48298  0.73783  0.67446  1.0000
  C   C1217     1.0  0.46515  0.72601  0.65279  1.0000
  C   C1218     1.0  0.43961  0.71192  0.65871  1.0000
  H   H960      1.0  0.44347  0.72017  0.72951  1.0000
  H   H961      1.0  0.48854  0.74412  0.71907  1.0000
  H   H962      1.0  0.47113  0.72789  0.63127  1.0000
  H   H963      1.0  0.42611  0.70299  0.64182  1.0000
  C   C1219     1.0  0.64257  0.97951  0.71685  1.0000
  C   C1220     1.0  0.54656  0.97712  0.93463  1.0000
  H   H964      1.0  0.39597  0.60736  0.80382  1.0000
  C   C1221     1.0  0.58577  0.70367  0.77178  1.0000
  C   C1222     1.0  0.60766  0.71949  0.78691  1.0000
  C   C1223     1.0  0.61959  0.70909  0.80293  1.0000
  C   C1224     1.0  0.60969  0.68276  0.80449  1.0000
  C   C1225     1.0  0.58760  0.66694  0.78966  1.0000
  C   C1226     1.0  0.57583  0.67735  0.77339  1.0000
  H   H965      1.0  0.61540  0.73971  0.78628  1.0000
  H   H966      1.0  0.63662  0.72155  0.81429  1.0000
  H   H967      1.0  0.57972  0.64668  0.79052  1.0000
  H   H968      1.0  0.55888  0.66488  0.76191  1.0000
  H   H969      1.0  0.54235  0.83564  0.99400  1.0000
  C   C1227     1.0  0.62308  0.95830  0.72969  1.0000
  C   C1228     1.0  0.63580  0.79963  0.60000  1.0000
  H   H970      1.0  0.55647  0.95842  0.96608  1.0000
  C   C1229     1.0  0.32793  0.59832  0.57646  1.0000
  C   C1230     1.0  0.62722  0.53186  0.94632  1.0000
  C   C1231     1.0  0.61548  0.59261  0.96369  1.0000
  C   C1232     1.0  0.59493  0.59580  0.96709  1.0000
  C   C1233     1.0  0.48519  0.51011  0.84631  1.0000
  H   H971      1.0  0.58619  0.59877  0.94887  1.0000
  C   C1234     1.0  0.60247  0.90729  0.80322  1.0000
  C   C1235     1.0  0.58368  0.89012  0.82064  1.0000
  C   C1236     1.0  0.57241  0.86390  0.81533  1.0000
  C   C1237     1.0  0.57938  0.85459  0.79221  1.0000
  C   C1238     1.0  0.59737  0.87181  0.77411  1.0000
  C   C1239     1.0  0.60898  0.89791  0.77983  1.0000
  H   H972      1.0  0.57828  0.89702  0.83859  1.0000
  H   H973      1.0  0.55838  0.85076  0.82938  1.0000
  H   H974      1.0  0.60290  0.86499  0.75619  1.0000
  H   H975      1.0  0.62326  0.91092  0.76608  1.0000
  S   S186      1.0  0.59927  0.98982  0.82361  1.0000
  C   C1240     1.0  0.38685  0.59431  0.71547  1.0000
  H   H976      1.0  0.63157  0.65449  0.76035  1.0000
  C   C1241     1.0  0.49155  0.64803  0.80158  1.0000
  H   H977      1.0  0.36293  0.81440  0.52058  1.0000
  C   C1242     1.0  0.63134  0.53364  0.91742  1.0000
  C   C1243     1.0  0.51640  0.74712  0.80626  1.0000
  C   C1244     1.0  0.55752  0.99173  0.98280  1.0000
  C   C1245     1.0  0.46407  0.66151  0.70309  1.0000
  H   H978      1.0  0.54371  0.96358  0.91818  1.0000
  C   C1246     1.0  0.58605  0.59577  0.99423  1.0000
  C   C1247     1.0  0.39082  0.63070  0.77387  1.0000
  H   H979      1.0  0.59901  0.89312  0.88673  1.0000
  C   C1248     1.0  0.63011  0.80262  0.62782  1.0000
  H   H980      1.0  0.65012  0.54335  0.90963  1.0000
  H   H981      1.0  0.61271  0.78872  0.63681  1.0000
  Fe  Fe94      1.0  0.38870  0.98859  0.82663  1.0000
  C   C1249     1.0  0.63443  0.66884  0.74511  1.0000
  C   C1250     1.0  0.61121  0.52336  0.89855  1.0000
  H   H982      1.0  0.47990  0.50729  0.92452  1.0000
  C   C1251     1.0  0.60299  0.52008  0.95640  1.0000
  C   C1252     1.0  0.33954  0.93143  0.78690  1.0000
  Fe  Fe95      1.0  0.60923  0.98018  0.90314  1.0000
  C   C1253     1.0  0.45208  0.77728  0.68395  1.0000
  H   H983      1.0  0.62267  0.78333  0.58776  1.0000
  S   S187      1.0  0.60558  0.96555  0.94836  1.0000
  H   H984      1.0  0.40208  0.69206  0.80204  1.0000
  H   H985      1.0  0.35187  0.87394  0.71219  1.0000
  C   C1254     1.0  0.40803  0.76240  0.68595  1.0000
  C   C1255     1.0  0.34607  0.66055  0.52618  1.0000
  C   C1256     1.0  0.49126  0.69970  0.77913  1.0000
  C   C1257     1.0  0.34029  0.83873  0.78289  1.0000
  C   C1258     1.0  0.32978  0.83896  0.73378  1.0000
  H   H986      1.0  0.54072  0.51209  0.84615  1.0000
  H   H987      1.0  0.50599  0.54997  0.90467  1.0000
  H   H988      1.0  0.39143  0.65642  0.74252  1.0000
  H   H989      1.0  0.39354  0.72974  0.50562  1.0000
  Fe  Fe96      1.0  0.34736  0.66262  0.60293  1.0000
  H   H990      1.0  0.65482  0.94902  0.66484  1.0000
  C   C1259     1.0  0.34681  0.55833  0.70328  1.0000
  H   H991      1.0  0.61445  0.52499  0.87613  1.0000
  H   H992      1.0  0.62163  0.93630  0.90729  1.0000
  C   C1260     1.0  0.40557  0.75643  0.65730  1.0000
  C   C1261     1.0  0.65439  0.97596  0.69381  1.0000
  H   H993      1.0  0.62644  0.86217  0.80830  1.0000
  H   H994      1.0  0.48687  0.65808  0.81682  1.0000
  C   C1262     1.0  0.55367  0.97418  0.96167  1.0000
  H   H995      1.0  0.60786  0.64237  0.71521  1.0000
  H   H996      1.0  0.39858  0.83476  0.71261  1.0000
  H   H997      1.0  0.44112  0.62792  0.79728  1.0000
  C   C1263     1.0  0.54041  0.55130  0.91471  1.0000
  H   H998      1.0  0.43718  0.73303  0.81909  1.0000
  C   C1264     1.0  0.45137  0.93293  0.80269  1.0000
  S   S188      1.0  0.53046  0.96281  0.85553  1.0000
  C   C1265     1.0  0.51025  0.70104  0.68704  1.0000
  C   C1266     1.0  0.48795  0.65004  0.77270  1.0000
  H   H999      1.0  0.43643  0.67728  0.73591  1.0000
  C   C1267     1.0  0.48119  0.98761  0.85042  1.0000
  C   C1268     1.0  0.50437  0.62223  0.76292  1.0000
  C   C1269     1.0  0.61444  0.93413  0.71848  1.0000
  H   H1000     1.0  0.42628  0.96902  0.78352  1.0000
  H   H1001     1.0  0.44620  0.64589  0.70879  1.0000
  H   H1002     1.0  0.37516  0.74772  0.53433  1.0000
  S   S189      1.0  0.36850  0.96022  0.79054  1.0000
  H   H1003     1.0  0.48092  0.95335  0.86159  1.0000
  C   C1270     1.0  0.34028  0.58581  0.58552  1.0000
  C   C1271     1.0  0.44953  0.77128  0.65530  1.0000
  C   C1272     1.0  0.48205  0.67595  0.72377  1.0000
  H   H1004     1.0  0.57155  0.50478  0.89360  1.0000
  H   H1005     1.0  0.61912  0.91198  0.68653  1.0000
  H   H1006     1.0  0.42883  0.82005  0.70829  1.0000
  C   C1273     1.0  0.52087  0.50437  0.84717  1.0000
  H   H1007     1.0  0.39362  0.76863  0.77677  1.0000
  C   C1274     1.0  0.34296  0.72228  0.50894  1.0000
  H   H1008     1.0  0.55137  0.68994  0.68166  1.0000
  C   C1275     1.0  0.63992  0.70639  0.70726  1.0000
  H   H1009     1.0  0.34884  0.52489  0.66488  1.0000
  H   H1010     1.0  0.63647  0.70853  0.62629  1.0000
  C   C1276     1.0  0.41498  0.81230  0.72453  1.0000
  C   C1277     1.0  0.40235  0.65045  0.75482  1.0000
  C   C1278     1.0  0.36011  0.78122  0.50115  1.0000
  H   H1011     1.0  0.45083  0.77160  0.79137  1.0000
  C   C1279     1.0  0.56826  0.70190  0.67039  1.0000
  C   C1280     1.0  0.50542  0.69531  0.71545  1.0000
  H   H1012     1.0  0.46230  0.70885  0.77136  1.0000
  C   C1281     1.0  0.63872  0.67079  0.98907  1.0000
  C   C1282     1.0  0.51520  0.70881  0.79069  1.0000
  C   C1283     1.0  0.64580  0.95170  0.68276  1.0000
  H   H1013     1.0  0.36338  0.78326  0.78031  1.0000
  H   H1014     1.0  0.37916  0.54167  0.74821  1.0000
  H   H1015     1.0  0.49173  0.63799  0.73106  1.0000
  C   C1284     1.0  0.39784  0.82060  0.72683  1.0000
  C   C1285     1.0  0.53698  0.51360  0.93568  1.0000
  C   C1286     1.0  0.37803  0.79160  0.76501  1.0000
  H   H1016     1.0  0.46930  0.93442  0.80630  1.0000
  H   H1017     1.0  0.48463  0.75042  0.79488  1.0000
  C   C1287     1.0  0.49992  0.51599  0.92515  1.0000
  C   C1288     1.0  0.39572  0.70792  0.76470  1.0000
  C   C1289     1.0  0.51110  0.50295  0.93629  1.0000
  H   H1018     1.0  0.51638  0.60958  0.79895  1.0000
  C   C1290     1.0  0.63109  0.92988  0.89341  1.0000
  H   H1019     1.0  0.64285  0.54012  0.96093  1.0000
  C   C1291     1.0  0.63509  0.85368  0.82038  1.0000
  H   H1020     1.0  0.40030  0.61420  0.71346  1.0000
  C   C1292     1.0  0.43064  0.63453  0.78534  1.0000
  C   C1293     1.0  0.65814  0.81773  0.58771  1.0000
  C   C1294     1.0  0.49423  0.63681  0.75343  1.0000
  H   H1021     1.0  0.46161  0.97989  0.85415  1.0000
  H   H1022     1.0  0.53300  0.54502  0.99383  1.0000
  H   H1023     1.0  0.61316  0.67519  0.68131  1.0000
  C   C1295     1.0  0.51107  0.52047  0.84500  1.0000
  C   C1296     1.0  0.62392  0.82738  0.82077  1.0000
  H   H1024     1.0  0.61465  0.96034  0.74859  1.0000
  C   C1297     1.0  0.52752  0.73223  0.80452  1.0000
  C   C1298     1.0  0.64506  0.65902  0.96801  1.0000
  C   C1299     1.0  0.42797  0.66226  0.75106  1.0000
  H   H1025     1.0  0.52645  0.76575  0.81593  1.0000
  C   C1300     1.0  0.50822  0.62064  0.79165  1.0000
  H   H1026     1.0  0.46558  0.77427  0.64357  1.0000
  H   H1027     1.0  0.60674  0.81584  0.80909  1.0000
  H   H1028     1.0  0.45462  0.65706  0.65890  1.0000
  H   H1029     1.0  0.59146  0.69950  0.70236  1.0000
  H   H1030     1.0  0.52483  0.69830  0.78835  1.0000
  C   C1301     1.0  0.64543  0.76103  0.72778  1.0000
  H   H1031     1.0  0.50958  0.61239  0.74798  1.0000
  H   H1032     1.0  0.54962  0.70924  0.63637  1.0000
  C   C1302     1.0  0.44239  0.65439  0.76619  1.0000
  C   C1303     1.0  0.61256  0.98044  0.98221  1.0000
  C   C1304     1.0  0.39876  0.82832  0.83020  1.0000
  C   C1305     1.0  0.39594  0.82556  0.85928  1.0000
  C   C1306     1.0  0.38730  0.83922  0.87422  1.0000
  C   C1307     1.0  0.38148  0.85567  0.86014  1.0000
  C   C1308     1.0  0.38411  0.85840  0.83091  1.0000
  C   C1309     1.0  0.39284  0.84466  0.81604  1.0000
  P   P42       1.0  0.37759  0.88016  0.81237  1.0000
  C   C1310     1.0  0.36002  0.88943  0.83446  1.0000
  C   C1311     1.0  0.40626  0.90850  0.80388  1.0000
  C   C1312     1.0  0.40542  0.92982  0.79485  1.0000
  C   C1313     1.0  0.51459  0.54009  0.91414  1.0000
  H   H1033     1.0  0.36555  0.81604  0.74809  1.0000
  C   C1314     1.0  0.62572  0.93081  0.69497  1.0000
  C   C1315     1.0  0.42948  0.91022  0.80788  1.0000
  C   C1316     1.0  0.33397  0.87702  0.83254  1.0000
  C   C1317     1.0  0.62094  0.66208  0.71978  1.0000
  C   C1318     1.0  0.58266  0.51049  0.93753  1.0000
  C   C1319     1.0  0.35914  0.91641  0.87154  1.0000
  C   C1320     1.0  0.37249  0.90919  0.85416  1.0000
  C   C1321     1.0  0.35936  0.86408  0.78127  1.0000
  H   H1034     1.0  0.64712  0.78452  0.76241  1.0000
  C   C1322     1.0  0.49217  0.97262  0.85465  1.0000
  C   C1323     1.0  0.35186  0.54263  0.72023  1.0000
  C   C1324     1.0  0.38409  0.98162  0.99075  1.0000
  C   C1325     1.0  0.36362  0.87661  0.75550  1.0000
  H   H1035     1.0  0.40572  0.81797  0.81865  1.0000
  H   H1036     1.0  0.40060  0.81297  0.87027  1.0000
  H   H1037     1.0  0.38523  0.83719  0.89679  1.0000
  H   H1038     1.0  0.37500  0.86619  0.87218  1.0000
  H   H1039     1.0  0.39540  0.84690  0.79356  1.0000
  H   H1040     1.0  0.38773  0.92888  0.79210  1.0000
  H   H1041     1.0  0.36874  0.96281  0.98643  1.0000
  C   C1326     1.0  0.50174  0.63348  0.81097  1.0000
  H   H1042     1.0  0.54618  0.73930  0.81279  1.0000
  H   H1043     1.0  0.43092  0.89439  0.81551  1.0000
  C   C1327     1.0  0.35916  0.66797  0.50088  1.0000
  H   H1044     1.0  0.47032  0.78514  0.69345  1.0000
  C   C1328     1.0  0.63478  0.81599  0.83623  1.0000
  H   H1045     1.0  0.36887  0.93196  0.88635  1.0000
  H   H1046     1.0  0.39256  0.91921  0.85599  1.0000
  H   H1047     1.0  0.62909  0.74821  0.63259  1.0000
  H   H1048     1.0  0.50116  0.49985  0.99485  1.0000
  C   C1329     1.0  0.56731  0.71285  0.64500  1.0000
  C   C1330     1.0  0.63048  0.89729  0.86382  1.0000
  H   H1049     1.0  0.37796  0.89616  0.75356  1.0000
  C   C1331     1.0  0.65545  0.91348  0.85699  1.0000
  H   H1050     1.0  0.49545  0.69271  0.64481  1.0000
  P   P43       1.0  0.55111  0.49632  0.94961  1.0000
  H   H1051     1.0  0.39164  0.75872  0.69739  1.0000
  H   H1052     1.0  0.52794  0.71673  0.68088  1.0000
  H   H1053     1.0  0.58865  0.73872  0.61234  1.0000
  H   H1054     1.0  0.36033  0.59612  0.58769  1.0000
  C   C1332     1.0  0.51763  0.98246  0.85017  1.0000
  C   C1333     1.0  0.34887  0.86405  0.73187  1.0000
  C   C1334     1.0  0.40496  0.62278  0.78915  1.0000
  C   C1335     1.0  0.46890  0.66749  0.67469  1.0000
  H   H1055     1.0  0.42425  0.75544  0.61997  1.0000
  C   C1336     1.0  0.61324  0.72306  0.66792  1.0000
  H   H1056     1.0  0.47745  0.52241  0.84461  1.0000
  H   H1057     1.0  0.35997  0.59589  0.68778  1.0000
  C   C1337     1.0  0.42727  0.95252  0.78987  1.0000
  H   H1058     1.0  0.51988  0.70621  0.73084  1.0000
  H   H1059     1.0  0.50492  0.63234  0.83322  1.0000
  S   S190      1.0  0.32895  0.64975  0.68173  1.0000
  C   C1338     1.0  0.37465  0.55320  0.73498  1.0000
  C   C1339     1.0  0.33047  0.50841  0.66326  1.0000
  C   C1340     1.0  0.37924  0.81009  0.74688  1.0000
  C   C1341     1.0  0.55165  0.53823  0.92556  1.0000
  H   H1060     1.0  0.56698  0.99268  0.73567  1.0000
  H   H1061     1.0  0.40968  0.58696  0.74381  1.0000
  C   C1342     1.0  0.48027  0.71486  0.78087  1.0000
  H   H1062     1.0  0.62606  0.79558  0.83645  1.0000
  C   C1343     1.0  0.65435  0.71291  0.73211  1.0000
  C   C1344     1.0  0.40802  0.70903  0.78988  1.0000
  H   H1063     1.0  0.38753  0.74824  0.64703  1.0000
  C   C1345     1.0  0.49193  0.68741  0.66669  1.0000
  H   H1064     1.0  0.37088  0.62137  0.77651  1.0000
  C   C1346     1.0  0.40355  0.72967  0.74869  1.0000
  C   C1347     1.0  0.42401  0.75268  0.75748  1.0000
  H   H1065     1.0  0.59917  0.91791  0.72834  1.0000
  P   P44       1.0  0.43400  0.78078  0.73671  1.0000
  C   C1348     1.0  0.46602  0.80310  0.74591  1.0000
  C   C1349     1.0  0.43129  0.77274  0.69965  1.0000
  P   P45       1.0  0.32947  0.50917  0.72214  1.0000
  P   P46       1.0  0.47555  0.66959  0.76068  1.0000
  C   C1350     1.0  0.54942  0.49783  0.98735  1.0000
  H   H1066     1.0  0.37914  0.67945  0.50165  1.0000
  H   H1067     1.0  0.55167  0.56996  0.90613  1.0000
  C   C1351     1.0  0.47365  0.82825  0.75315  1.0000
  C   C1352     1.0  0.49848  0.84506  0.76059  1.0000
  C   C1353     1.0  0.51580  0.83690  0.76080  1.0000
  C   C1354     1.0  0.50831  0.81189  0.75377  1.0000
  C   C1355     1.0  0.48353  0.79501  0.74661  1.0000
  C   C1356     1.0  0.41376  0.79353  0.74247  1.0000
  C   C1357     1.0  0.45026  0.95408  0.79372  1.0000
  C   C1358     1.0  0.42785  0.73207  0.79936  1.0000
  C   C1359     1.0  0.42627  0.76067  0.64201  1.0000
  H   H1068     1.0  0.33643  0.82872  0.80259  1.0000
  H   H1069     1.0  0.57174  0.54743  0.92575  1.0000
  C   C1360     1.0  0.62387  0.68074  0.70076  1.0000
  C   C1361     1.0  0.43566  0.75389  0.78342  1.0000
  H   H1070     1.0  0.57414  0.53837  0.98982  1.0000
  H   H1071     1.0  0.39380  0.72822  0.72919  1.0000
  C   C1362     1.0  0.33326  0.90386  0.86956  1.0000
  H   H1072     1.0  0.33342  0.97560  0.77080  1.0000
  C   C1363     1.0  0.59114  0.70724  0.68201  1.0000
  H   H1073     1.0  0.62005  0.87847  0.85495  1.0000
  C   C1364     1.0  0.58930  0.72943  0.63142  1.0000
  H   H1074     1.0  0.38030  0.69015  0.75716  1.0000
  H   H1075     1.0  0.46060  0.83498  0.75326  1.0000
  H   H1076     1.0  0.50438  0.86446  0.76622  1.0000
  H   H1077     1.0  0.53506  0.84992  0.76645  1.0000
  H   H1078     1.0  0.52177  0.80560  0.75382  1.0000
  H   H1079     1.0  0.47805  0.77566  0.74133  1.0000
  S   S191      1.0  0.38629  0.98651  0.93296  1.0000
  C   C1365     1.0  0.64675  0.82379  0.64377  1.0000
  H   H1080     1.0  0.33629  0.55084  0.60029  1.0000
  H   H1081     1.0  0.33844  0.61819  0.57133  1.0000
  H   H1082     1.0  0.35689  0.72703  0.57914  1.0000
  S   S192      1.0  0.64277  0.56758  0.80000  1.0000
  C   C1366     1.0  0.61580  0.66116  0.93566  1.0000
  C   C1367     1.0  0.60914  0.67258  0.95657  1.0000
  H   H1083     1.0  0.65847  0.65306  0.97195  1.0000
  H   H1084     1.0  0.60042  0.51888  0.97885  1.0000
  H   H1085     1.0  0.59511  0.67766  0.95214  1.0000
  H   H1086     1.0  0.57041  0.59867  0.99656  1.0000
  H   H1087     1.0  0.46724  0.97185  0.79039  1.0000
  H   H1088     1.0  0.34040  0.50060  0.77997  1.0000
  H   H1089     1.0  0.34310  0.76852  0.51185  1.0000
  H   H1090     1.0  0.64237  0.58617  0.98538  1.0000
  C   C1368     1.0  0.33602  0.91503  0.76426  1.0000
  H   H1091     1.0  0.63872  0.64535  0.92521  1.0000
  H   H1092     1.0  0.63248  0.74372  0.73812  1.0000
  C   C1369     1.0  0.62657  0.58881  0.98772  1.0000
  C   C1370     1.0  0.65355  0.78414  0.74148  1.0000
  P   P47       1.0  0.64289  0.73045  0.68303  1.0000
  C   C1371     1.0  0.35653  0.73160  0.53426  1.0000
  H   H1093     1.0  0.35111  0.91984  0.75002  1.0000
  H   H1094     1.0  0.60698  0.65735  0.91502  1.0000
  C   C1372     1.0  0.58695  0.51193  0.90853  1.0000
  C   C1373     1.0  0.63378  0.65448  0.94137  1.0000
  C   C1374     1.0  0.62062  0.67751  0.98313  1.0000
  C   C1375     1.0  0.32671  0.56027  0.59247  1.0000
  H   H1095     1.0  0.32947  0.55073  0.69162  1.0000
  C   C1376     1.0  0.65354  0.76032  0.70063  1.0000
  H   H1096     1.0  0.33056  0.50818  0.61798  1.0000
  C   C1377     1.0  0.65131  0.69420  0.75112  1.0000
  C   C1378     1.0  0.65615  0.72044  0.63070  1.0000
  C   C1379     1.0  0.32550  0.82630  0.75926  1.0000
  H   H1097     1.0  0.64408  0.99296  0.78988  1.0000
  C   C1380     1.0  0.65588  0.94614  0.88666  1.0000
  C   C1381     1.0  0.65681  0.83095  0.85144  1.0000
  C   C1382     1.0  0.65723  0.86890  0.83550  1.0000
  Fe  Fe97      1.0  0.85504  0.13050  0.47238  1.0000
  S   S193      1.0  0.85677  0.15162  0.43164  1.0000
  S   S194      1.0  0.88040  0.11407  0.47466  1.0000
  H   H1098     1.0  0.87595  0.17500  0.22287  1.0000
  S   S195      1.0  0.97174  0.39265  0.13398  1.0000
  C   C1383     1.0  0.74507  0.39706  0.28847  1.0000
  Fe  Fe98      1.0  0.96316  0.35832  0.15987  1.0000
  S   S196      1.0  0.92246  0.32668  0.16320  1.0000
  Fe  Fe99      1.0  0.76428  0.22553  0.28897  1.0000
  S   S197      1.0  0.78272  0.22402  0.24912  1.0000
  S   S198      1.0  0.73999  0.24355  0.28259  1.0000
  Fe  Fe100     1.0  0.78556  0.19683  0.32212  1.0000
  S   S199      1.0  0.80510  0.19361  0.28422  1.0000
  S   S200      1.0  0.78307  0.17924  0.36563  1.0000
  Fe  Fe101     1.0  0.81648  0.23447  0.27600  1.0000
  S   S201      1.0  0.85646  0.26709  0.26924  1.0000
  Fe  Fe102     1.0  0.76944  0.18336  0.26021  1.0000
  S   S202      1.0  0.75240  0.15243  0.22585  1.0000
  S   S203      1.0  0.79878  0.23825  0.31555  1.0000
  S   S204      1.0  0.74938  0.18437  0.29838  1.0000
  Fe  Fe103     1.0  0.67965  0.31481  0.36510  1.0000
  S   S205      1.0  0.69042  0.35333  0.38302  1.0000
  S   S206      1.0  0.70706  0.30036  0.36984  1.0000
  H   H1099     1.0  0.77014  0.45754  0.41940  1.0000
  S   S207      1.0  0.68501  0.39074  0.31427  1.0000
  H   H1100     1.0  0.93245  0.15617  0.20723  1.0000
  C   C1384     1.0  0.98130  0.22649  0.44580  1.0000
  P   P48       1.0  0.97808  0.46995  0.05300  1.0000
  H   H1101     1.0  0.83808  0.05896  0.42257  1.0000
  C   C1385     1.0  0.70608  0.42356  0.31973  1.0000
  C   C1386     1.0  0.71175  0.44008  0.29691  1.0000
  C   C1387     1.0  0.72848  0.46623  0.30008  1.0000
  C   C1388     1.0  0.95935  0.44201  0.00323  1.0000
  C   C1389     1.0  0.73406  0.45974  0.34904  1.0000
  C   C1390     1.0  0.71733  0.43357  0.34587  1.0000
  H   H1102     1.0  0.70319  0.43255  0.27659  1.0000
  C   C1391     1.0  0.98207  0.36204  0.03094  1.0000
  H   H1103     1.0  0.74272  0.46724  0.36931  1.0000
  H   H1104     1.0  0.71311  0.42114  0.36361  1.0000
  C   C1392     1.0  0.73121  0.25935  0.30729  1.0000
  C   C1393     1.0  0.71670  0.26972  0.29797  1.0000
  C   C1394     1.0  0.70862  0.28176  0.31689  1.0000
  C   C1395     1.0  0.71548  0.28412  0.34531  1.0000
  C   C1396     1.0  0.73025  0.27401  0.35456  1.0000
  C   C1397     1.0  0.73794  0.26155  0.33573  1.0000
  H   H1105     1.0  0.71168  0.26844  0.27595  1.0000
  H   H1106     1.0  0.69741  0.28956  0.30947  1.0000
  H   H1107     1.0  0.73573  0.27581  0.37649  1.0000
  H   H1108     1.0  0.74914  0.25374  0.34319  1.0000
  C   C1398     1.0  0.82169  0.06090  0.42246  1.0000
  C   C1399     1.0  0.94296  0.20945  0.41814  1.0000
  C   C1400     1.0  0.81185  0.47272  0.24374  1.0000
  C   C1401     1.0  0.68015  0.14643  0.30335  1.0000
  H   H1109     1.0  0.92671  0.39376  0.10967  1.0000
  C   C1402     1.0  0.87433  0.28333  0.23929  1.0000
  C   C1403     1.0  0.89869  0.30368  0.24350  1.0000
  C   C1404     1.0  0.91366  0.31715  0.22060  1.0000
  C   C1405     1.0  0.90449  0.31044  0.19305  1.0000
  C   C1406     1.0  0.88006  0.29023  0.18884  1.0000
  C   C1407     1.0  0.86508  0.27678  0.21174  1.0000
  H   H1110     1.0  0.90609  0.30905  0.26466  1.0000
  H   H1111     1.0  0.93236  0.33262  0.22426  1.0000
  H   H1112     1.0  0.87268  0.28486  0.16767  1.0000
  H   H1113     1.0  0.84636  0.26140  0.20804  1.0000
  C   C1408     1.0  0.67293  0.08362  0.21147  1.0000
  C   C1409     1.0  0.67865  0.09900  0.23569  1.0000
  C   C1410     1.0  0.70274  0.11993  0.24054  1.0000
  C   C1411     1.0  0.72154  0.12606  0.22103  1.0000
  C   C1412     1.0  0.71580  0.11071  0.19680  1.0000
  C   C1413     1.0  0.69176  0.08965  0.19206  1.0000
  H   H1114     1.0  0.97381  0.35011  0.04894  1.0000
  H   H1115     1.0  0.70688  0.13113  0.25951  1.0000
  H   H1116     1.0  0.73010  0.11510  0.18155  1.0000
  H   H1117     1.0  0.68781  0.07814  0.17332  1.0000
  C   C1414     1.0  0.83556  0.15838  0.41339  1.0000
  C   C1415     1.0  0.81183  0.15091  0.42331  1.0000
  C   C1416     1.0  0.79589  0.15703  0.40816  1.0000
  C   C1417     1.0  0.80338  0.17065  0.38291  1.0000
  C   C1418     1.0  0.82699  0.17782  0.37283  1.0000
  C   C1419     1.0  0.84296  0.17180  0.38803  1.0000
  H   H1118     1.0  0.80583  0.14052  0.44269  1.0000
  H   H1119     1.0  0.77768  0.15136  0.41615  1.0000
  H   H1120     1.0  0.83292  0.18812  0.35338  1.0000
  H   H1121     1.0  0.86120  0.17756  0.38004  1.0000
  C   C1420     1.0  0.70072  0.01635  0.39257  1.0000
  H   H1122     1.0  0.79928  0.02516  0.44204  1.0000
  C   C1421     1.0  0.70349  0.16578  0.34627  1.0000
  H   H1123     1.0  0.93740  0.16879  0.46980  1.0000
  C   C1422     1.0  0.87223  0.33290  0.11934  1.0000
  C   C1423     1.0  0.85788  0.33669  0.09925  1.0000
  C   C1424     1.0  0.84443  0.34837  0.10700  1.0000
  C   C1425     1.0  0.84571  0.35669  0.13474  1.0000
  C   C1426     1.0  0.86066  0.35354  0.15477  1.0000
  C   C1427     1.0  0.87326  0.34093  0.14706  1.0000
  P   P49       1.0  0.86160  0.36298  0.19086  1.0000
  C   C1428     1.0  0.89185  0.37280  0.20627  1.0000
  C   C1429     1.0  0.85868  0.39086  0.19226  1.0000
  C   C1430     1.0  0.84362  0.39335  0.21224  1.0000
  C   C1431     1.0  0.84135  0.41495  0.21274  1.0000
  C   C1432     1.0  0.85469  0.43453  0.19392  1.0000
  C   C1433     1.0  0.87055  0.43269  0.17482  1.0000
  C   C1434     1.0  0.87252  0.41092  0.17393  1.0000
  C   C1435     1.0  0.89449  0.36897  0.23490  1.0000
  C   C1436     1.0  0.91801  0.37678  0.24660  1.0000
  C   C1437     1.0  0.93912  0.38920  0.23006  1.0000
  C   C1438     1.0  0.93675  0.39395  0.20185  1.0000
  C   C1439     1.0  0.91325  0.38575  0.18995  1.0000
  C   C1440     1.0  0.83638  0.33580  0.20747  1.0000
  C   C1441     1.0  0.84056  0.31786  0.22094  1.0000
  C   C1442     1.0  0.82098  0.29684  0.23366  1.0000
  C   C1443     1.0  0.79697  0.29316  0.23241  1.0000
  C   C1444     1.0  0.79241  0.31026  0.21788  1.0000
  C   C1445     1.0  0.81195  0.33131  0.20511  1.0000
  H   H1124     1.0  0.88242  0.32349  0.11365  1.0000
  H   H1125     1.0  0.85696  0.33025  0.07780  1.0000
  H   H1126     1.0  0.83291  0.35081  0.09153  1.0000
  H   H1127     1.0  0.83493  0.36537  0.14053  1.0000
  H   H1128     1.0  0.88383  0.33719  0.16254  1.0000
  H   H1129     1.0  0.83367  0.37871  0.22747  1.0000
  H   H1130     1.0  0.82930  0.41655  0.22777  1.0000
  H   H1131     1.0  0.85301  0.45128  0.19437  1.0000
  H   H1132     1.0  0.88144  0.44821  0.16077  1.0000
  H   H1133     1.0  0.88497  0.40983  0.15905  1.0000
  H   H1134     1.0  0.87844  0.35972  0.24820  1.0000
  H   H1135     1.0  0.91987  0.37295  0.26843  1.0000
  H   H1136     1.0  0.95737  0.39515  0.23900  1.0000
  H   H1137     1.0  0.95320  0.40388  0.18917  1.0000
  H   H1138     1.0  0.91191  0.38945  0.16796  1.0000
  H   H1139     1.0  0.85884  0.31984  0.22147  1.0000
  H   H1140     1.0  0.82437  0.28323  0.24438  1.0000
  H   H1141     1.0  0.78184  0.27685  0.24240  1.0000
  H   H1142     1.0  0.77364  0.30699  0.21645  1.0000
  H   H1143     1.0  0.80793  0.34395  0.19330  1.0000
  C   C1446     1.0  0.97030  0.20463  0.46221  1.0000
  C   C1447     1.0  0.91527  0.48698  0.23322  1.0000
  H   H1144     1.0  0.88929  0.43139  0.07707  1.0000
  C   C1448     1.0  0.79909  0.46251  0.35762  1.0000
  H   H1145     1.0  0.74586  0.41290  0.40330  1.0000
  C   C1449     1.0  0.97385  0.35232  0.00346  1.0000
  C   C1450     1.0  0.82580  0.21704  0.44641  1.0000
  S   S208      1.0  0.83806  0.04049  0.48464  1.0000
  H   H1146     1.0  0.74958  0.13823  0.46532  1.0000
  C   C1451     1.0  0.90598  0.43018  0.07941  1.0000
  H   H1147     1.0  0.73778  0.18960  0.21394  1.0000
  H   H1148     1.0  0.75475  0.39998  0.35829  1.0000
  H   H1149     1.0  0.95302  0.30497  0.17676  1.0000
  H   H1150     1.0  0.82492  0.27863  0.46255  1.0000
  H   H1151     1.0  0.66473  0.20131  0.21912  1.0000
  S   S209      1.0  0.66282  0.32012  0.32555  1.0000
  C   C1452     1.0  0.69261  0.14533  0.32749  1.0000
  C   C1453     1.0  0.93132  0.27257  0.20267  1.0000
  C   C1454     1.0  0.80221  0.08591  0.41377  1.0000
  C   C1455     1.0  0.79370  0.46975  0.38325  1.0000
  C   C1456     1.0  0.86221  0.42228  0.31552  1.0000
  P   P50       1.0  0.79123  0.42839  0.31410  1.0000
  C   C1457     1.0  0.77469  0.45185  0.39984  1.0000
  H   H1152     1.0  0.93226  0.21123  0.40108  1.0000
  H   H1153     1.0  0.88795  0.14348  0.21061  1.0000
  C   C1458     1.0  0.96740  0.22873  0.42361  1.0000
  H   H1154     1.0  0.70903  0.17122  0.25314  1.0000
  C   C1459     1.0  0.82782  0.24772  0.48007  1.0000
  H   H1155     1.0  0.92311  0.42787  0.22944  1.0000
  C   C1460     1.0  0.74089  0.04659  0.49466  1.0000
  H   H1156     1.0  0.74521  0.41411  0.28207  1.0000
  H   H1157     1.0  0.78202  0.18257  0.47240  1.0000
  C   C1461     1.0  0.76602  0.14273  0.47775  1.0000
  C   C1462     1.0  0.95213  0.29591  0.19659  1.0000
  C   C1463     1.0  0.79551  0.45183  0.28825  1.0000
  H   H1158     1.0  0.73984  0.02992  0.39438  1.0000
  C   C1464     1.0  0.90564  0.41080  0.09518  1.0000
  C   C1465     1.0  0.72279  0.01544  0.43465  1.0000
  C   C1466     1.0  0.72412  0.37366  0.28217  1.0000
  H   H1159     1.0  0.81350  0.47674  0.34476  1.0000
  C   C1467     1.0  0.92707  0.40907  0.09785  1.0000
  H   H1160     1.0  0.81670  0.20571  0.22110  1.0000
  C   C1468     1.0  0.92079  0.44422  0.23036  1.0000
  H   H1161     1.0  0.71396  0.16530  0.36441  1.0000
  Fe  Fe104     1.0  0.67119  0.35751  0.34471  1.0000
  C   C1469     1.0  0.66819  0.32321  0.47807  1.0000
  C   C1470     1.0  0.98064  0.45690  0.01988  1.0000
  C   C1471     1.0  0.76101  0.42672  0.39078  1.0000
  H   H1162     1.0  0.83610  0.45126  0.35053  1.0000
  P   P51       1.0  0.75101  0.02128  0.45233  1.0000
  C   C1472     1.0  0.84337  0.40859  0.29566  1.0000
  C   C1473     1.0  0.93512  0.48777  0.21857  1.0000
  H   H1163     1.0  0.82528  0.19957  0.44141  1.0000
  H   H1164     1.0  0.88700  0.42540  0.25361  1.0000
  H   H1165     1.0  0.85475  0.22009  0.24955  1.0000
  H   H1166     1.0  0.68056  0.22337  0.27253  1.0000
  H   H1167     1.0  0.70844  0.37287  0.27101  1.0000
  C   C1474     1.0  0.93217  0.18785  0.43476  1.0000
  H   H1168     1.0  0.67348  0.31864  0.45831  1.0000
  H   H1169     1.0  0.96503  0.20076  0.21609  1.0000
  H   H1170     1.0  0.67267  0.13072  0.28863  1.0000
  C   C1475     1.0  0.79954  0.04166  0.43348  1.0000
  C   C1476     1.0  0.68093  0.19916  0.21866  1.0000
  C   C1477     1.0  0.94900  0.42690  0.08505  1.0000
  C   C1478     1.0  0.89479  0.20988  0.47741  1.0000
  H   H1171     1.0  0.95924  0.33289  0.00064  1.0000
  C   C1479     1.0  0.76503  0.39827  0.30384  1.0000
  C   C1480     1.0  0.67810  0.99811  0.43521  1.0000
  C   C1481     1.0  0.80224  0.48865  0.24862  1.0000
  C   C1482     1.0  0.92784  0.44797  0.06643  1.0000
  H   H1172     1.0  0.76458  0.06999  0.42709  1.0000
  C   C1483     1.0  0.90055  0.44296  0.24418  1.0000
  C   C1484     1.0  0.78529  0.43731  0.34819  1.0000
  H   H1173     1.0  0.84038  0.09821  0.40473  1.0000
  C   C1485     1.0  0.82317  0.23073  0.42452  1.0000
  H   H1174     1.0  0.69463  0.12898  0.33114  1.0000
  C   C1486     1.0  0.92725  0.17008  0.21263  1.0000
  H   H1175     1.0  0.77460  0.46540  0.31091  1.0000
  H   H1176     1.0  0.82169  0.47459  0.22457  1.0000
  H   H1177     1.0  0.77775  0.37631  0.32707  1.0000
  H   H1178     1.0  0.92757  0.46259  0.05395  1.0000
  C   C1487     1.0  0.76619  0.41945  0.36505  1.0000
  C   C1488     1.0  0.93794  0.46655  0.21737  1.0000
  H   H1179     1.0  0.66128  0.00089  0.39651  1.0000
  H   H1180     1.0  0.87396  0.44806  0.35077  1.0000
  H   H1181     1.0  0.91634  0.26422  0.18735  1.0000
  C   C1489     1.0  0.77854  0.04443  0.43476  1.0000
  C   C1490     1.0  0.96997  0.47968  0.14529  1.0000
  C   C1491     1.0  0.78015  0.06689  0.42519  1.0000
  H   H1182     1.0  0.94950  0.26381  0.26752  1.0000
  C   C1492     1.0  0.72212  0.19262  0.21547  1.0000
  H   H1183     1.0  0.95437  0.47253  0.13075  1.0000
  C   C1493     1.0  0.70569  0.18215  0.23771  1.0000
  C   C1494     1.0  0.82303  0.08301  0.41260  1.0000
  C   C1495     1.0  0.90220  0.16294  0.21453  1.0000
  P   P52       1.0  0.66230  0.16939  0.26643  1.0000
  H   H1184     1.0  0.82087  0.22381  0.40303  1.0000
  H   H1185     1.0  0.82071  0.26341  0.41329  1.0000
  H   H1186     1.0  0.69458  0.22078  0.18078  1.0000
  H   H1187     1.0  0.86157  0.20440  0.45753  1.0000
  C   C1496     1.0  0.82813  0.22532  0.47443  1.0000
  C   C1497     1.0  0.72283  0.02146  0.40619  1.0000
  H   H1188     1.0  0.90247  0.20813  0.45782  1.0000
  C   C1498     1.0  0.82298  0.25298  0.43032  1.0000
  H   H1189     1.0  0.91315  0.17297  0.43070  1.0000
  C   C1499     1.0  0.94584  0.18548  0.45679  1.0000
  C   C1500     1.0  0.97168  0.30776  0.21607  1.0000
  H   H1190     1.0  0.75435  0.10390  0.48663  1.0000
  C   C1501     1.0  0.89756  0.46414  0.24530  1.0000
  H   H1191     1.0  0.96931  0.44405  0.14760  1.0000
  C   C1502     1.0  0.78539  0.46747  0.29252  1.0000
  H   H1192     1.0  0.80346  0.10324  0.40647  1.0000
  C   C1503     1.0  0.69767  0.21001  0.19670  1.0000
  C   C1504     1.0  0.71827  0.20674  0.19512  1.0000
  H   H1193     1.0  0.81625  0.44240  0.25933  1.0000
  H   H1194     1.0  0.98576  0.30543  0.25672  1.0000
  C   C1505     1.0  0.68509  0.18552  0.23964  1.0000
  C   C1506     1.0  0.82188  0.41045  0.29529  1.0000
  C   C1507     1.0  0.81810  0.00905  0.49704  1.0000
  C   C1508     1.0  0.68932  0.18844  0.31686  1.0000
  C   C1509     1.0  0.82533  0.26148  0.45807  1.0000
  C   C1510     1.0  0.70190  0.18735  0.34088  1.0000
  H   H1195     1.0  0.80742  0.39964  0.27981  1.0000
  C   C1511     1.0  0.85949  0.43771  0.33513  1.0000
  H   H1196     1.0  0.73118  0.21492  0.17805  1.0000
  C   C1512     1.0  0.78468  0.16792  0.48156  1.0000
  C   C1513     1.0  0.94986  0.27271  0.24776  1.0000
  C   C1514     1.0  0.81897  0.42589  0.31497  1.0000
  H   H1197     1.0  0.71101  0.20358  0.35489  1.0000
  C   C1515     1.0  0.73982  0.47622  0.32619  1.0000
  H   H1198     1.0  0.70623  0.33335  0.28727  1.0000
  H   H1199     1.0  0.88874  0.39696  0.10510  1.0000
  C   C1516     1.0  0.83793  0.43945  0.33495  1.0000
  C   C1517     1.0  0.93006  0.26065  0.22827  1.0000
  P   P53       1.0  0.90476  0.22913  0.23537  1.0000
  C   C1518     1.0  0.87724  0.22121  0.21451  1.0000
  C   C1519     1.0  0.91380  0.20617  0.22656  1.0000
  C   C1520     1.0  0.89547  0.18088  0.22144  1.0000
  H   H1200     1.0  0.68903  0.20565  0.31295  1.0000
  H   H1201     1.0  0.74072  0.33530  0.31585  1.0000
  C   C1521     1.0  0.94560  0.19519  0.21765  1.0000
  C   C1522     1.0  0.93894  0.21319  0.22460  1.0000
  C   C1523     1.0  0.87697  0.21685  0.18547  1.0000
  C   C1524     1.0  0.85530  0.20904  0.16940  1.0000
  C   C1525     1.0  0.83360  0.20504  0.18226  1.0000
  C   C1526     1.0  0.83361  0.20900  0.21115  1.0000
  C   C1527     1.0  0.85532  0.21715  0.22723  1.0000
  C   C1528     1.0  0.89732  0.22710  0.27219  1.0000
  C   C1529     1.0  0.89788  0.24774  0.28574  1.0000
  C   C1530     1.0  0.89079  0.24603  0.31374  1.0000
  C   C1531     1.0  0.88328  0.22374  0.32855  1.0000
  C   C1532     1.0  0.88273  0.20308  0.31529  1.0000
  C   C1533     1.0  0.88967  0.20469  0.28718  1.0000
  C   C1534     1.0  0.80864  0.45446  0.26352  1.0000
  C   C1535     1.0  0.97050  0.29620  0.24171  1.0000
  H   H1202     1.0  0.96525  0.42495  0.08727  1.0000
  H   H1203     1.0  0.98776  0.32590  0.21126  1.0000
  C   C1536     1.0  0.94969  0.44674  0.06951  1.0000
  H   H1204     1.0  0.95349  0.23251  0.22825  1.0000
  H   H1205     1.0  0.89347  0.21929  0.17530  1.0000
  H   H1206     1.0  0.85526  0.20586  0.14701  1.0000
  H   H1207     1.0  0.81669  0.19870  0.16996  1.0000
  H   H1208     1.0  0.88123  0.46242  0.25510  1.0000
  H   H1209     1.0  0.80376  0.48938  0.38988  1.0000
  H   H1210     1.0  0.90305  0.26495  0.27439  1.0000
  H   H1211     1.0  0.89044  0.26182  0.32361  1.0000
  H   H1212     1.0  0.87746  0.22235  0.35014  1.0000
  H   H1213     1.0  0.87645  0.18564  0.32665  1.0000
  H   H1214     1.0  0.88864  0.18830  0.27722  1.0000
  H   H1215     1.0  0.84523  0.39621  0.28084  1.0000
  C   C1537     1.0  0.72275  0.35140  0.29158  1.0000
  C   C1538     1.0  0.74224  0.35250  0.30755  1.0000
  C   C1539     1.0  0.76326  0.37582  0.31378  1.0000
  C   C1540     1.0  0.97837  0.46346  0.15484  1.0000
  H   H1216     1.0  0.69552  0.48719  0.28263  1.0000
  H   H1217     1.0  0.87876  0.42066  0.31599  1.0000
  C   C1541     1.0  0.87135  0.20773  0.47736  1.0000
  H   H1218     1.0  0.73284  0.47858  0.28224  1.0000
  H   H1219     1.0  0.95347  0.46744  0.20628  1.0000
  C   C1542     1.0  0.67812  0.16790  0.29796  1.0000
  H   H1220     1.0  0.98063  0.20253  0.47939  1.0000
  H   H1221     1.0  0.66437  0.09454  0.25096  1.0000
  H   H1222     1.0  0.66027  0.24783  0.28478  1.0000
  H   H1223     1.0  0.69967  0.99754  0.47054  1.0000
  C   C1543     1.0  0.67839  0.00482  0.40711  1.0000
  S   S210      1.0  0.82343  0.09658  0.49270  1.0000
  H   H1224     1.0  0.70091  0.02131  0.37068  1.0000
  C   C1544     1.0  0.70019  0.00320  0.44888  1.0000
  H   H1225     1.0  0.72780  0.04740  0.48017  1.0000
  S   S211      1.0  0.98887  0.38123  0.19524  1.0000
  H   H1226     1.0  0.94116  0.43739  0.01048  1.0000
  C   C1545     1.0  0.75434  0.03479  0.48695  1.0000
  H   H1227     1.0  0.97520  0.24530  0.41058  1.0000
  C   C1546     1.0  0.76869  0.12341  0.48972  1.0000
  C   C1547     1.0  0.66073  0.21351  0.27599  1.0000
  C   C1548     1.0  0.78902  0.48599  0.27302  1.0000
  H   H1228     1.0  0.95276  0.13835  0.49322  1.0000
  Fe  Fe105     1.0  0.84948  0.08128  0.49812  1.0000
  C   C1549     1.0  0.80646  0.17393  0.49689  1.0000
  S   S212      1.0  0.99201  0.35213  0.13857  1.0000
  H   H1229     1.0  0.68829  0.30997  0.50334  1.0000
  P   P54       1.0  0.70470  0.22937  0.60576  1.0000
  Fe  Fe106     1.0  0.89360  0.13369  0.51664  1.0000
  H   H1230     1.0  0.75359  0.26619  0.63112  1.0000
  C   C1550     1.0  0.75169  0.43339  0.59204  1.0000
  H   H1231     1.0  0.86923  0.16122  0.74631  1.0000
  Fe  Fe107     1.0  0.83983  0.11696  0.53411  1.0000
  S   S213      1.0  0.81366  0.11496  0.56896  1.0000
  S   S214      1.0  0.86440  0.09995  0.54043  1.0000
  C   C1551     1.0  0.66554  0.23177  0.63055  1.0000
  S   S215      1.0  0.95587  0.37584  0.87698  1.0000
  C   C1552     1.0  0.84351  0.24044  0.54754  1.0000
  Fe  Fe108     1.0  0.96769  0.36269  0.83922  1.0000
  S   S216      1.0  0.94283  0.33787  0.80251  1.0000
  Fe  Fe109     1.0  0.79579  0.19359  0.69503  1.0000
  S   S217      1.0  0.80387  0.18158  0.73672  1.0000
  S   S218      1.0  0.81676  0.19782  0.65415  1.0000
  Fe  Fe110     1.0  0.75958  0.20760  0.72138  1.0000
  S   S219      1.0  0.76516  0.19635  0.76481  1.0000
  S   S220      1.0  0.72954  0.21802  0.71310  1.0000
  Fe  Fe111     1.0  0.80614  0.21674  0.75473  1.0000
  S   S221      1.0  0.83412  0.23998  0.79005  1.0000
  Fe  Fe112     1.0  0.76245  0.16207  0.74398  1.0000
  S   S222      1.0  0.74300  0.12110  0.76001  1.0000
  S   S223      1.0  0.80043  0.23012  0.71274  1.0000
  S   S224      1.0  0.75444  0.17191  0.70085  1.0000
  H   H1232     1.0  0.94487  0.42092  0.96442  1.0000
  H   H1233     1.0  0.87118  0.23207  0.74878  1.0000
  C   C1553     1.0  0.73065  0.31081  0.57729  1.0000
  C   C1554     1.0  0.71448  0.02068  0.77757  1.0000
  Fe  Fe113     1.0  0.69836  0.32246  0.66475  1.0000
  S   S225      1.0  0.73203  0.32089  0.68229  1.0000
  S   S226      1.0  0.70794  0.35343  0.63333  1.0000
  C   C1555     1.0  0.70661  0.42457  0.67852  1.0000
  C   C1556     1.0  0.72179  0.42195  0.69852  1.0000
  C   C1557     1.0  0.73998  0.44327  0.71351  1.0000
  C   C1558     1.0  0.74392  0.46756  0.70793  1.0000
  C   C1559     1.0  0.72874  0.47020  0.68798  1.0000
  C   C1560     1.0  0.71001  0.44875  0.67358  1.0000
  H   H1234     1.0  0.71922  0.40344  0.70276  1.0000
  H   H1235     1.0  0.75123  0.44094  0.72937  1.0000
  C   C1561     1.0  0.78914  0.45874  0.67111  1.0000
  H   H1236     1.0  0.96943  0.48692  0.88338  1.0000
  H   H1237     1.0  0.73218  0.31948  0.62134  1.0000
  H   H1238     1.0  0.87087  0.43060  0.73149  1.0000
  C   C1562     1.0  0.73120  0.24716  0.70491  1.0000
  C   C1563     1.0  0.70912  0.24811  0.70436  1.0000
  C   C1564     1.0  0.70905  0.27034  0.69697  1.0000
  C   C1565     1.0  0.73130  0.29227  0.69087  1.0000
  C   C1566     1.0  0.75355  0.29152  0.69182  1.0000
  C   C1567     1.0  0.75349  0.26903  0.69858  1.0000
  H   H1239     1.0  0.69192  0.23156  0.70998  1.0000
  H   H1240     1.0  0.69181  0.27059  0.69649  1.0000
  H   H1241     1.0  0.77086  0.30830  0.68695  1.0000
  H   H1242     1.0  0.77060  0.26854  0.69875  1.0000
  C   C1568     1.0  0.91248  0.31075  0.79972  1.0000
  C   C1569     1.0  0.89809  0.29884  0.82321  1.0000
  C   C1570     1.0  0.87418  0.27738  0.81976  1.0000
  C   C1571     1.0  0.86412  0.26766  0.79285  1.0000
  C   C1572     1.0  0.87832  0.27986  0.76937  1.0000
  C   C1573     1.0  0.90237  0.30110  0.77282  1.0000
  H   H1243     1.0  0.90544  0.30611  0.84402  1.0000
  H   H1244     1.0  0.86338  0.26818  0.83811  1.0000
  H   H1245     1.0  0.87092  0.27277  0.74857  1.0000
  H   H1246     1.0  0.91325  0.31017  0.75449  1.0000
  C   C1574     1.0  0.96135  0.43277  0.97704  1.0000
  H   H1247     1.0  0.88548  0.47627  0.73447  1.0000
  C   C1575     1.0  0.84085  0.24798  0.57441  1.0000
  C   C1576     1.0  0.89482  0.13296  0.69671  1.0000
  C   C1577     1.0  0.74511  0.47919  0.61722  1.0000
  C   C1578     1.0  0.72853  0.30502  0.60582  1.0000
  C   C1579     1.0  0.93692  0.27943  0.86983  1.0000
  C   C1580     1.0  0.70307  0.11528  0.79221  1.0000
  C   C1581     1.0  0.71776  0.10517  0.78375  1.0000
  C   C1582     1.0  0.71180  0.08111  0.79365  1.0000
  C   C1583     1.0  0.69139  0.06727  0.81144  1.0000
  H   H1248     1.0  0.94393  0.26192  0.83467  1.0000
  H   H1249     1.0  0.70731  0.13372  0.78489  1.0000
  H   H1250     1.0  0.72308  0.07313  0.78752  1.0000
  H   H1251     1.0  0.68723  0.04897  0.81899  1.0000
  C   C1584     1.0  0.81462  0.13862  0.59174  1.0000
  C   C1585     1.0  0.79625  0.13143  0.61226  1.0000
  C   C1586     1.0  0.79651  0.14927  0.63129  1.0000
  C   C1587     1.0  0.81540  0.17454  0.63041  1.0000
  C   C1588     1.0  0.83360  0.18184  0.60964  1.0000
  C   C1589     1.0  0.83317  0.16405  0.59033  1.0000
  H   H1252     1.0  0.78177  0.11186  0.61356  1.0000
  H   H1253     1.0  0.78208  0.14347  0.64667  1.0000
  H   H1254     1.0  0.84820  0.20137  0.60852  1.0000
  H   H1255     1.0  0.84742  0.16990  0.57472  1.0000
  S   S227      1.0  0.86959  0.15160  0.51339  1.0000
  C   C1590     1.0  0.69460  0.07685  0.67081  1.0000
  H   H1256     1.0  0.85712  0.46543  0.59615  1.0000
  H   H1257     1.0  0.86468  0.23006  0.69699  1.0000
  H   H1258     1.0  0.87354  0.19773  0.77307  1.0000
  H   H1259     1.0  0.78433  0.21932  0.65161  1.0000
  S   S228      1.0  0.97407  0.35362  0.94545  1.0000
  C   C1591     1.0  0.67649  0.07723  0.81961  1.0000
  C   C1592     1.0  0.80498  0.20085  0.55282  1.0000
  C   C1593     1.0  0.79183  0.44808  0.69591  1.0000
  C   C1594     1.0  0.71566  0.26138  0.59437  1.0000
  S   S229      1.0  0.93349  0.16149  0.53287  1.0000
  C   C1595     1.0  0.96409  0.16842  0.52354  1.0000
  H   H1260     1.0  0.73453  0.06732  0.52708  1.0000
  C   C1596     1.0  0.68265  0.10142  0.81002  1.0000
  H   H1261     1.0  0.72405  0.41883  0.62435  1.0000
  H   H1262     1.0  0.97848  0.31362  0.92141  1.0000
  C   C1597     1.0  0.78989  0.12929  0.50572  1.0000
  C   C1598     1.0  0.72533  0.29201  0.55723  1.0000
  H   H1263     1.0  0.79055  0.04810  0.54602  1.0000
  H   H1264     1.0  0.82945  0.39943  0.74937  1.0000
  H   H1265     1.0  0.69338  0.06316  0.73997  1.0000
  H   H1266     1.0  0.76593  0.06781  0.56001  1.0000
  H   H1267     1.0  0.90526  0.14497  0.67952  1.0000
  H   H1268     1.0  0.82497  0.15859  0.52197  1.0000
  S   S230      1.0  0.68281  0.39820  0.65978  1.0000
  H   H1269     1.0  0.85979  0.25281  0.53554  1.0000
  H   H1270     1.0  0.76311  0.38641  0.67505  1.0000
  H   H1271     1.0  0.86536  0.21124  0.54808  1.0000
  H   H1272     1.0  0.66361  0.16366  0.51078  1.0000
  C   C1599     1.0  0.98485  0.18920  0.53642  1.0000
  C   C1600     1.0  0.75649  0.43062  0.56388  1.0000
  Fe  Fe114     1.0  0.98467  0.37180  0.90190  1.0000
  H   H1273     1.0  0.85491  0.26603  0.58301  1.0000
  C   C1601     1.0  0.76869  0.41739  0.64882  1.0000
  H   H1274     1.0  0.69821  0.45093  0.65833  1.0000
  C   C1602     1.0  0.81219  0.49022  0.57836  1.0000
  H   H1275     1.0  0.92192  0.12164  0.70489  1.0000
  C   C1603     1.0  0.82561  0.21679  0.53650  1.0000
  C   C1604     1.0  0.86718  0.46281  0.74200  1.0000
  C   C1605     1.0  0.77440  0.26048  0.77632  1.0000
  C   C1606     1.0  0.77986  0.25273  0.80166  1.0000
  C   C1607     1.0  0.80290  0.26768  0.81493  1.0000
  C   C1608     1.0  0.82054  0.29043  0.80295  1.0000
  C   C1609     1.0  0.81510  0.29859  0.77768  1.0000
  C   C1610     1.0  0.79196  0.28323  0.76433  1.0000
  P   P55       1.0  0.83792  0.32761  0.76138  1.0000
  C   C1611     1.0  0.85931  0.34928  0.78768  1.0000
  C   C1612     1.0  0.85499  0.32052  0.73600  1.0000
  C   C1613     1.0  0.88011  0.33790  0.73098  1.0000
  C   C1614     1.0  0.89327  0.33223  0.71150  1.0000
  C   C1615     1.0  0.88137  0.30941  0.69652  1.0000
  C   C1616     1.0  0.85624  0.29233  0.70083  1.0000
  C   C1617     1.0  0.84309  0.29786  0.72049  1.0000
  C   C1618     1.0  0.85778  0.37026  0.79686  1.0000
  C   C1619     1.0  0.87520  0.38736  0.81638  1.0000
  C   C1620     1.0  0.89420  0.38360  0.82683  1.0000
  C   C1621     1.0  0.89567  0.36264  0.81797  1.0000
  C   C1622     1.0  0.87827  0.34553  0.79859  1.0000
  C   C1623     1.0  0.82179  0.34133  0.74341  1.0000
  C   C1624     1.0  0.80019  0.33933  0.75486  1.0000
  C   C1625     1.0  0.78620  0.34750  0.73964  1.0000
  C   C1626     1.0  0.79398  0.35831  0.71324  1.0000
  C   C1627     1.0  0.81590  0.36120  0.70212  1.0000
  C   C1628     1.0  0.82978  0.35274  0.71711  1.0000
  H   H1276     1.0  0.75671  0.24860  0.76569  1.0000
  H   H1277     1.0  0.76650  0.23480  0.81064  1.0000
  H   H1278     1.0  0.80752  0.26110  0.83393  1.0000
  H   H1279     1.0  0.83846  0.30114  0.81327  1.0000
  H   H1280     1.0  0.78748  0.28867  0.74450  1.0000
  H   H1281     1.0  0.88973  0.35572  0.74227  1.0000
  H   H1282     1.0  0.91283  0.34538  0.70842  1.0000
  H   H1283     1.0  0.89167  0.30487  0.68175  1.0000
  H   H1284     1.0  0.84705  0.27457  0.68932  1.0000
  H   H1285     1.0  0.82373  0.28432  0.72374  1.0000
  H   H1286     1.0  0.84330  0.37356  0.78899  1.0000
  H   H1287     1.0  0.87409  0.40360  0.82337  1.0000
  H   H1288     1.0  0.90786  0.39692  0.84176  1.0000
  H   H1289     1.0  0.91043  0.35968  0.82594  1.0000
  H   H1290     1.0  0.87974  0.32943  0.79190  1.0000
  H   H1291     1.0  0.79360  0.33054  0.77507  1.0000
  H   H1292     1.0  0.76881  0.34464  0.74782  1.0000
  H   H1293     1.0  0.78261  0.36378  0.70111  1.0000
  H   H1294     1.0  0.82170  0.36929  0.68148  1.0000
  H   H1295     1.0  0.84635  0.35454  0.70781  1.0000
  C   C1629     1.0  0.78246  0.42204  0.69737  1.0000
  H   H1296     1.0  0.78774  0.26142  0.65050  1.0000
  C   C1630     1.0  0.82842  0.45344  0.76346  1.0000
  C   C1631     1.0  0.82032  0.42762  0.76180  1.0000
  C   C1632     1.0  0.80242  0.20847  0.57969  1.0000
  C   C1633     1.0  0.74786  0.20016  0.63257  1.0000
  C   C1634     1.0  0.83562  0.41940  0.75033  1.0000
  H   H1297     1.0  0.79111  0.18228  0.54533  1.0000
  H   H1298     1.0  0.78696  0.19579  0.59261  1.0000
  H   H1299     1.0  0.74627  0.18173  0.63374  1.0000
  C   C1635     1.0  0.82149  0.46179  0.60417  1.0000
  C   C1636     1.0  0.89129  0.10393  0.73330  1.0000
  C   C1637     1.0  0.73801  0.41150  0.54695  1.0000
  C   C1638     1.0  0.69145  0.20799  0.57613  1.0000
  H   H1300     1.0  0.81160  0.01965  0.53776  1.0000
  C   C1639     1.0  0.80759  0.00409  0.52375  1.0000
  H   H1301     1.0  0.73139  0.48872  0.68368  1.0000
  C   C1640     1.0  0.66575  0.19518  0.57074  1.0000
  C   C1641     1.0  0.71796  0.26739  0.56567  1.0000
  C   C1642     1.0  0.98646  0.29658  0.88609  1.0000
  C   C1643     1.0  0.73011  0.22648  0.62048  1.0000
  C   C1644     1.0  0.94674  0.29387  0.89434  1.0000
  H   H1302     1.0  0.78363  0.41363  0.71687  1.0000
  C   C1645     1.0  0.70960  0.39813  0.58572  1.0000
  H   H1303     1.0  0.73558  0.32968  0.57069  1.0000
  C   C1646     1.0  0.80878  0.15443  0.50926  1.0000
  C   C1647     1.0  0.69698  0.18870  0.53420  1.0000
  C   C1648     1.0  0.76903  0.48272  0.62142  1.0000
  C   C1649     1.0  0.90437  0.11971  0.71108  1.0000
  C   C1650     1.0  0.66991  0.32411  0.52957  1.0000
  C   C1651     1.0  0.72829  0.20266  0.62151  1.0000
  C   C1652     1.0  0.90932  0.18537  0.62425  1.0000
  C   C1653     1.0  0.89883  0.16965  0.60073  1.0000
  C   C1654     1.0  0.87580  0.14764  0.60275  1.0000
  C   C1655     1.0  0.86320  0.14118  0.62820  1.0000
  C   C1656     1.0  0.87360  0.15677  0.65200  1.0000
  C   C1657     1.0  0.89684  0.17893  0.64981  1.0000
  P   P56       1.0  0.85922  0.14722  0.68600  1.0000
  C   C1658     1.0  0.82598  0.12600  0.68324  1.0000
  C   C1659     1.0  0.87201  0.13048  0.70448  1.0000
  C   C1660     1.0  0.85896  0.11452  0.72680  1.0000
  C   C1661     1.0  0.81654  0.10104  0.67372  1.0000
  C   C1662     1.0  0.79095  0.08397  0.67361  1.0000
  C   C1663     1.0  0.77464  0.09147  0.68372  1.0000
  C   C1664     1.0  0.78389  0.11611  0.69365  1.0000
  C   C1665     1.0  0.80939  0.13338  0.69307  1.0000
  C   C1666     1.0  0.86500  0.17495  0.70582  1.0000
  C   C1667     1.0  0.86392  0.19470  0.69219  1.0000
  C   C1668     1.0  0.86638  0.21534  0.70757  1.0000
  C   C1669     1.0  0.86998  0.21646  0.73669  1.0000
  C   C1670     1.0  0.87125  0.19699  0.75041  1.0000
  C   C1671     1.0  0.86875  0.17628  0.73510  1.0000
  H   H1304     1.0  0.92728  0.20236  0.62273  1.0000
  H   H1305     1.0  0.90857  0.17434  0.58095  1.0000
  H   H1306     1.0  0.86752  0.13558  0.58447  1.0000
  H   H1307     1.0  0.84531  0.12412  0.62888  1.0000
  H   H1308     1.0  0.90553  0.19104  0.66799  1.0000
  H   H1309     1.0  0.84135  0.11236  0.73320  1.0000
  H   H1310     1.0  0.82897  0.09471  0.66660  1.0000
  H   H1311     1.0  0.78381  0.06486  0.66588  1.0000
  H   H1312     1.0  0.75485  0.07823  0.68397  1.0000
  H   H1313     1.0  0.77133  0.12195  0.70179  1.0000
  H   H1314     1.0  0.81598  0.15243  0.70039  1.0000
  H   H1315     1.0  0.86037  0.19376  0.66975  1.0000
  C   C1672     1.0  0.77129  0.24509  0.64198  1.0000
  C   C1673     1.0  0.95157  0.27300  0.85376  1.0000
  H   H1316     1.0  0.95130  0.47603  0.94524  1.0000
  C   C1674     1.0  0.82036  0.23195  0.59051  1.0000
  H   H1317     1.0  0.70401  0.09262  0.65665  1.0000
  C   C1675     1.0  0.76245  0.05838  0.53976  1.0000
  H   H1318     1.0  0.71161  0.18593  0.61412  1.0000
  C   C1676     1.0  0.77626  0.04716  0.53196  1.0000
  C   C1677     1.0  0.85157  0.49200  0.57208  1.0000
  S   S231      1.0  0.68152  0.31785  0.56097  1.0000
  C   C1678     1.0  0.86860  0.10136  0.74117  1.0000
  H   H1319     1.0  0.74103  0.47183  0.80811  1.0000
  H   H1320     1.0  0.72970  0.46108  0.61080  1.0000
  C   C1679     1.0  0.68123  0.22145  0.63199  1.0000
  C   C1680     1.0  0.75176  0.24768  0.63096  1.0000
  H   H1321     1.0  0.71359  0.25316  0.54968  1.0000
  C   C1681     1.0  0.96837  0.15441  0.50334  1.0000
  C   C1682     1.0  0.77086  0.40670  0.67385  1.0000
  C   C1683     1.0  0.76935  0.22137  0.64274  1.0000
  H   H1322     1.0  0.98838  0.25359  0.89994  1.0000
  H   H1323     1.0  0.81865  0.23740  0.61167  1.0000
  C   C1684     1.0  0.71462  0.39521  0.55790  1.0000
  H   H1324     1.0  0.77444  0.44292  0.55491  1.0000
  C   C1685     1.0  0.72092  0.28039  0.61433  1.0000
  H   H1325     1.0  0.85844  0.08914  0.75840  1.0000
  H   H1326     1.0  0.72695  0.21478  0.56112  1.0000
  H   H1327     1.0  0.98400  0.24980  0.55139  1.0000
  H   H1328     1.0  0.79167  0.11432  0.51550  1.0000
  H   H1329     1.0  0.98607  0.43118  0.94690  1.0000
  C   C1686     1.0  0.85898  0.43698  0.74030  1.0000
  H   H1330     1.0  0.74177  0.40917  0.52533  1.0000
  H   H1331     1.0  0.88829  0.48692  0.79653  1.0000
  C   C1687     1.0  0.70702  0.20472  0.55761  1.0000
  C   C1688     1.0  0.80521  0.47079  0.59798  1.0000
  H   H1332     1.0  0.90670  0.21543  0.54770  1.0000
  H   H1333     1.0  0.71875  0.27607  0.63648  1.0000
  H   H1334     1.0  0.67145  0.10948  0.81627  1.0000
  H   H1335     1.0  0.70040  0.38025  0.54487  1.0000
  Fe  Fe115     1.0  0.67950  0.35951  0.65498  1.0000
  H   H1336     1.0  0.81627  0.45934  0.77253  1.0000
  C   C1689     1.0  0.77748  0.44347  0.64734  1.0000
  H   H1337     1.0  0.81638  0.44651  0.61882  1.0000
  C   C1690     1.0  0.66375  0.00098  0.78625  1.0000
  H   H1338     1.0  0.71501  0.09848  0.70748  1.0000
  C   C1691     1.0  0.70092  0.08014  0.69938  1.0000
  H   H1339     1.0  0.68937  0.19579  0.65495  1.0000
  H   H1340     1.0  0.71930  0.49016  0.92580  1.0000
  H   H1341     1.0  0.93555  0.29915  0.90677  1.0000
  C   C1692     1.0  0.85205  0.47126  0.75382  1.0000
  H   H1342     1.0  0.75997  0.40513  0.63078  1.0000
  C   C1693     1.0  0.72808  0.41704  0.60272  1.0000
  H   H1343     1.0  0.80015  0.45996  0.71434  1.0000
  H   H1344     1.0  0.80219  0.41395  0.76957  1.0000
  C   C1694     1.0  0.67654  0.31830  0.50366  1.0000
  C   C1695     1.0  0.98461  0.43855  0.96712  1.0000
  H   H1345     1.0  0.66780  0.24508  0.61428  1.0000
  C   C1696     1.0  0.67136  0.17593  0.52904  1.0000
  Fe  Fe116     1.0  0.67618  0.32426  0.60697  1.0000
  C   C1697     1.0  0.68871  0.05995  0.71779  1.0000
  C   C1698     1.0  0.98447  0.36738  0.97964  1.0000
  H   H1346     1.0  0.72626  0.29645  0.53509  1.0000
  H   H1347     1.0  0.89873  0.09368  0.74439  1.0000
  C   C1699     1.0  0.87354  0.21158  0.52808  1.0000
  S   S232      1.0  0.97780  0.44557  0.87592  1.0000
  P   P57       1.0  0.77542  0.45742  0.61469  1.0000
  H   H1348     1.0  0.78374  0.02768  0.49944  1.0000
  C   C1700     1.0  0.69935  0.02127  0.75595  1.0000
  C   C1701     1.0  0.67883  0.99990  0.80758  1.0000
  C   C1702     1.0  0.84462  0.47244  0.59130  1.0000
  H   H1349     1.0  0.97818  0.24454  0.49998  1.0000
  H   H1350     1.0  0.73418  0.02855  0.77431  1.0000
  H   H1351     1.0  0.79575  0.47879  0.67088  1.0000
  H   H1352     1.0  0.71589  0.00954  0.82018  1.0000
  H   H1353     1.0  0.91801  0.27340  0.86317  1.0000
  H   H1354     1.0  0.67039  0.05109  0.63870  1.0000
  C   C1703     1.0  0.97131  0.30221  0.90257  1.0000
  H   H1355     1.0  0.69145  0.38555  0.59428  1.0000
  H   H1356     1.0  0.98728  0.27624  0.84918  1.0000
  C   C1704     1.0  0.74480  0.05812  0.52113  1.0000
  H   H1357     1.0  0.70752  0.02908  0.73589  1.0000
  H   H1358     1.0  0.85321  0.48475  0.69907  1.0000
  C   C1705     1.0  0.70422  0.01000  0.80340  1.0000
  C   C1706     1.0  0.67745  0.20386  0.65300  1.0000
  H   H1359     1.0  0.98193  0.20016  0.55215  1.0000
  C   C1707     1.0  0.67393  0.01183  0.76034  1.0000
  C   C1708     1.0  0.67046  0.03608  0.70769  1.0000
  C   C1709     1.0  0.67573  0.05344  0.66073  1.0000
  S   S233      1.0  0.67186  0.33059  0.68853  1.0000
  C   C1710     1.0  0.89709  0.21395  0.52802  1.0000
  H   H1360     1.0  0.72418  0.47781  0.76322  1.0000
  Fe  Fe117     1.0  0.98718  0.41477  0.86717  1.0000
  H   H1361     1.0  0.70910  0.18636  0.51991  1.0000
  S   S234      1.0  0.66844  0.29292  0.63700  1.0000
  C   C1711     1.0  0.73905  0.48830  0.80543  1.0000
  H   H1362     1.0  0.82904  0.25449  0.50129  1.0000
  C   C1712     1.0  0.98364  0.49244  0.86778  1.0000
  C   C1713     1.0  0.77231  0.03553  0.50561  1.0000
  C   C1714     1.0  0.97618  0.28133  0.86196  1.0000
  C   C1715     1.0  0.99113  0.47530  0.85942  1.0000
  C   C1716     1.0  0.86061  0.20898  0.50265  1.0000
  H   H1363     1.0  0.92552  0.21388  0.50271  1.0000
  P   P58       1.0  0.83030  0.20649  0.50256  1.0000
  C   C1717     1.0  0.90775  0.21315  0.50268  1.0000
  S   S235      1.0  0.76810  0.49382  0.72641  1.0000
  C   C1718     1.0  0.72954  0.49164  0.78007  1.0000
  C   C1719     1.0  0.66342  0.03322  0.67917  1.0000
  C   C1720     1.0  0.74316  0.94229  0.45580  1.0000
  C   C1721     1.0  0.73596  0.60416  0.31022  1.0000
  Fe  Fe118     1.0  0.71168  0.84994  0.46309  1.0000
  S   S236      1.0  0.69954  0.84958  0.41730  1.0000
  S   S237      1.0  0.75293  0.86771  0.47239  1.0000
  Fe  Fe119     1.0  0.84584  0.70152  0.47399  1.0000
  S   S238      1.0  0.82126  0.66639  0.44680  1.0000
  S   S239      1.0  0.87013  0.74175  0.46058  1.0000
  H   H1364     1.0  0.88054  0.51471  0.12107  1.0000
  Fe  Fe120     1.0  0.97635  0.60830  0.16174  1.0000
  C   C1722     1.0  0.67655  0.57223  0.18619  1.0000
  S   S240      1.0  0.95192  0.61843  0.18855  1.0000
  C   C1723     1.0  0.67597  0.52994  0.27670  1.0000
  H   H1365     1.0  0.66512  0.53447  0.26253  1.0000
  S   S241      1.0  0.96613  0.58187  0.12500  1.0000
  C   C1724     1.0  0.73775  0.95214  0.47940  1.0000
  Fe  Fe121     1.0  0.80546  0.59843  0.29622  1.0000
  S   S242      1.0  0.80272  0.59848  0.24864  1.0000
  S   S243      1.0  0.82634  0.63682  0.31892  1.0000
  Fe  Fe122     1.0  0.77613  0.54039  0.29858  1.0000
  S   S244      1.0  0.77147  0.53671  0.25173  1.0000
  H   H1366     1.0  0.85474  0.78776  0.34787  1.0000
  Fe  Fe123     1.0  0.81204  0.56718  0.25007  1.0000
  S   S245      1.0  0.83641  0.55890  0.22075  1.0000
  Fe  Fe124     1.0  0.76260  0.56828  0.25390  1.0000
  S   S246      1.0  0.72584  0.56186  0.23391  1.0000
  S   S247      1.0  0.81712  0.56900  0.29710  1.0000
  S   S248      1.0  0.76508  0.57011  0.30132  1.0000
  C   C1725     1.0  0.71324  0.57573  0.21070  1.0000
  C   C1726     1.0  0.72764  0.59974  0.19914  1.0000
  C   C1727     1.0  0.71654  0.60987  0.18125  1.0000
  C   C1728     1.0  0.69089  0.59632  0.17481  1.0000
  C   C1729     1.0  0.68579  0.64759  0.32760  1.0000
  C   C1730     1.0  0.68766  0.56208  0.20398  1.0000
  H   H1367     1.0  0.74732  0.61046  0.20391  1.0000
  H   H1368     1.0  0.72791  0.62843  0.17247  1.0000
  H   H1369     1.0  0.98943  0.50317  0.00397  1.0000
  H   H1370     1.0  0.69647  0.63807  0.32904  1.0000
  C   C1731     1.0  0.97480  0.54275  0.03769  1.0000
  C   C1732     1.0  0.67584  0.66107  0.19035  1.0000
  H   H1371     1.0  0.93913  0.53439  0.18164  1.0000
  C   C1733     1.0  0.91962  0.60167  0.19683  1.0000
  C   C1734     1.0  0.90265  0.57877  0.18377  1.0000
  C   C1735     1.0  0.87732  0.56626  0.19112  1.0000
  C   C1736     1.0  0.86853  0.57623  0.21179  1.0000
  C   C1737     1.0  0.88552  0.59905  0.22498  1.0000
  C   C1738     1.0  0.91083  0.61167  0.21747  1.0000
  H   H1372     1.0  0.90900  0.57086  0.16779  1.0000
  H   H1373     1.0  0.86439  0.54875  0.18062  1.0000
  H   H1374     1.0  0.87915  0.60704  0.24085  1.0000
  H   H1375     1.0  0.92370  0.62937  0.22771  1.0000
  C   C1739     1.0  0.66694  0.83008  0.37223  1.0000
  P   P59       1.0  0.68471  0.57205  0.30907  1.0000
  C   C1740     1.0  0.82356  0.65862  0.41129  1.0000
  C   C1741     1.0  0.83864  0.67685  0.39186  1.0000
  C   C1742     1.0  0.83924  0.66976  0.36376  1.0000
  C   C1743     1.0  0.82502  0.64444  0.35473  1.0000
  C   C1744     1.0  0.81006  0.62619  0.37418  1.0000
  C   C1745     1.0  0.80923  0.63330  0.40221  1.0000
  H   H1376     1.0  0.84970  0.69642  0.39840  1.0000
  H   H1377     1.0  0.85066  0.68401  0.34879  1.0000
  H   H1378     1.0  0.79893  0.60665  0.36757  1.0000
  H   H1379     1.0  0.79743  0.61903  0.41699  1.0000
  H   H1380     1.0  0.69405  0.66166  0.37024  1.0000
  C   C1746     1.0  0.74916  0.99092  0.45428  1.0000
  H   H1381     1.0  0.85672  0.65220  0.46865  1.0000
  C   C1747     1.0  0.96933  0.50885  0.06826  1.0000
  C   C1748     1.0  0.69385  0.60526  0.26418  1.0000
  H   H1382     1.0  0.67004  0.49805  0.25151  1.0000
  H   H1383     1.0  0.68305  0.84176  0.35978  1.0000
  H   H1384     1.0  0.93529  0.65993  0.43520  1.0000
  H   H1385     1.0  0.70870  0.86952  0.31081  1.0000
  H   H1386     1.0  0.71213  0.55024  0.33618  1.0000
  Fe  Fe125     1.0  0.85445  0.75213  0.49761  1.0000
  H   H1387     1.0  0.91741  0.65175  0.29815  1.0000
  C   C1749     1.0  0.81280  0.98835  0.47939  1.0000
  H   H1388     1.0  0.84940  0.49711  0.15885  1.0000
  C   C1750     1.0  0.82483  0.81434  0.49154  1.0000
  H   H1389     1.0  0.84331  0.82985  0.48765  1.0000
  H   H1390     1.0  0.68230  0.83844  0.27396  1.0000
  C   C1751     1.0  0.96776  0.72356  0.40602  1.0000
  C   C1752     1.0  0.69046  0.63073  0.04549  1.0000
  C   C1753     1.0  0.70250  0.53884  0.31783  1.0000
  C   C1754     1.0  0.73371  0.77608  0.41451  1.0000
  C   C1755     1.0  0.75027  0.80030  0.42479  1.0000
  C   C1756     1.0  0.77538  0.80798  0.42839  1.0000
  C   C1757     1.0  0.78399  0.79142  0.42197  1.0000
  C   C1758     1.0  0.76753  0.76714  0.41124  1.0000
  C   C1759     1.0  0.74225  0.75951  0.40783  1.0000
  P   P60       1.0  0.77813  0.74509  0.40401  1.0000
  C   C1760     1.0  0.77121  0.72398  0.43338  1.0000
  C   C1761     1.0  0.76354  0.72753  0.37198  1.0000
  C   C1762     1.0  0.76089  0.70362  0.36723  1.0000
  C   C1763     1.0  0.75082  0.69077  0.34180  1.0000
  C   C1764     1.0  0.74322  0.70158  0.32096  1.0000
  C   C1765     1.0  0.74578  0.72533  0.32546  1.0000
  C   C1766     1.0  0.75611  0.73837  0.35073  1.0000
  C   C1767     1.0  0.78340  0.71003  0.43642  1.0000
  C   C1768     1.0  0.77822  0.69380  0.45913  1.0000
  H   H1391     1.0  0.73449  0.75012  0.05654  1.0000
  C   C1769     1.0  0.74922  0.70568  0.47666  1.0000
  C   C1770     1.0  0.75415  0.72176  0.45382  1.0000
  C   C1771     1.0  0.81133  0.76218  0.39910  1.0000
  C   C1772     1.0  0.82134  0.76907  0.37213  1.0000
  S   S249      1.0  0.67775  0.61050  0.15288  1.0000
  C   C1773     1.0  0.86301  0.78927  0.39214  1.0000
  C   C1774     1.0  0.85317  0.78263  0.41900  1.0000
  C   C1775     1.0  0.82746  0.76912  0.42248  1.0000
  H   H1392     1.0  0.70027  0.68726  0.26533  1.0000
  H   H1393     1.0  0.74357  0.81296  0.43061  1.0000
  H   H1394     1.0  0.78802  0.82655  0.43706  1.0000
  H   H1395     1.0  0.80337  0.79757  0.42592  1.0000
  H   H1396     1.0  0.72908  0.74063  0.40044  1.0000
  H   H1397     1.0  0.76698  0.69499  0.38281  1.0000
  H   H1398     1.0  0.74925  0.67256  0.33806  1.0000
  H   H1399     1.0  0.73559  0.69163  0.30122  1.0000
  H   H1400     1.0  0.74012  0.73385  0.30920  1.0000
  H   H1401     1.0  0.75866  0.75711  0.35342  1.0000
  H   H1402     1.0  0.79716  0.71184  0.42146  1.0000
  H   H1403     1.0  0.78771  0.68312  0.46135  1.0000
  H   H1404     1.0  0.77719  0.64521  0.35875  1.0000
  C   C1776     1.0  0.67362  0.64682  0.30242  1.0000
  H   H1405     1.0  0.74500  0.73278  0.45267  1.0000
  H   H1406     1.0  0.80939  0.76423  0.35373  1.0000
  C   C1777     1.0  0.91946  0.52612  0.17705  1.0000
  H   H1407     1.0  0.86544  0.78807  0.43728  1.0000
  H   H1408     1.0  0.82020  0.76427  0.44349  1.0000
  S   S250      1.0  0.70201  0.81560  0.48853  1.0000
  H   H1409     1.0  0.72978  0.69347  0.22781  1.0000
  C   C1778     1.0  0.97021  0.77909  0.48529  1.0000
  C   C1779     1.0  0.71466  0.60585  0.35168  1.0000
  H   H1410     1.0  0.91868  0.72265  0.43065  1.0000
  C   C1780     1.0  0.90382  0.71251  0.36088  1.0000
  H   H1411     1.0  0.69924  0.61994  0.05142  1.0000
  H   H1412     1.0  0.71654  0.51341  0.32477  1.0000
  H   H1413     1.0  0.67492  0.63659  0.28458  1.0000
  H   H1414     1.0  0.88296  0.79982  0.38958  1.0000
  C   C1781     1.0  0.70128  0.67377  0.19631  1.0000
  C   C1782     1.0  0.68649  0.92651  0.41778  1.0000
  C   C1783     1.0  0.98954  0.69509  0.39055  1.0000
  C   C1784     1.0  0.84710  0.78249  0.36870  1.0000
  H   H1415     1.0  0.66908  0.65387  0.16930  1.0000
  C   C1785     1.0  0.94412  0.56653  0.23681  1.0000
  Fe  Fe126     1.0  0.89896  0.74306  0.49116  1.0000
  C   C1786     1.0  0.65901  0.65724  0.21152  1.0000
  C   C1787     1.0  0.91835  0.65872  0.44238  1.0000
  C   C1788     1.0  0.87153  0.50338  0.30544  1.0000
  H   H1416     1.0  0.95248  0.66511  0.38125  1.0000
  C   C1789     1.0  0.71374  0.59608  0.32463  1.0000
  C   C1790     1.0  0.88782  0.50297  0.28571  1.0000
  H   H1417     1.0  0.70048  0.63047  0.22962  1.0000
  H   H1418     1.0  0.79354  0.94759  0.47429  1.0000
  H   H1419     1.0  0.89725  0.76342  0.37479  1.0000
  H   H1420     1.0  0.69353  0.89396  0.33630  1.0000
  H   H1421     1.0  0.71785  0.65290  0.01482  1.0000
  H   H1422     1.0  0.97421  0.55995  0.03435  1.0000
  H   H1423     1.0  0.90170  0.70015  0.34348  1.0000
  C   C1791     1.0  0.91161  0.52511  0.14918  1.0000
  H   H1424     1.0  0.73826  0.63067  0.38498  1.0000
  C   C1792     1.0  0.68675  0.61417  0.24090  1.0000
  C   C1793     1.0  0.66219  0.60136  0.23115  1.0000
  C   C1794     1.0  0.69317  0.67954  0.24461  1.0000
  C   C1795     1.0  0.76122  0.69167  0.47929  1.0000
  C   C1796     1.0  0.75945  0.63175  0.34919  1.0000
  C   C1797     1.0  0.75866  0.62211  0.32235  1.0000
  H   H1425     1.0  0.89253  0.73430  0.33567  1.0000
  C   C1798     1.0  0.96068  0.54114  0.25550  1.0000
  C   C1799     1.0  0.87405  0.65416  0.46145  1.0000
  C   C1800     1.0  0.68150  0.88012  0.32079  1.0000
  C   C1801     1.0  0.80481  0.81896  0.49280  1.0000
  C   C1802     1.0  0.67533  0.95766  0.28383  1.0000
  C   C1803     1.0  0.86178  0.52817  0.27385  1.0000
  C   C1804     1.0  0.66003  0.65938  0.30010  1.0000
  C   C1805     1.0  0.94120  0.54270  0.24222  1.0000
  C   C1806     1.0  0.95381  0.71022  0.49364  1.0000
  C   C1807     1.0  0.96633  0.58847  0.24402  1.0000
  H   H1426     1.0  0.93693  0.68194  0.33773  1.0000
  H   H1427     1.0  0.77578  0.62804  0.31119  1.0000
  H   H1428     1.0  0.91114  0.75785  0.42202  1.0000
  H   H1429     1.0  0.71418  0.77012  0.41221  1.0000
  C   C1808     1.0  0.98196  0.53240  0.01607  1.0000
  H   H1430     1.0  0.69797  0.59947  0.36367  1.0000
  H   H1431     1.0  0.74137  0.92373  0.45670  1.0000
  H   H1432     1.0  0.94851  0.50481  0.20798  1.0000
  C   C1809     1.0  0.70999  0.68331  0.22337  1.0000
  C   C1810     1.0  0.90201  0.51615  0.19855  1.0000
  H   H1433     1.0  0.96423  0.49991  0.08855  1.0000
  C   C1811     1.0  0.66746  0.66581  0.23901  1.0000
  H   H1434     1.0  0.92926  0.56820  0.22694  1.0000
  C   C1812     1.0  0.69033  0.86648  0.30612  1.0000
  S   S251      1.0  0.97020  0.52451  0.14208  1.0000
  C   C1813     1.0  0.98174  0.50505  0.15431  1.0000
  H   H1435     1.0  0.75531  0.94877  0.41299  1.0000
  C   C1814     1.0  0.89032  0.51420  0.25934  1.0000
  C   C1815     1.0  0.85826  0.51569  0.29934  1.0000
  H   H1436     1.0  0.67632  0.54342  0.21246  1.0000
  C   C1816     1.0  0.68173  0.94173  0.39992  1.0000
  H   H1437     1.0  0.70024  0.70591  0.05655  1.0000
  C   C1817     1.0  0.73747  0.62359  0.36388  1.0000
  C   C1818     1.0  0.67937  0.90182  0.40969  1.0000
  C   C1819     1.0  0.67947  0.71099  0.02280  1.0000
  H   H1438     1.0  0.96325  0.53917  0.08069  1.0000
  C   C1820     1.0  0.69313  0.50309  0.28778  1.0000
  C   C1821     1.0  0.95262  0.69872  0.39589  1.0000
  C   C1822     1.0  0.90769  0.64857  0.31777  1.0000
  C   C1823     1.0  0.88370  0.62791  0.32015  1.0000
  C   C1824     1.0  0.87075  0.62416  0.34506  1.0000
  C   C1825     1.0  0.88169  0.64104  0.36762  1.0000
  C   C1826     1.0  0.90595  0.66163  0.36562  1.0000
  C   C1827     1.0  0.91873  0.66550  0.34032  1.0000
  P   P61       1.0  0.91918  0.68475  0.39375  1.0000
  C   C1828     1.0  0.90652  0.66920  0.42667  1.0000
  C   C1829     1.0  0.75389  0.98061  0.43038  1.0000
  H   H1439     1.0  0.73638  0.70442  0.49257  1.0000
  H   H1440     1.0  0.92513  0.53229  0.13261  1.0000
  C   C1830     1.0  0.98306  0.56313  0.26218  1.0000
  Fe  Fe127     1.0  0.98951  0.56752  0.14502  1.0000
  C   C1831     1.0  0.67909  0.72849  0.00407  1.0000
  C   C1832     1.0  0.88425  0.66673  0.43640  1.0000
  H   H1441     1.0  0.68295  0.88987  0.42353  1.0000
  C   C1833     1.0  0.97336  0.70860  0.48178  1.0000
  H   H1442     1.0  0.96852  0.60680  0.23941  1.0000
  C   C1834     1.0  0.79728  0.96316  0.48817  1.0000
  C   C1835     1.0  0.91130  0.70905  0.38769  1.0000
  C   C1836     1.0  0.74064  0.97631  0.47867  1.0000
  C   C1837     1.0  0.89859  0.73195  0.35631  1.0000
  C   C1838     1.0  0.90112  0.74826  0.37832  1.0000
  C   C1839     1.0  0.90866  0.74498  0.40497  1.0000
  C   C1840     1.0  0.91323  0.72516  0.40976  1.0000
  H   H1443     1.0  0.66988  0.68375  0.36665  1.0000
  H   H1444     1.0  0.87481  0.61520  0.30241  1.0000
  H   H1445     1.0  0.85175  0.60875  0.34645  1.0000
  H   H1446     1.0  0.87080  0.63830  0.38618  1.0000
  C   C1841     1.0  0.68969  0.66343  0.01764  1.0000
  H   H1447     1.0  0.69302  0.97487  0.28152  1.0000
  H   H1448     1.0  0.71310  0.61535  0.27074  1.0000
  H   H1449     1.0  0.87459  0.67435  0.42459  1.0000
  C   C1842     1.0  0.67862  0.50910  0.27039  1.0000
  C   C1843     1.0  0.75116  0.95649  0.43126  1.0000
  H   H1450     1.0  0.88096  0.53825  0.23493  1.0000
  C   C1844     1.0  0.90831  0.64652  0.46772  1.0000
  C   C1845     1.0  0.66971  0.82979  0.40160  1.0000
  H   H1451     1.0  0.66964  0.71176  0.24693  1.0000
  C   C1846     1.0  0.88642  0.51484  0.14263  1.0000
  C   C1847     1.0  0.66857  0.62600  0.05843  1.0000
  C   C1848     1.0  0.66743  0.89231  0.38377  1.0000
  H   H1452     1.0  0.98562  0.75967  0.46286  1.0000
  C   C1849     1.0  0.98986  0.77634  0.47496  1.0000
  H   H1453     1.0  0.96880  0.59891  0.00306  1.0000
  H   H1454     1.0  0.80800  0.83782  0.48956  1.0000
  H   H1455     1.0  0.84561  0.51609  0.31450  1.0000
  C   C1850     1.0  0.69962  0.71901  0.04172  1.0000
  H   H1456     1.0  0.85203  0.53836  0.26933  1.0000
  S   S252      1.0  0.76255  0.50869  0.33093  1.0000
  C   C1851     1.0  0.67631  0.58339  0.27803  1.0000
  C   C1852     1.0  0.98328  0.51052  0.02070  1.0000
  C   C1853     1.0  0.68444  0.66087  0.35076  1.0000
  C   C1854     1.0  0.87800  0.52777  0.25415  1.0000
  H   H1457     1.0  0.87832  0.63487  0.49688  1.0000
  H   H1458     1.0  0.95992  0.73497  0.41254  1.0000
  C   C1855     1.0  0.70498  0.51789  0.31155  1.0000
  C   C1856     1.0  0.67547  0.84895  0.28543  1.0000
  H   H1459     1.0  0.69820  0.67802  0.00197  1.0000
  C   C1857     1.0  0.71855  0.76135  0.02309  1.0000
  C   C1858     1.0  0.88618  0.64428  0.47727  1.0000
  C   C1859     1.0  0.70094  0.64933  0.02495  1.0000
  H   H1460     1.0  0.95874  0.52306  0.26070  1.0000
  P   P62       1.0  0.91195  0.51469  0.23395  1.0000
  H   H1461     1.0  0.73576  0.59627  0.28970  1.0000
  C   C1860     1.0  0.68803  0.54512  0.30038  1.0000
  H   H1462     1.0  0.80494  0.50305  0.23351  1.0000
  H   H1463     1.0  0.93658  0.70378  0.48194  1.0000
  H   H1464     1.0  0.71415  0.67616  0.17987  1.0000
  H   H1465     1.0  0.68840  0.94363  0.31730  1.0000
  H   H1466     1.0  0.73360  0.78078  0.02322  1.0000
  H   H1467     1.0  0.66219  0.53034  0.34976  1.0000
  C   C1861     1.0  0.69858  0.75355  0.00423  1.0000
  H   H1468     1.0  0.66223  0.97841  0.09900  1.0000
  C   C1862     1.0  0.66297  0.90761  0.36543  1.0000
  C   C1863     1.0  0.66769  0.65880  0.03063  1.0000
  H   H1469     1.0  0.69545  0.93373  0.43803  1.0000
  C   C1864     1.0  0.96374  0.68448  0.38848  1.0000
  C   C1865     1.0  0.71906  0.74408  0.04183  1.0000
  C   C1866     1.0  0.82126  0.78995  0.49555  1.0000
  C   C1867     1.0  0.67087  0.67335  0.34872  1.0000
  H   H1470     1.0  0.66153  0.87292  0.37815  1.0000
  C   C1868     1.0  0.96854  0.53100  0.06379  1.0000
  C   C1869     1.0  0.98835  0.60586  0.99997  1.0000
  H   H1471     1.0  0.82082  0.99182  0.45873  1.0000
  C   C1870     1.0  0.86893  0.50488  0.16390  1.0000
  H   H1472     1.0  0.68717  0.96079  0.40633  1.0000
  H   H1473     1.0  0.73636  0.98350  0.49726  1.0000
  S   S253      1.0  0.93883  0.75504  0.47742  1.0000
  C   C1871     1.0  0.98591  0.58680  0.25636  1.0000
  C   C1872     1.0  0.97694  0.49854  0.04686  1.0000
  H   H1474     1.0  0.66544  0.94402  0.36086  1.0000
  C   C1873     1.0  0.87665  0.50518  0.19168  1.0000
  H   H1475     1.0  0.66037  0.61153  0.07433  1.0000
  H   H1476     1.0  0.91764  0.63877  0.47996  1.0000
  H   H1477     1.0  0.75987  0.99128  0.41113  1.0000
  H   H1478     1.0  0.86282  0.49691  0.20773  1.0000
  H   H1479     1.0  0.78139  0.49818  0.27685  1.0000
  H   H1480     1.0  0.86952  0.49458  0.32566  1.0000
  C   C1874     1.0  0.67257  0.94003  0.30424  1.0000
  S   S254      1.0  0.84767  0.78578  0.49520  1.0000
  H   H1481     1.0  0.97125  0.70063  0.46093  1.0000
  H   H1482     1.0  0.66075  0.70372  0.07803  1.0000
  H   H1483     1.0  0.89866  0.49422  0.29120  1.0000
  H   H1484     1.0  0.98913  0.65562  0.02337  1.0000
  H   H1485     1.0  0.66073  0.98881  0.44637  1.0000
  C   C1875     1.0  0.66972  0.93224  0.37396  1.0000
  H   H1486     1.0  0.99155  0.65860  0.22751  1.0000
  C   C1876     1.0  0.65995  0.56237  0.33394  1.0000
  H   H1487     1.0  0.75765  0.67940  0.49712  1.0000
  H   H1488     1.0  0.67969  0.78564  0.59240  1.0000
  H   H1489     1.0  0.71171  0.74050  0.59931  1.0000
  H   H1490     1.0  0.77242  0.94864  0.87200  1.0000
  C   C1877     1.0  0.78617  0.82893  0.65536  1.0000
  Fe  Fe128     1.0  0.69815  0.83659  0.52530  1.0000
  Fe  Fe129     1.0  0.74560  0.88585  0.50978  1.0000
  S   S255      1.0  0.73808  0.85320  0.53862  1.0000
  H   H1491     1.0  0.67342  0.78307  0.66491  1.0000
  C   C1878     1.0  0.82280  0.50928  0.77192  1.0000
  H   H1492     1.0  0.90545  0.74623  0.58458  1.0000
  H   H1493     1.0  0.69130  0.61436  0.80726  1.0000
  H   H1494     1.0  0.69111  0.59276  0.86235  1.0000
  C   C1879     1.0  0.69026  0.74773  0.66205  1.0000
  Fe  Fe130     1.0  0.85914  0.71447  0.53644  1.0000
  S   S256      1.0  0.85561  0.70269  0.58267  1.0000
  S   S257      1.0  0.88481  0.75585  0.52722  1.0000
  C   C1880     1.0  0.76009  0.52288  0.63004  1.0000
  C   C1881     1.0  0.83446  0.51557  0.82936  1.0000
  S   S258      1.0  0.76688  0.92679  0.52740  1.0000
  C   C1882     1.0  0.77386  0.54587  0.93094  1.0000
  Fe  Fe131     1.0  0.98124  0.60336  0.84094  1.0000
  S   S259      1.0  0.93907  0.58810  0.83646  1.0000
  H   H1495     1.0  0.82394  0.77275  0.55982  1.0000
  H   H1496     1.0  0.95606  0.60845  0.90974  1.0000
  Fe  Fe132     1.0  0.79635  0.58207  0.68487  1.0000
  S   S260      1.0  0.80973  0.60837  0.72199  1.0000
  S   S261      1.0  0.79797  0.59302  0.63853  1.0000
  Fe  Fe133     1.0  0.77969  0.53554  0.72248  1.0000
  S   S262      1.0  0.79194  0.55938  0.76224  1.0000
  H   H1497     1.0  0.92996  0.72509  0.58033  1.0000
  Fe  Fe134     1.0  0.77388  0.57997  0.74247  1.0000
  S   S263      1.0  0.75377  0.59733  0.76614  1.0000
  Fe  Fe135     1.0  0.82651  0.58555  0.73868  1.0000
  S   S264      1.0  0.86785  0.60590  0.75214  1.0000
  S   S265      1.0  0.75959  0.55441  0.70432  1.0000
  S   S266      1.0  0.81508  0.56086  0.70000  1.0000
  C   C1883     1.0  0.73831  0.80047  0.57536  1.0000
  C   C1884     1.0  0.72261  0.58878  0.77452  1.0000
  C   C1885     1.0  0.71836  0.60648  0.78866  1.0000
  C   C1886     1.0  0.69415  0.60058  0.79623  1.0000
  C   C1887     1.0  0.67297  0.92958  0.74331  1.0000
  C   C1888     1.0  0.82066  0.86691  0.63648  1.0000
  C   C1889     1.0  0.70219  0.56506  0.76788  1.0000
  H   H1498     1.0  0.73394  0.62487  0.79401  1.0000
  H   H1499     1.0  0.67227  0.94763  0.81058  1.0000
  C   C1890     1.0  0.66930  0.84168  0.63168  1.0000
  H   H1500     1.0  0.70500  0.55125  0.75688  1.0000
  C   C1891     1.0  0.73880  0.82377  0.61677  1.0000
  C   C1892     1.0  0.95917  0.66113  0.88220  1.0000
  C   C1893     1.0  0.91981  0.59288  0.81195  1.0000
  C   C1894     1.0  0.89383  0.57712  0.81317  1.0000
  C   C1895     1.0  0.87767  0.58028  0.79463  1.0000
  C   C1896     1.0  0.88725  0.59979  0.77501  1.0000
  C   C1897     1.0  0.91324  0.61554  0.77376  1.0000
  C   C1898     1.0  0.92941  0.61200  0.79188  1.0000
  H   H1501     1.0  0.88622  0.56241  0.82870  1.0000
  H   H1502     1.0  0.85781  0.56783  0.79572  1.0000
  H   H1503     1.0  0.92095  0.63070  0.75871  1.0000
  H   H1504     1.0  0.94929  0.62436  0.79063  1.0000
  H   H1505     1.0  0.67380  0.96202  0.76212  1.0000
  C   C1899     1.0  0.73534  0.51722  0.89250  1.0000
  C   C1900     1.0  0.96470  0.75956  0.57254  1.0000
  C   C1901     1.0  0.83942  0.67194  0.59763  1.0000
  C   C1902     1.0  0.82435  0.65025  0.58149  1.0000
  C   C1903     1.0  0.81179  0.62633  0.59435  1.0000
  C   C1904     1.0  0.81418  0.62370  0.62344  1.0000
  C   C1905     1.0  0.82924  0.64537  0.63956  1.0000
  C   C1906     1.0  0.84165  0.66932  0.62675  1.0000
  H   H1506     1.0  0.82237  0.65189  0.55911  1.0000
  H   H1507     1.0  0.80022  0.60972  0.58163  1.0000
  H   H1508     1.0  0.83146  0.64362  0.66186  1.0000
  H   H1509     1.0  0.85324  0.68593  0.63946  1.0000
  H   H1510     1.0  0.85073  0.50338  0.65423  1.0000
  S   S267      1.0  0.87528  0.70189  0.50240  1.0000
  H   H1511     1.0  0.78287  0.75308  0.58266  1.0000
  C   C1907     1.0  0.79643  0.83640  0.68241  1.0000
  H   H1512     1.0  0.67475  0.54986  0.84250  1.0000
  C   C1908     1.0  0.85531  0.51443  0.67346  1.0000
  H   H1513     1.0  0.69225  0.85274  0.59467  1.0000
  C   C1909     1.0  0.69415  0.56085  0.84889  1.0000
  H   H1514     1.0  0.80701  0.50995  0.63353  1.0000
  C   C1910     1.0  0.85677  0.50393  0.69902  1.0000
  C   C1911     1.0  0.73529  0.56564  0.85254  1.0000
  H   H1515     1.0  0.70230  0.53215  0.83677  1.0000
  C   C1912     1.0  0.83088  0.87432  0.66354  1.0000
  H   H1516     1.0  0.86988  0.55379  0.74220  1.0000
  C   C1913     1.0  0.80826  0.70732  0.62629  1.0000
  C   C1914     1.0  0.70607  0.66852  0.69571  1.0000
  C   C1915     1.0  0.70339  0.58511  0.86006  1.0000
  C   C1916     1.0  0.71245  0.78884  0.57381  1.0000
  H   H1517     1.0  0.68757  0.66100  0.68673  1.0000
  C   C1917     1.0  0.79784  0.85928  0.54602  1.0000
  H   H1518     1.0  0.66385  0.72295  0.98929  1.0000
  C   C1918     1.0  0.75542  0.54046  0.88427  1.0000
  C   C1919     1.0  0.74405  0.52786  0.82327  1.0000
  H   H1519     1.0  0.79895  0.54508  0.64047  1.0000
  C   C1920     1.0  0.84432  0.50958  0.78176  1.0000
  C   C1921     1.0  0.70719  0.75039  0.64143  1.0000
  S   S268      1.0  0.82804  0.71171  0.50910  1.0000
  H   H1520     1.0  0.76243  0.94348  0.82092  1.0000
  H   H1521     1.0  0.93110  0.50638  0.81557  1.0000
  H   H1522     1.0  0.81784  0.50675  0.74976  1.0000
  C   C1922     1.0  0.71418  0.68651  0.71736  1.0000
  C   C1923     1.0  0.97675  0.53837  0.92992  1.0000
  H   H1523     1.0  0.86650  0.51307  0.81879  1.0000
  C   C1924     1.0  0.67167  0.90646  0.74823  1.0000
  H   H1524     1.0  0.98876  0.52983  0.86316  1.0000
  H   H1525     1.0  0.98436  0.60120  0.95471  1.0000
  C   C1925     1.0  0.81872  0.85913  0.68652  1.0000
  S   S269      1.0  0.70499  0.86993  0.49875  1.0000
  H   H1526     1.0  0.76367  0.60118  0.87059  1.0000
  C   C1926     1.0  0.77443  0.55499  0.90387  1.0000
  C   C1927     1.0  0.72292  0.92571  0.82665  1.0000
  C   C1928     1.0  0.97614  0.80092  0.50074  1.0000
  H   H1527     1.0  0.70192  0.69284  0.72521  1.0000
  C   C1929     1.0  0.79208  0.97890  0.53254  1.0000
  H   H1528     1.0  0.67430  0.82465  0.73777  1.0000
  C   C1930     1.0  0.69971  0.79429  0.59401  1.0000
  P   P63       1.0  0.86368  0.50479  0.75756  1.0000
  H   H1529     1.0  0.68232  0.85812  0.64382  1.0000
  H   H1530     1.0  0.73853  0.93362  0.90656  1.0000
  C   C1931     1.0  0.78839  0.50662  0.63010  1.0000
  C   C1932     1.0  0.67343  0.94440  0.76592  1.0000
  H   H1531     1.0  0.68704  0.95117  0.86302  1.0000
  C   C1933     1.0  0.93918  0.74540  0.57806  1.0000
  P   P64       1.0  0.67168  0.90297  0.83428  1.0000
  H   H1532     1.0  0.90866  0.55540  0.75081  1.0000
  C   C1934     1.0  0.79794  0.69619  0.65197  1.0000
  H   H1533     1.0  0.69715  0.75724  0.68214  1.0000
  C   C1935     1.0  0.72772  0.51325  0.77603  1.0000
  C   C1936     1.0  0.80728  0.51208  0.79070  1.0000
  H   H1534     1.0  0.68503  0.86844  0.86305  1.0000
  P   P65       1.0  0.78518  0.83440  0.59735  1.0000
  C   C1937     1.0  0.91312  0.54409  0.76438  1.0000
  H   H1535     1.0  0.77566  0.59946  0.81769  1.0000
  H   H1536     1.0  0.75676  0.53844  0.63340  1.0000
  C   C1938     1.0  0.77596  0.67077  0.60155  1.0000
  C   C1939     1.0  0.80516  0.90156  0.53865  1.0000
  C   C1940     1.0  0.89517  0.51931  0.77146  1.0000
  C   C1941     1.0  0.92515  0.75732  0.58046  1.0000
  H   H1537     1.0  0.96240  0.54995  0.80264  1.0000
  H   H1538     1.0  0.72694  0.76206  0.64550  1.0000
  C   C1942     1.0  0.97582  0.78581  0.56920  1.0000
  C   C1943     1.0  0.66796  0.93810  0.86835  1.0000
  C   C1944     1.0  0.93729  0.55497  0.77546  1.0000
  C   C1945     1.0  0.79743  0.69450  0.60111  1.0000
  C   C1946     1.0  0.80375  0.87955  0.52815  1.0000
  H   H1539     1.0  0.75362  0.51546  0.95980  1.0000
  H   H1540     1.0  0.67106  0.89481  0.73067  1.0000
  H   H1541     1.0  0.72215  0.49625  0.61863  1.0000
  C   C1947     1.0  0.67800  0.55913  0.77555  1.0000
  C   C1948     1.0  0.86532  0.55333  0.69753  1.0000
  C   C1949     1.0  0.85966  0.53915  0.67271  1.0000
  C   C1950     1.0  0.86625  0.54272  0.72312  1.0000
  H   H1542     1.0  0.70233  0.77627  0.55636  1.0000
  H   H1543     1.0  0.79021  0.88424  0.60654  1.0000
  C   C1951     1.0  0.74436  0.58984  0.86421  1.0000
  H   H1544     1.0  0.95089  0.57434  0.77057  1.0000
  H   H1545     1.0  0.97150  0.55212  0.92388  1.0000
  C   C1952     1.0  0.75411  0.52242  0.93876  1.0000
  H   H1546     1.0  0.86857  0.57249  0.69716  1.0000
  H   H1547     1.0  0.85848  0.54734  0.65299  1.0000
  H   H1548     1.0  0.80602  0.70277  0.58128  1.0000
  C   C1953     1.0  0.75326  0.93984  0.86478  1.0000
  H   H1549     1.0  0.84471  0.58304  0.83700  1.0000
  C   C1954     1.0  0.74652  0.50646  0.82690  1.0000
  C   C1955     1.0  0.84998  0.51263  0.81065  1.0000
  H   H1550     1.0  0.78861  0.55712  0.94597  1.0000
  H   H1551     1.0  0.80101  0.51739  0.83381  1.0000
  C   C1956     1.0  0.67642  0.80617  0.70028  1.0000
  C   C1957     1.0  0.93634  0.78341  0.57701  1.0000
  H   H1552     1.0  0.79410  0.75123  0.50349  1.0000
  H   H1553     1.0  0.92529  0.79251  0.57829  1.0000
  C   C1958     1.0  0.71287  0.81182  0.61541  1.0000
  C   C1959     1.0  0.78671  0.95820  0.51485  1.0000
  H   H1554     1.0  0.80041  0.91989  0.57460  1.0000
  C   C1960     1.0  0.79798  0.84440  0.63229  1.0000
  C   C1961     1.0  0.95853  0.51319  0.93401  1.0000
  H   H1555     1.0  0.76770  0.66081  0.58199  1.0000
  C   C1962     1.0  0.73418  0.93138  0.88424  1.0000
  C   C1963     1.0  0.79459  0.88295  0.58490  1.0000
  C   C1964     1.0  0.82078  0.82569  0.57306  1.0000
  C   C1965     1.0  0.92604  0.51675  0.80108  1.0000
  H   H1556     1.0  0.83177  0.84593  0.57038  1.0000
  H   H1557     1.0  0.82670  0.86488  0.70746  1.0000
  H   H1558     1.0  0.74792  0.79654  0.55911  1.0000
  H   H1559     1.0  0.74874  0.83819  0.63266  1.0000
  H   H1560     1.0  0.78717  0.82448  0.70019  1.0000
  C   C1966     1.0  0.95002  0.63556  0.88759  1.0000
  H   H1561     1.0  0.67332  0.93586  0.72199  1.0000
  C   C1967     1.0  0.70365  0.91735  0.84608  1.0000
  H   H1562     1.0  0.71897  0.92364  0.80428  1.0000
  H   H1563     1.0  0.94988  0.66659  0.86671  1.0000
  C   C1968     1.0  0.86235  0.51808  0.72410  1.0000
  C   C1969     1.0  0.70945  0.92010  0.87497  1.0000
  H   H1564     1.0  0.79578  0.84201  0.53737  1.0000
  H   H1565     1.0  0.80664  0.70636  0.67128  1.0000
  H   H1566     1.0  0.84063  0.51592  0.55055  1.0000
  C   C1970     1.0  0.78392  0.52659  0.63418  1.0000
  C   C1971     1.0  0.70996  0.55106  0.84527  1.0000
  H   H1567     1.0  0.84820  0.81897  0.55391  1.0000
  C   C1972     1.0  0.79708  0.81467  0.58488  1.0000
  C   C1973     1.0  0.76561  0.65956  0.62719  1.0000
  C   C1974     1.0  0.77717  0.67172  0.65265  1.0000
  H   H1568     1.0  0.93912  0.50735  0.93079  1.0000
  P   P66       1.0  0.76473  0.65688  0.68599  1.0000
  C   C1975     1.0  0.74536  0.66905  0.69803  1.0000
  C   C1976     1.0  0.74641  0.62294  0.68262  1.0000
  C   C1977     1.0  0.75338  0.60997  0.66388  1.0000
  C   C1978     1.0  0.73865  0.58381  0.66047  1.0000
  C   C1979     1.0  0.71740  0.57027  0.67654  1.0000
  C   C1980     1.0  0.71098  0.58289  0.69621  1.0000
  C   C1981     1.0  0.72553  0.60910  0.69944  1.0000
  C   C1982     1.0  0.75367  0.68766  0.71922  1.0000
  C   C1983     1.0  0.73802  0.69619  0.72897  1.0000
  C   C1984     1.0  0.69861  0.73819  0.61542  1.0000
  C   C1985     1.0  0.96043  0.67607  0.60850  1.0000
  C   C1986     1.0  0.72164  0.65993  0.68594  1.0000
  C   C1987     1.0  0.78892  0.66239  0.71121  1.0000
  C   C1988     1.0  0.78314  0.65734  0.73971  1.0000
  C   C1989     1.0  0.80147  0.66067  0.75935  1.0000
  C   C1990     1.0  0.82566  0.66881  0.75064  1.0000
  C   C1991     1.0  0.83144  0.67335  0.72221  1.0000
  C   C1992     1.0  0.81309  0.66988  0.70252  1.0000
  H   H1569     1.0  0.68719  0.82369  0.68907  1.0000
  H   H1570     1.0  0.74890  0.64124  0.62699  1.0000
  C   C1993     1.0  0.74069  0.49919  0.62160  1.0000
  H   H1571     1.0  0.77022  0.62003  0.65189  1.0000
  H   H1572     1.0  0.74416  0.57401  0.64583  1.0000
  H   H1573     1.0  0.70632  0.54992  0.67431  1.0000
  H   H1574     1.0  0.69495  0.57235  0.70931  1.0000
  H   H1575     1.0  0.72060  0.61839  0.71538  1.0000
  H   H1576     1.0  0.77210  0.69545  0.72838  1.0000
  S   S270      1.0  0.99093  0.57979  0.86944  1.0000
  H   H1577     1.0  0.97030  0.81781  0.56821  1.0000
  H   H1578     1.0  0.71505  0.64585  0.66927  1.0000
  H   H1579     1.0  0.76428  0.65004  0.74669  1.0000
  H   H1580     1.0  0.79660  0.65601  0.78115  1.0000
  H   H1581     1.0  0.83973  0.67081  0.76573  1.0000
  H   H1582     1.0  0.84994  0.67874  0.71527  1.0000
  H   H1583     1.0  0.81774  0.67244  0.68054  1.0000
  H   H1584     1.0  0.83057  0.87866  0.61884  1.0000
  H   H1585     1.0  0.79973  0.49716  0.57293  1.0000
  H   H1586     1.0  0.76912  0.81108  0.65242  1.0000
  H   H1587     1.0  0.93369  0.62129  0.87635  1.0000
  C   C1994     1.0  0.96256  0.62832  0.90656  1.0000
  H   H1588     1.0  0.84833  0.89179  0.66665  1.0000
  H   H1589     1.0  0.70298  0.81687  0.63021  1.0000
  C   C1995     1.0  0.73515  0.53139  0.79745  1.0000
  C   C1996     1.0  0.96166  0.79763  0.57139  1.0000
  C   C1997     1.0  0.80039  0.90318  0.56695  1.0000
  H   H1590     1.0  0.73559  0.61842  0.87634  1.0000
  C   C1998     1.0  0.66801  0.85731  0.85113  1.0000
  C   C1999     1.0  0.67375  0.57673  0.78993  1.0000
  S   S271      1.0  0.75478  0.80392  0.50120  1.0000
  C   C2000     1.0  0.77718  0.77475  0.50187  1.0000
  P   P67       1.0  0.75547  0.55250  0.84973  1.0000
  C   C2001     1.0  0.67312  0.72314  0.61012  1.0000
  C   C2002     1.0  0.72848  0.59959  0.86775  1.0000
  H   H1591     1.0  0.76589  0.77961  0.59907  1.0000
  H   H1592     1.0  0.73439  0.54842  0.79368  1.0000
  C   C2003     1.0  0.79380  0.86102  0.57464  1.0000
  C   C2004     1.0  0.67497  0.83872  0.60380  1.0000
  C   C2005     1.0  0.78646  0.57520  0.83895  1.0000
  C   C2006     1.0  0.79065  0.59595  0.82258  1.0000
  C   C2007     1.0  0.81406  0.61176  0.81130  1.0000
  C   C2008     1.0  0.83353  0.60711  0.81654  1.0000
  C   C2009     1.0  0.82962  0.58670  0.83319  1.0000
  C   C2010     1.0  0.80611  0.57064  0.84411  1.0000
  C   C2011     1.0  0.94376  0.54131  0.79373  1.0000
  H   H1593     1.0  0.75874  0.75931  0.50603  1.0000
  C   C2012     1.0  0.66850  0.78307  0.68662  1.0000
  H   H1594     1.0  0.78417  0.97542  0.55326  1.0000
  H   H1595     1.0  0.83913  0.51825  0.85158  1.0000
  H   H1596     1.0  0.82512  0.72558  0.62580  1.0000
  C   C2013     1.0  0.75168  0.81777  0.59704  1.0000
  H   H1597     1.0  0.81684  0.62710  0.79772  1.0000
  H   H1598     1.0  0.85151  0.61896  0.80718  1.0000
  C   C2014     1.0  0.74763  0.93695  0.83601  1.0000
  H   H1599     1.0  0.80319  0.55443  0.85613  1.0000
  C   C2015     1.0  0.83034  0.81055  0.56408  1.0000
  C   C2016     1.0  0.81664  0.78441  0.56746  1.0000
  C   C2017     1.0  0.79343  0.77336  0.58010  1.0000
  C   C2018     1.0  0.78378  0.78845  0.58908  1.0000
  C   C2019     1.0  0.81308  0.51522  0.81939  1.0000
  H   H1600     1.0  0.78954  0.57349  0.89845  1.0000
  C   C2020     1.0  0.79719  0.77008  0.50038  1.0000
  H   H1601     1.0  0.69484  0.91356  0.89032  1.0000
  H   H1602     1.0  0.72111  0.51622  0.75603  1.0000
  H   H1603     1.0  0.74431  0.71014  0.74576  1.0000
  C   C2021     1.0  0.67243  0.93607  0.79347  1.0000
  H   H1604     1.0  0.94914  0.70554  0.66213  1.0000
  C   C2022     1.0  0.67090  0.91277  0.79863  1.0000
  H   H1605     1.0  0.80909  0.91706  0.52467  1.0000
  C   C2023     1.0  0.98072  0.67953  0.89601  1.0000
  C   C2024     1.0  0.99044  0.50315  0.94617  1.0000
  H   H1606     1.0  0.96137  0.80353  0.50862  1.0000
  H   H1607     1.0  0.80651  0.87792  0.50600  1.0000
  C   C2025     1.0  0.66899  0.80672  0.72771  1.0000
  C   C2026     1.0  0.96401  0.72225  0.62206  1.0000
  C   C2027     1.0  0.95672  0.72122  0.52023  1.0000
  H   H1608     1.0  0.94145  0.72272  0.52862  1.0000
  H   H1609     1.0  0.66242  0.54065  0.77046  1.0000
  H   H1610     1.0  0.72000  0.50620  0.87805  1.0000
  H   H1611     1.0  0.66560  0.96510  0.89544  1.0000
  Fe  Fe136     1.0  0.74265  0.83402  0.50028  1.0000
  H   H1612     1.0  0.96538  0.74008  0.62767  1.0000
  H   H1613     1.0  0.66753  0.73242  0.73725  1.0000
  H   H1614     1.0  0.75447  0.50388  0.84606  1.0000
  C   C2028     1.0  0.90183  0.50581  0.79013  1.0000
  S   S272      1.0  0.66415  0.81279  0.55250  1.0000
  H   H1615     1.0  0.79071  0.51180  0.78286  1.0000
  C   C2029     1.0  0.83533  0.50084  0.56557  1.0000
  C   C2030     1.0  0.73481  0.50815  0.91958  1.0000
  H   H1616     1.0  0.67070  0.99110  0.82732  1.0000
  H   H1617     1.0  0.86948  0.50022  0.56210  1.0000
  C   C2031     1.0  0.98416  0.64668  0.92031  1.0000
  H   H1618     1.0  0.66143  0.69931  0.77101  1.0000
  H   H1619     1.0  0.66648  0.71369  0.58995  1.0000
  C   C2032     1.0  0.95488  0.70277  0.64167  1.0000
  H   H1620     1.0  0.98803  0.69918  0.89078  1.0000
  C   C2033     1.0  0.66460  0.73318  0.65660  1.0000
  H   H1621     1.0  0.67038  0.88044  0.77906  1.0000
  H   H1622     1.0  0.98673  0.71119  0.94771  1.0000
  H   H1623     1.0  0.69816  0.76695  0.98970  1.0000
  C   C2034     1.0  0.97931  0.73081  0.53515  1.0000
  H   H1624     1.0  0.98505  0.66525  0.97401  1.0000
  C   C2035     1.0  0.96537  0.49559  0.94219  1.0000
  H   H1625     1.0  0.97513  0.69233  0.56849  1.0000
  H   H1626     1.0  0.98689  0.54165  0.99588  1.0000
  C   C2036     1.0  0.67096  0.89821  0.77576  1.0000
  H   H1627     1.0  0.66519  0.82208  0.86350  1.0000
  H   H1628     1.0  0.94589  0.66457  0.65010  1.0000
  C   C2037     1.0  0.95305  0.67967  0.63489  1.0000
  C   C2038     1.0  0.97123  0.71870  0.59539  1.0000
  H   H1629     1.0  0.95903  0.65816  0.60329  1.0000
  C   C2039     1.0  0.96952  0.69550  0.58879  1.0000
  P   P68       1.0  0.98272  0.74389  0.57011  1.0000
  H   H1630     1.0  0.98967  0.75290  0.95094  1.0000
  H   H1631     1.0  0.67039  0.99180  0.68457  1.0000
  C   C2040     1.0  0.78082  0.79924  0.49833  1.0000
  H   H1632     1.0  0.73187  0.94117  0.49852  1.0000
