data_image0
_chemical_formula_structural       FeCHCSH2CSH3C3FeCHCH2CHCHSC5HCHCH2CHC3H6CHC2SCHCSCH2CHC2HCHC3HC3HCPH3CHSC6H2C2H2CH4CH2CH2CHSCFeCH2CSH2C2PCH2C2SHCHCH2C3H2CHC4HFeC2H2C2PCHCHC5H2C3HC2FeH3C2SHCHC2H2C2H2CSCHCH2CFeCH2CHCSHC2SC3HC2H3CHC7H3C4HC7HC3PHFeH2PHCSHCH2CH3CSCH2CHC2H4C2SC5HC3HC2H2C3HCHC4HCH2C2PH2CHPHC2H3FeH2CHC2H3CHC2HC2H4PH3CHC5SFeS2CHCSC2FeHCSPC3H2CH2SCSCHC2HC4HC4H3C5HFeH4C2HCH5C2HC2HC7HCHFeH3CHSCHCH2FeS2FeHFeSC3H2C2H2C2HC2H3C5H5C4SHC3HSH3C5HCHC2HSHCS2HCSHCFe2C3SHSFe2CSHCHCHC4HC3HC3HCH2CHPHC2HSCHFeH4C3HCHCH2C2SCHC3H2SHC3HC2SHC3H5CH2C2HCHC2HC2
_chemical_formula_sum              "Fe20 C300 H240 S40 P10"
_cell_length_a       28.2545
_cell_length_b       29.8383
_cell_length_c       28.0066
_cell_angle_alpha    89.8768
_cell_angle_beta     85.6088
_cell_angle_gamma    100.991

_space_group_name_H-M_alt    "P 1"
_space_group_IT_number       1

loop_
  _space_group_symop_operation_xyz
  'x, y, z'

loop_
  _atom_site_type_symbol
  _atom_site_label
  _atom_site_symmetry_multiplicity
  _atom_site_fract_x
  _atom_site_fract_y
  _atom_site_fract_z
  _atom_site_occupancy
  Fe  Fe1       1.0  0.21307  0.02361  0.04034  1.0000
  C   C1        1.0  0.05253  0.02391  0.25381  1.0000
  H   H1        1.0  0.09129  0.03521  0.24767  1.0000
  C   C2        1.0  0.99675  0.29719  0.00891  1.0000
  S   S1        1.0  0.36212  0.00027  0.12141  1.0000
  H   H2        1.0  0.17853  0.98153  0.24226  1.0000
  H   H3        1.0  0.47220  0.04033  0.04290  1.0000
  C   C3        1.0  0.02522  0.00725  0.21579  1.0000
  S   S2        1.0  0.22991  0.02156  0.11749  1.0000
  H   H4        1.0  0.04350  0.00667  0.18046  1.0000
  H   H5        1.0  0.34485  0.11617  0.22242  1.0000
  H   H6        1.0  0.03063  0.07641  0.02110  1.0000
  C   C4        1.0  0.46502  0.06964  0.02379  1.0000
  C   C5        1.0  0.33934  0.08037  0.23248  1.0000
  C   C6        1.0  0.14043  0.97016  0.31258  1.0000
  Fe  Fe2       1.0  0.28747  0.98164  0.09196  1.0000
  C   C7        1.0  0.36570  0.01797  0.27140  1.0000
  H   H7        1.0  0.10762  0.05192  0.03549  1.0000
  C   C8        1.0  0.03019  0.02468  0.30002  1.0000
  H   H8        1.0  0.45819  0.02193  0.15155  1.0000
  H   H9        1.0  0.03799  0.24392  0.01550  1.0000
  C   C9        1.0  0.45573  0.99065  0.13174  1.0000
  H   H10       1.0  0.27247  0.06302  0.19914  1.0000
  C   C10       1.0  0.41729  0.07167  0.01560  1.0000
  H   H11       1.0  0.16837  0.99240  0.33020  1.0000
  S   S3        1.0  0.27389  0.98859  0.01454  1.0000
  C   C11       1.0  0.29166  0.00374  0.23092  1.0000
  C   C12       1.0  0.37298  0.06422  0.25858  1.0000
  C   C13       1.0  0.29853  0.05026  0.21912  1.0000
  C   C14       1.0  0.32517  0.98730  0.25727  1.0000
  C   C15       1.0  0.10754  0.07919  0.00999  1.0000
  H   H12       1.0  0.05162  0.03609  0.32977  1.0000
  C   C16       1.0  0.00334  0.25405  0.02319  1.0000
  H   H13       1.0  0.38809  0.04435  0.02878  1.0000
  C   C17       1.0  0.41180  0.97167  0.11268  1.0000
  H   H14       1.0  0.40456  0.08757  0.26906  1.0000
  H   H15       1.0  0.26042  0.98077  0.21931  1.0000
  C   C18       1.0  0.99095  0.96997  0.03457  1.0000
  H   H16       1.0  0.39159  0.00628  0.29259  1.0000
  C   C19       1.0  0.98559  0.13786  0.63999  1.0000
  C   C20       1.0  0.10409  0.06979  0.64251  1.0000
  C   C21       1.0  0.12618  0.03242  0.63299  1.0000
  H   H17       1.0  0.27836  0.99497  0.34234  1.0000
  H   H18       1.0  0.12566  0.01768  0.59762  1.0000
  H   H19       1.0  0.08610  0.08368  0.61466  1.0000
  H   H20       1.0  0.99323  0.16942  0.61929  1.0000
  H   H21       1.0  0.21721  0.98460  0.41091  1.0000
  H   H22       1.0  0.98648  0.09518  0.57744  1.0000
  C   C22       1.0  0.14742  0.01327  0.66943  1.0000
  H   H23       1.0  0.16350  0.98360  0.66218  1.0000
  C   C23       1.0  0.00227  0.40777  0.70892  1.0000
  C   C24       1.0  0.15033  0.13714  0.95355  1.0000
  S   S4        1.0  0.00758  0.14662  0.96272  1.0000
  C   C25       1.0  0.16629  0.17543  0.81156  1.0000
  H   H24       1.0  0.00298  0.35115  0.75680  1.0000
  C   C26       1.0  0.14608  0.04720  0.86677  1.0000
  S   S5        1.0  0.01822  0.24282  0.84870  1.0000
  C   C27       1.0  0.24391  0.06406  0.83397  1.0000
  H   H25       1.0  0.05773  0.10958  0.87038  1.0000
  H   H26       1.0  0.22184  0.09363  0.77132  1.0000
  C   C28       1.0  0.17384  0.22314  0.81197  1.0000
  H   H27       1.0  0.04209  0.01629  0.75311  1.0000
  C   C29       1.0  0.10660  0.15073  0.94485  1.0000
  C   C30       1.0  0.02912  0.02806  0.78715  1.0000
  H   H28       1.0  0.98444  0.98430  0.00066  1.0000
  C   C31       1.0  0.99292  0.05825  0.87418  1.0000
  H   H29       1.0  0.06145  0.15511  0.75596  1.0000
  C   C32       1.0  0.10264  0.22127  0.76890  1.0000
  C   C33       1.0  0.14237  0.24610  0.79007  1.0000
  C   C34       1.0  0.14619  0.03123  0.71551  1.0000
  H   H30       1.0  0.10885  0.04147  0.88121  1.0000
  C   C35       1.0  0.06326  0.12913  0.96945  1.0000
  C   C36       1.0  0.15110  0.10168  0.98653  1.0000
  C   C37       1.0  0.16061  0.06874  0.82197  1.0000
  H   H31       1.0  0.20400  0.24231  0.82949  1.0000
  C   C38       1.0  0.04809  0.46258  0.77924  1.0000
  P   P1        1.0  0.11751  0.08852  0.78646  1.0000
  H   H32       1.0  0.02624  0.32068  0.98996  1.0000
  H   H33       1.0  0.16059  0.01428  0.74365  1.0000
  H   H34       1.0  0.04442  0.39962  0.81847  1.0000
  C   C39       1.0  0.03761  0.08058  0.85291  1.0000
  H   H35       1.0  0.10657  0.17850  0.91996  1.0000
  S   S6        1.0  0.98521  0.19326  0.71879  1.0000
  C   C40       1.0  0.09404  0.17357  0.76995  1.0000
  C   C41       1.0  0.05672  0.06462  0.81000  1.0000
  C   C42       1.0  0.22905  0.04291  0.87861  1.0000
  C   C43       1.0  0.18010  0.03367  0.89446  1.0000
  C   C44       1.0  0.44485  0.14373  0.97322  1.0000
  C   C45       1.0  0.03638  0.41517  0.78576  1.0000
  H   H36       1.0  0.25536  0.03399  0.90135  1.0000
  H   H37       1.0  0.28194  0.07127  0.82178  1.0000
  C   C46       1.0  0.12686  0.15018  0.78938  1.0000
  C   C47       1.0  0.12505  0.06961  0.72527  1.0000
  H   H38       1.0  0.14813  0.28304  0.79029  1.0000
  H   H39       1.0  0.07758  0.23893  0.75265  1.0000
  C   C48       1.0  0.20980  0.07660  0.80553  1.0000
  H   H40       1.0  0.19102  0.15880  0.82930  1.0000
  H   H41       1.0  0.18385  0.15452  0.93510  1.0000
  H   H42       1.0  0.16880  0.01762  0.92933  1.0000
  H   H43       1.0  0.03362  0.97621  0.91304  1.0000
  C   C49       1.0  0.01304  0.38780  0.75093  1.0000
  H   H44       1.0  0.29161  0.96880  0.82549  1.0000
  H   H45       1.0  0.98978  0.44691  0.92825  1.0000
  C   C50       1.0  0.01472  0.45513  0.70184  1.0000
  H   H46       1.0  0.08458  0.11616  0.69450  1.0000
  H   H47       1.0  0.43689  0.17224  0.95334  1.0000
  C   C51       1.0  0.10350  0.08834  0.68829  1.0000
  H   H48       1.0  0.98425  0.38645  0.68191  1.0000
  S   S7        1.0  0.20724  0.08731  0.99815  1.0000
  C   C52       1.0  0.98408  0.00644  0.80799  1.0000
  Fe  Fe3       1.0  0.98408  0.18791  0.90305  1.0000
  C   C53       1.0  0.40711  0.10883  0.99068  1.0000
  H   H49       1.0  0.36992  0.11034  0.98479  1.0000
  H   H50       1.0  0.26364  0.96606  0.74347  1.0000
  C   C54       1.0  0.06393  0.09316  0.00177  1.0000
  S   S8        1.0  0.23739  0.91367  0.10177  1.0000
  H   H51       1.0  0.21061  0.90486  0.26473  1.0000
  H   H52       1.0  0.48095  0.91832  0.21828  1.0000
  C   C55       1.0  0.27475  0.83179  0.17627  1.0000
  C   C56       1.0  0.99873  0.72394  0.21971  1.0000
  P   P2        1.0  0.31423  0.92845  0.27736  1.0000
  C   C57       1.0  0.40847  0.92300  0.24496  1.0000
  H   H53       1.0  0.15909  0.72955  0.06278  1.0000
  H   H54       1.0  0.19367  0.81234  0.06605  1.0000
  C   C58       1.0  0.22908  0.88485  0.24005  1.0000
  C   C59       1.0  0.08834  0.73669  0.09270  1.0000
  S   S9        1.0  0.11630  0.92553  0.17700  1.0000
  H   H55       1.0  0.05807  0.83734  0.12841  1.0000
  C   C60       1.0  0.20149  0.85203  0.21282  1.0000
  H   H56       1.0  0.29245  0.81165  0.15102  1.0000
  C   C61       1.0  0.99599  0.73059  0.26922  1.0000
  H   H57       1.0  0.14265  0.86555  0.09999  1.0000
  H   H58       1.0  0.37503  0.91558  0.07321  1.0000
  C   C62       1.0  0.06192  0.92049  0.31614  1.0000
  C   C63       1.0  0.98659  0.67762  0.06056  1.0000
  C   C64       1.0  0.15640  0.79949  0.07917  1.0000
  H   H59       1.0  0.01043  0.69370  0.20568  1.0000
  H   H60       1.0  0.07421  0.70049  0.09105  1.0000
  C   C65       1.0  0.44895  0.90911  0.08233  1.0000
  H   H61       1.0  0.04008  0.89210  0.24862  1.0000
  C   C66       1.0  0.40863  0.93075  0.08785  1.0000
  C   C67       1.0  0.27732  0.92246  0.33359  1.0000
  C   C68       1.0  0.06828  0.91374  0.26642  1.0000
  C   C69       1.0  0.13688  0.75291  0.07729  1.0000
  H   H62       1.0  0.44590  0.87723  0.06345  1.0000
  Fe  Fe4       1.0  0.21882  0.92354  0.02626  1.0000
  C   C70       1.0  0.27980  0.89072  0.23653  1.0000
  C   C71       1.0  0.07955  0.81352  0.11358  1.0000
  H   H63       1.0  0.16236  0.84782  0.21588  1.0000
  H   H64       1.0  0.40179  0.94074  0.21305  1.0000
  C   C72       1.0  0.38179  0.88946  0.32363  1.0000
  C   C73       1.0  0.05886  0.76736  0.10909  1.0000
  P   P3        1.0  0.99495  0.74937  0.12463  1.0000
  C   C74       1.0  0.12782  0.82958  0.09792  1.0000
  H   H65       1.0  0.01068  0.70098  0.03573  1.0000
  C   C75       1.0  0.03473  0.92520  0.08060  1.0000
  H   H66       1.0  0.20286  0.79898  0.16123  1.0000
  C   C76       1.0  0.22429  0.82489  0.18166  1.0000
  C   C77       1.0  0.42696  0.87723  0.32657  1.0000
  C   C78       1.0  0.37212  0.91218  0.28258  1.0000
  C   C79       1.0  0.30248  0.86475  0.20335  1.0000
  C   C80       1.0  0.02664  0.94361  0.03673  1.0000
  H   H67       1.0  0.34137  0.86909  0.19860  1.0000
  H   H68       1.0  0.00479  0.70535  0.29316  1.0000
  C   C81       1.0  0.00810  0.93396  0.12252  1.0000
  C   C82       1.0  0.98282  0.77025  0.28786  1.0000
  C   C83       1.0  0.11055  0.93529  0.23949  1.0000
  H   H69       1.0  0.06236  0.90480  0.08235  1.0000
  C   C84       1.0  0.46266  0.88761  0.28866  1.0000
  C   C85       1.0  0.45339  0.91048  0.24786  1.0000
  Fe  Fe5       1.0  0.17888  0.95366  0.12203  1.0000
  H   H70       1.0  0.01497  0.91958  0.15631  1.0000
  H   H71       1.0  0.02039  0.80584  0.03664  1.0000
  H   H72       1.0  0.02907  0.90392  0.33633  1.0000
  C   C86       1.0  0.98393  0.80792  0.05012  1.0000
  C   C87       1.0  0.98729  0.75654  0.18855  1.0000
  S   S10       1.0  0.15751  0.95897  0.04630  1.0000
  H   H73       1.0  0.98294  0.62185  0.01176  1.0000
  C   C88       1.0  0.14641  0.96396  0.26272  1.0000
  H   H74       1.0  0.26511  0.84858  0.33418  1.0000
  C   C89       1.0  0.09816  0.94855  0.33961  1.0000
  C   C90       1.0  0.08663  0.89831  0.65121  1.0000
  H   H75       1.0  0.17941  0.90730  0.44108  1.0000
  H   H76       1.0  0.10179  0.88806  0.61717  1.0000
  C   C91       1.0  0.09198  0.56960  0.63200  1.0000
  C   C92       1.0  0.25630  0.87862  0.35169  1.0000
  H   H77       1.0  0.20707  0.51777  0.64087  1.0000
  H   H78       1.0  0.19397  0.55566  0.56533  1.0000
  C   C93       1.0  0.05178  0.92586  0.65197  1.0000
  S   S11       1.0  0.01267  0.91975  0.52449  1.0000
  C   C94       1.0  0.12610  0.57219  0.59266  1.0000
  H   H79       1.0  0.04034  0.93753  0.61891  1.0000
  C   C95       1.0  0.17514  0.53260  0.63852  1.0000
  H   H80       1.0  0.11998  0.58807  0.55942  1.0000
  H   H81       1.0  0.05952  0.58300  0.62801  1.0000
  C   C96       1.0  0.16773  0.55384  0.59595  1.0000
  Fe  Fe6       1.0  0.01954  0.94144  0.44672  1.0000
  C   C97       1.0  0.26388  0.96078  0.35600  1.0000
  H   H82       1.0  0.00671  0.47010  0.66885  1.0000
  H   H83       1.0  0.43433  0.85963  0.35825  1.0000
  C   C98       1.0  0.20783  0.91143  0.41218  1.0000
  H   H84       1.0  0.20444  0.83930  0.40366  1.0000
  C   C99       1.0  0.22175  0.87318  0.39085  1.0000
  S   S12       1.0  0.09245  0.95693  0.40246  1.0000
  H   H85       1.0  0.35484  0.88126  0.35345  1.0000
  C   C100      1.0  0.22924  0.95515  0.39509  1.0000
  C   C101      1.0  0.17647  0.91069  0.85032  1.0000
  S   S13       1.0  0.06266  0.69026  0.93599  1.0000
  C   C102      1.0  0.05780  0.88908  0.84225  1.0000
  C   C103      1.0  0.12875  0.59519  0.77693  1.0000
  C   C104      1.0  0.14676  0.61687  0.81789  1.0000
  H   H86       1.0  0.13011  0.63349  0.89150  1.0000
  C   C105      1.0  0.18489  0.77903  0.95872  1.0000
  C   C106      1.0  0.06387  0.93226  0.86331  1.0000
  H   H87       1.0  0.14580  0.73466  0.84726  1.0000
  H   H88       1.0  0.05039  0.78629  0.94818  1.0000
  H   H89       1.0  0.04464  0.59395  0.89340  1.0000
  C   C107      1.0  0.07030  0.74266  0.76018  1.0000
  H   H90       1.0  0.04978  0.63754  0.70231  1.0000
  C   C108      1.0  0.05027  0.57191  0.82032  1.0000
  C   C109      1.0  0.08080  0.89624  0.73835  1.0000
  C   C110      1.0  0.22360  0.93250  0.85784  1.0000
  C   C111      1.0  0.06833  0.59370  0.86108  1.0000
  C   C112      1.0  0.10244  0.74192  0.94675  1.0000
  C   C113      1.0  0.08780  0.78424  0.95161  1.0000
  C   C114      1.0  0.10119  0.88355  0.69424  1.0000
  H   H91       1.0  0.04837  0.80365  0.73823  1.0000
  H   H92       1.0  0.16250  0.70719  0.94755  1.0000
  H   H93       1.0  0.15295  0.89518  0.88072  1.0000
  C   C115      1.0  0.03071  0.93783  0.69552  1.0000
  C   C116      1.0  0.19219  0.92870  0.76554  1.0000
  C   C117      1.0  0.12193  0.82391  0.96120  1.0000
  C   C118      1.0  0.09972  0.81738  0.79263  1.0000
  H   H94       1.0  0.11083  0.85656  0.96469  1.0000
  C   C119      1.0  0.04497  0.92299  0.73854  1.0000
  C   C120      1.0  0.16040  0.90831  0.80398  1.0000
  C   C121      1.0  0.07112  0.78956  0.76124  1.0000
  C   C122      1.0  0.00530  0.57029  0.71419  1.0000
  C   C123      1.0  0.15088  0.73961  0.95112  1.0000
  C   C124      1.0  0.12576  0.75020  0.82254  1.0000
  C   C125      1.0  0.17078  0.82123  0.96442  1.0000
  H   H95       1.0  0.12794  0.86188  0.69316  1.0000
  C   C126      1.0  0.11655  0.61609  0.85993  1.0000
  C   C127      1.0  0.08042  0.57207  0.77810  1.0000
  C   C128      1.0  0.25506  0.95219  0.81938  1.0000
  P   P4        1.0  0.10017  0.87798  0.79413  1.0000
  H   H96       1.0  0.14800  0.81735  0.84936  1.0000
  Fe  Fe7       1.0  0.99285  0.68367  0.89980  1.0000
  H   H97       1.0  0.18119  0.92765  0.72948  1.0000
  H   H98       1.0  0.23583  0.93403  0.89364  1.0000
  P   P5        1.0  0.05560  0.54370  0.72619  1.0000
  H   H99       1.0  0.09572  0.68640  0.79094  1.0000
  C   C129      1.0  0.12677  0.79724  0.82365  1.0000
  S   S14       1.0  0.21701  0.86973  0.96925  1.0000
  H   H100      1.0  0.01257  0.55521  0.82156  1.0000
  C   C130      1.0  0.09763  0.72296  0.79077  1.0000
  H   H101      1.0  0.02724  0.93182  0.77167  1.0000
  H   H102      1.0  0.04816  0.93742  0.00458  1.0000
  C   C131      1.0  0.02880  0.94265  0.89727  1.0000
  H   H103      1.0  0.00991  0.82332  0.83889  1.0000
  H   H104      1.0  0.15252  0.59709  0.74459  1.0000
  H   H105      1.0  0.18396  0.63482  0.81698  1.0000
  C   C132      1.0  0.01601  0.85650  0.85547  1.0000
  S   S15       1.0  0.98567  0.66108  0.82359  1.0000
  C   C133      1.0  0.01353  0.61736  0.70367  1.0000
  H   H106      1.0  0.04709  0.72152  0.73667  1.0000
  H   H107      1.0  0.22250  0.77676  0.96043  1.0000
  C   C134      1.0  0.23925  0.95062  0.77329  1.0000
  H   H108      1.0  0.14696  0.51281  0.71051  1.0000
  C   C135      1.0  0.98715  0.91013  0.91006  1.0000
  C   C136      1.0  0.03709  0.48297  0.73727  1.0000
  H   H109      1.0  0.06575  0.48284  0.80707  1.0000
  H   H110      1.0  0.09513  0.95823  0.85256  1.0000
  H   H111      1.0  0.98406  0.84483  0.70068  1.0000
  H   H112      1.0  0.00272  0.95812  0.69562  1.0000
  C   C137      1.0  0.14113  0.52999  0.67792  1.0000
  C   C138      1.0  0.09969  0.54916  0.67526  1.0000
  S   S16       1.0  0.74379  0.07007  0.09991  1.0000
  C   C139      1.0  0.89788  0.36066  0.10992  1.0000
  C   C140      1.0  0.81733  0.40260  0.12190  1.0000
  C   C141      1.0  0.96453  0.22297  0.04532  1.0000
  C   C142      1.0  0.57150  0.09336  0.08082  1.0000
  C   C143      1.0  0.90612  0.09445  0.13745  1.0000
  H   H113      1.0  0.71432  0.15421  0.14480  1.0000
  C   C144      1.0  0.85699  0.01245  0.18086  1.0000
  C   C145      1.0  0.90622  0.01739  0.16584  1.0000
  C   C146      1.0  0.95269  0.99419  0.27001  1.0000
  H   H114      1.0  0.78365  0.35169  0.07458  1.0000
  C   C147      1.0  0.95142  0.30934  0.01691  1.0000
  C   C148      1.0  0.74013  0.18173  0.12675  1.0000
  H   H115      1.0  0.78940  0.18764  0.18228  1.0000
  H   H116      1.0  0.92923  0.34464  0.10635  1.0000
  C   C149      1.0  0.80894  0.25024  0.07796  1.0000
  C   C150      1.0  0.85676  0.08878  0.15145  1.0000
  C   C151      1.0  0.61474  0.08290  0.09513  1.0000
  H   H117      1.0  0.64373  0.07882  0.06878  1.0000
  C   C152      1.0  0.81676  0.23475  0.12358  1.0000
  H   H118      1.0  0.82301  0.13913  0.06375  1.0000
  C   C153      1.0  0.53505  0.09939  0.11589  1.0000
  C   C154      1.0  0.54123  0.09354  0.16445  1.0000
  C   C155      1.0  0.58392  0.08208  0.17834  1.0000
  C   C156      1.0  0.62071  0.07704  0.14372  1.0000
  H   H119      1.0  0.82293  0.00995  0.31760  1.0000
  C   C157      1.0  0.91905  0.23489  0.05320  1.0000
  H   H120      1.0  0.83744  0.98131  0.19832  1.0000
  H   H121      1.0  0.79410  0.04364  0.18447  1.0000
  C   C158      1.0  0.73136  0.19784  0.08205  1.0000
  C   C159      1.0  0.83237  0.04797  0.17350  1.0000
  P   P6        1.0  0.85384  0.29473  0.04780  1.0000
  H   H122      1.0  0.78610  0.41879  0.12663  1.0000
  H   H123      1.0  0.83718  0.11584  0.14525  1.0000
  C   C160      1.0  0.76316  0.09008  0.04109  1.0000
  H   H124      1.0  0.88929  0.03851  0.02844  1.0000
  P   P7        1.0  0.56442  0.10086  0.01799  1.0000
  H   H125      1.0  0.93110  0.41159  0.15775  1.0000
  C   C161      1.0  0.91228  0.27845  0.03948  1.0000
  C   C162      1.0  0.81607  0.36467  0.09243  1.0000
  H   H126      1.0  0.85980  0.44901  0.16813  1.0000
  H   H127      1.0  0.58854  0.07698  0.21590  1.0000
  H   H128      1.0  0.65385  0.06827  0.15456  1.0000
  Fe  Fe8       1.0  0.71114  0.99527  0.10867  1.0000
  H   H129      1.0  0.84959  0.24887  0.14025  1.0000
  H   H130      1.0  0.52980  0.98443  0.14054  1.0000
  C   C163      1.0  0.78267  0.20035  0.14765  1.0000
  H   H131      1.0  0.51262  0.09736  0.19128  1.0000
  C   C164      1.0  0.76533  0.23234  0.05797  1.0000
  C   C165      1.0  0.85884  0.41963  0.14529  1.0000
  H   H132      1.0  0.75735  0.24454  0.02385  1.0000
  H   H133      1.0  0.92513  0.12621  0.12068  1.0000
  H   H134      1.0  0.91387  0.98361  0.27690  1.0000
  C   C166      1.0  0.80319  0.12578  0.03376  1.0000
  H   H135      1.0  0.88928  0.20941  0.06835  1.0000
  C   C167      1.0  0.85654  0.34378  0.08577  1.0000
  C   C168      1.0  0.93097  0.05909  0.14519  1.0000
  H   H136      1.0  0.69864  0.18283  0.06569  1.0000
  C   C169      1.0  0.89902  0.39858  0.13940  1.0000
  C   C170      1.0  0.81172  0.97322  0.31708  1.0000
  H   H137      1.0  0.62982  0.26682  0.01164  1.0000
  H   H138      1.0  0.76688  0.97469  0.25797  1.0000
  H   H139      1.0  0.56928  0.00637  0.04649  1.0000
  H   H140      1.0  0.93581  0.99800  0.07381  1.0000
  P   P8        1.0  0.93853  0.97188  0.17517  1.0000
  H   H141      1.0  0.96944  0.18891  0.05443  1.0000
  H   H142      1.0  0.50165  0.10826  0.10610  1.0000
  H   H143      1.0  0.96938  0.06407  0.13476  1.0000
  C   C171      1.0  0.97513  0.99153  0.22382  1.0000
  H   H144      1.0  0.57063  0.19754  0.03852  1.0000
  C   C172      1.0  0.98025  0.01001  0.30804  1.0000
  C   C173      1.0  0.96395  0.97843  0.07640  1.0000
  C   C174      1.0  0.49630  0.96937  0.12566  1.0000
  C   C175      1.0  0.60169  0.19432  0.01449  1.0000
  C   C176      1.0  0.57374  0.00962  0.00782  1.0000
  S   S17       1.0  0.86649  0.97357  0.39421  1.0000
  Fe  Fe9       1.0  0.96566  0.97220  0.53885  1.0000
  S   S18       1.0  0.96862  0.00051  0.61520  1.0000
  S   S19       1.0  0.97881  0.99830  0.46232  1.0000
  C   C177      1.0  0.97187  0.05473  0.64241  1.0000
  H   H145      1.0  0.96279  0.01069  0.34385  1.0000
  C   C178      1.0  0.98168  0.09580  0.61611  1.0000
  S   S20       1.0  0.90778  0.24503  0.81775  1.0000
  C   C179      1.0  0.57771  0.05348  0.93422  1.0000
  C   C180      1.0  0.84795  0.10701  0.76715  1.0000
  Fe  Fe10      1.0  0.88260  0.19037  0.87455  1.0000
  H   H146      1.0  0.93218  0.00356  0.86857  1.0000
  C   C181      1.0  0.90747  0.44479  0.82386  1.0000
  S   S21       1.0  0.93694  0.14776  0.85078  1.0000
  P   P9        1.0  0.81500  0.98906  0.84805  1.0000
  C   C182      1.0  0.96664  0.44608  0.89910  1.0000
  C   C183      1.0  0.85694  0.98309  0.98485  1.0000
  C   C184      1.0  0.92235  0.40433  0.83764  1.0000
  H   H147      1.0  0.91111  0.37297  0.81880  1.0000
  H   H148      1.0  0.70186  0.26028  0.95726  1.0000
  C   C185      1.0  0.67585  0.22994  0.96906  1.0000
  H   H149      1.0  0.80129  0.15255  0.74905  1.0000
  H   H150      1.0  0.52134  0.16858  0.96632  1.0000
  S   S22       1.0  0.92750  0.22757  0.92914  1.0000
  C   C186      1.0  0.80355  0.12103  0.76722  1.0000
  S   S23       1.0  0.80485  0.15560  0.89210  1.0000
  C   C187      1.0  0.84483  0.35499  0.97360  1.0000
  H   H151      1.0  0.73367  0.03584  0.83586  1.0000
  C   C188      1.0  0.68354  0.18698  0.95454  1.0000
  C   C189      1.0  0.83917  0.30913  0.98856  1.0000
  H   H152      1.0  0.72836  0.10663  0.79273  1.0000
  C   C190      1.0  0.57417  0.05141  0.98451  1.0000
  C   C191      1.0  0.82603  0.27457  0.95545  1.0000
  C   C192      1.0  0.81711  0.28548  0.90885  1.0000
  C   C193      1.0  0.82194  0.33112  0.89461  1.0000
  H   H153      1.0  0.73105  0.08000  0.92616  1.0000
  C   C194      1.0  0.95200  0.40465  0.87552  1.0000
  C   C195      1.0  0.83576  0.36583  0.92698  1.0000
  C   C196      1.0  0.58200  0.97328  0.93117  1.0000
  C   C197      1.0  0.76243  0.09500  0.79169  1.0000
  H   H154      1.0  0.58501  0.01648  0.86890  1.0000
  H   H155      1.0  0.80777  0.25846  0.88342  1.0000
  H   H156      1.0  0.81640  0.33967  0.85809  1.0000
  C   C198      1.0  0.60801  0.15121  0.99821  1.0000
  C   C199      1.0  0.96588  0.05633  0.69268  1.0000
  C   C200      1.0  0.96639  0.02102  0.85188  1.0000
  C   C201      1.0  0.87696  0.02857  0.99365  1.0000
  C   C202      1.0  0.76564  0.05487  0.81616  1.0000
  H   H157      1.0  0.87993  0.12765  0.74871  1.0000
  Fe  Fe11      1.0  0.95750  0.27987  0.87127  1.0000
  H   H158      1.0  0.82350  0.23913  0.96527  1.0000
  H   H159      1.0  0.84864  0.17186  0.98285  1.0000
  H   H160      1.0  0.88461  0.44404  0.79450  1.0000
  H   H161      1.0  0.70645  0.04581  0.00727  1.0000
  C   C203      1.0  0.75143  0.09262  0.95612  1.0000
  C   C204      1.0  0.49275  0.14176  0.98121  1.0000
  H   H162      1.0  0.57659  0.08506  0.91557  1.0000
  C   C205      1.0  0.79109  0.12884  0.94900  1.0000
  H   H163      1.0  0.86093  0.07679  0.88811  1.0000
  H   H164      1.0  0.71571  0.18401  0.93193  1.0000
  H   H165      1.0  0.95792  0.02480  0.71322  1.0000
  H   H166      1.0  0.84127  0.40128  0.91534  1.0000
  H   H167      1.0  0.89507  0.09713  0.96472  1.0000
  C   C206      1.0  0.84086  0.00431  0.90450  1.0000
  C   C207      1.0  0.63525  0.23358  0.99954  1.0000
  H   H168      1.0  0.88622  0.05705  0.79195  1.0000
  C   C208      1.0  0.81009  0.04038  0.81594  1.0000
  C   C209      1.0  0.85133  0.06698  0.79161  1.0000
  H   H169      1.0  0.97870  0.06994  0.90789  1.0000
  C   C210      1.0  0.86080  0.04993  0.91396  1.0000
  C   C211      1.0  0.87962  0.06178  0.95792  1.0000
  C   C212      1.0  0.57783  0.97084  0.98116  1.0000
  C   C213      1.0  0.81754  0.14465  0.98782  1.0000
  C   C214      1.0  0.65005  0.14771  0.96940  1.0000
  C   C215      1.0  0.97943  0.13939  0.69029  1.0000
  C   C216      1.0  0.83944  0.97099  0.94032  1.0000
  H   H170      1.0  0.84057  0.98719  0.74384  1.0000
  C   C217      1.0  0.58214  0.01464  0.90768  1.0000
  H   H171      1.0  0.94664  0.34241  0.00418  1.0000
  Fe  Fe12      1.0  0.96623  0.20458  0.79813  1.0000
  H   H172      1.0  0.96572  0.09887  0.75521  1.0000
  H   H173      1.0  0.96303  0.97837  0.79001  1.0000
  H   H174      1.0  0.74390  0.97510  0.93272  1.0000
  C   C218      1.0  0.96983  0.09829  0.71654  1.0000
  H   H175      1.0  0.65741  0.11482  0.95856  1.0000
  S   S24       1.0  0.97294  0.35501  0.89416  1.0000
  C   C219      1.0  0.73768  0.07301  0.00200  1.0000
  H   H176      1.0  0.85770  0.38258  0.99714  1.0000
  C   C220      1.0  0.50308  0.10513  0.00755  1.0000
  H   H177      1.0  0.89624  0.76640  0.13813  1.0000
  H   H178      1.0  0.49757  0.87794  0.29081  1.0000
  Fe  Fe13      1.0  0.70390  0.91265  0.17399  1.0000
  S   S25       1.0  0.66493  0.86554  0.12032  1.0000
  S   S26       1.0  0.72311  0.87941  0.24153  1.0000
  Fe  Fe14      1.0  0.71949  0.90388  0.06531  1.0000
  H   H179      1.0  0.61129  0.71918  0.02213  1.0000
  Fe  Fe15      1.0  0.62130  0.92056  0.11022  1.0000
  S   S27       1.0  0.54216  0.89870  0.09362  1.0000
  C   C221      1.0  0.96242  0.78431  0.09212  1.0000
  C   C222      1.0  0.93830  0.66172  0.13610  1.0000
  C   C223      1.0  0.76441  0.90597  0.28261  1.0000
  H   H180      1.0  0.92375  0.56833  0.06497  1.0000
  H   H181      1.0  0.62456  0.85786  0.02319  1.0000
  C   C224      1.0  0.97249  0.80332  0.25702  1.0000
  C   C225      1.0  0.91413  0.78569  0.10686  1.0000
  H   H182      1.0  0.92916  0.90390  0.25441  1.0000
  H   H183      1.0  0.79754  0.85189  0.14818  1.0000
  C   C226      1.0  0.76789  0.79486  0.03238  1.0000
  C   C227      1.0  0.78101  0.87883  0.31644  1.0000
  H   H184      1.0  0.74314  0.79954  0.06257  1.0000
  C   C228      1.0  0.86110  0.90259  0.15876  1.0000
  C   C229      1.0  0.83049  0.83774  0.21187  1.0000
  H   H185      1.0  0.80311  0.80784  0.22180  1.0000
  H   H186      1.0  0.77299  0.72661  0.05394  1.0000
  H   H187      1.0  0.92456  0.67267  0.17036  1.0000
  C   C230      1.0  0.49303  0.92823  0.10108  1.0000
  C   C231      1.0  0.86767  0.85254  0.24161  1.0000
  C   C232      1.0  0.82725  0.86273  0.17044  1.0000
  C   C233      1.0  0.88830  0.81148  0.08070  1.0000
  C   C234      1.0  0.64812  0.67561  0.05983  1.0000
  H   H188      1.0  0.62621  0.67705  0.09309  1.0000
  H   H189      1.0  0.86934  0.83377  0.27440  1.0000
  H   H190      1.0  0.85812  0.92167  0.12656  1.0000
  H   H191      1.0  0.89441  0.59423  0.14420  1.0000
  H   H192      1.0  0.96357  0.83451  0.27167  1.0000
  C   C235      1.0  0.92088  0.61726  0.12127  1.0000
  C   C236      1.0  0.93720  0.60269  0.07663  1.0000
  C   C237      1.0  0.91041  0.83607  0.03986  1.0000
  C   C238      1.0  0.78457  0.75348  0.02725  1.0000
  S   S28       1.0  0.76135  0.94696  0.11892  1.0000
  H   H193      1.0  0.69086  0.63101  0.08878  1.0000
  C   C239      1.0  0.68432  0.64954  0.05741  1.0000
  C   C240      1.0  0.89735  0.91868  0.18946  1.0000
  C   C241      1.0  0.90111  0.89284  0.23047  1.0000
  H   H194      1.0  0.85076  0.81169  0.09150  1.0000
  S   S29       1.0  0.67348  0.95519  0.05083  1.0000
  H   H195      1.0  0.76876  0.84221  0.31674  1.0000
  H   H196      1.0  0.96801  0.82340  0.18420  1.0000
  H   H197      1.0  0.85345  0.95733  0.01295  1.0000
  C   C242      1.0  0.97022  0.63285  0.04645  1.0000
  C   C243      1.0  0.97484  0.79670  0.20750  1.0000
  C   C244      1.0  0.78006  0.95332  0.28307  1.0000
  C   C245      1.0  0.97351  0.96180  0.12095  1.0000
  C   C246      1.0  0.95811  0.83399  0.02442  1.0000
  H   H198      1.0  0.98133  0.77579  0.32619  1.0000
  C   C247      1.0  0.97235  0.69183  0.10631  1.0000
  H   H199      1.0  0.89015  0.85589  0.01971  1.0000
  C   C248      1.0  0.71262  0.64787  0.01460  1.0000
  C   C249      1.0  0.64025  0.70004  0.01946  1.0000
  H   H200      1.0  0.74145  0.62843  0.01283  1.0000
  S   S30       1.0  0.65594  0.96470  0.16822  1.0000
  H   H201      1.0  0.82560  0.87742  0.37592  1.0000
  C   C250      1.0  0.91092  0.75010  0.62754  1.0000
  S   S31       1.0  0.92456  0.80129  0.54314  1.0000
  S   S32       1.0  0.89668  0.92430  0.52393  1.0000
  H   H202      1.0  0.97401  0.85889  0.61504  1.0000
  C   C251      1.0  0.93160  0.79231  0.60492  1.0000
  S   S33       1.0  0.95493  0.88957  0.42868  1.0000
  H   H203      1.0  0.89042  0.72352  0.60709  1.0000
  C   C252      1.0  0.95788  0.82636  0.63183  1.0000
  Fe  Fe16      1.0  0.94426  0.87275  0.50848  1.0000
  Fe  Fe17      1.0  0.91339  0.94562  0.44594  1.0000
  C   C253      1.0  0.81336  0.89868  0.34998  1.0000
  C   C254      1.0  0.82851  0.94611  0.35081  1.0000
  C   C255      1.0  0.94157  0.77690  0.70355  1.0000
  S   S34       1.0  0.86923  0.66003  0.84371  1.0000
  H   H204      1.0  0.88598  0.93976  0.69406  1.0000
  S   S35       1.0  0.93076  0.62980  0.92925  1.0000
  Fe  Fe18      1.0  0.92001  0.61058  0.85318  1.0000
  Fe  Fe19      1.0  0.88569  0.68279  0.91829  1.0000
  C   C256      1.0  0.79511  0.78914  0.82678  1.0000
  S   S36       1.0  0.94866  0.73763  0.89437  1.0000
  H   H205      1.0  0.90964  0.86598  0.81889  1.0000
  C   C257      1.0  0.83078  0.78151  0.95335  1.0000
  H   H206      1.0  0.85434  0.77633  0.92242  1.0000
  C   C258      1.0  0.81456  0.82302  0.95879  1.0000
  H   H207      1.0  0.54389  0.58508  0.89548  1.0000
  C   C259      1.0  0.56707  0.83507  0.97769  1.0000
  C   C260      1.0  0.77059  0.81822  0.85366  1.0000
  C   C261      1.0  0.81529  0.74634  0.98726  1.0000
  C   C262      1.0  0.72982  0.80027  0.88422  1.0000
  H   H208      1.0  0.54455  0.85793  0.99292  1.0000
  C   C263      1.0  0.59324  0.64776  0.90786  1.0000
  C   C264      1.0  0.77846  0.74202  0.82998  1.0000
  C   C265      1.0  0.92197  0.48617  0.84759  1.0000
  H   H209      1.0  0.82280  0.93592  0.93465  1.0000
  C   C266      1.0  0.73725  0.72396  0.85987  1.0000
  C   C267      1.0  0.89528  0.89335  0.80319  1.0000
  C   C268      1.0  0.97489  0.63872  0.69519  1.0000
  H   H210      1.0  0.75405  0.92635  0.78773  1.0000
  C   C269      1.0  0.68491  0.92408  0.91304  1.0000
  H   H211      1.0  0.59269  0.64052  0.94581  1.0000
  H   H212      1.0  0.78374  0.85470  0.85172  1.0000
  C   C270      1.0  0.85648  0.96196  0.76138  1.0000
  H   H213      1.0  0.88246  0.54761  0.71378  1.0000
  P   P10       1.0  0.65746  0.72920  0.92354  1.0000
  H   H214      1.0  0.82716  0.80291  0.80362  1.0000
  C   C271      1.0  0.56534  0.61623  0.87943  1.0000
  C   C272      1.0  0.90057  0.90005  0.75359  1.0000
  H   H215      1.0  0.95961  0.91832  0.93588  1.0000
  S   S37       1.0  0.90168  0.53609  0.82875  1.0000
  C   C273      1.0  0.55065  0.80509  0.94165  1.0000
  H   H216      1.0  0.82621  0.84985  0.93213  1.0000
  Fe  Fe20      1.0  0.93612  0.71175  0.81966  1.0000
  H   H217      1.0  0.63066  0.87297  0.88413  1.0000
  H   H218      1.0  0.51559  0.80519  0.92850  1.0000
  H   H219      1.0  0.59274  0.67153  0.77159  1.0000
  H   H220      1.0  0.86670  0.91473  0.87025  1.0000
  C   C274      1.0  0.87086  0.92121  0.83214  1.0000
  C   C275      1.0  0.62145  0.68802  0.88724  1.0000
  C   C276      1.0  0.95174  0.48652  0.88536  1.0000
  H   H221      1.0  0.96320  0.51792  0.90407  1.0000
  C   C277      1.0  0.75587  0.95340  0.85946  1.0000
  H   H222      1.0  0.72879  0.67173  0.94222  1.0000
  C   C278      1.0  0.91919  0.56684  0.70947  1.0000
  H   H223      1.0  0.89781  0.71077  0.69411  1.0000
  H   H224      1.0  0.79762  0.71949  0.80920  1.0000
  C   C279      1.0  0.78229  0.82943  0.99766  1.0000
  C   C280      1.0  0.68998  0.89726  0.83171  1.0000
  S   S38       1.0  0.83200  0.69261  0.97971  1.0000
  C   C281      1.0  0.71264  0.75291  0.88752  1.0000
  H   H225      1.0  0.71247  0.82358  0.90552  1.0000
  C   C282      1.0  0.66510  0.89595  0.87693  1.0000
  C   C283      1.0  0.70540  0.67285  0.97436  1.0000
  C   C284      1.0  0.98092  0.86699  0.88939  1.0000
  H   H226      1.0  0.64178  0.72762  0.82138  1.0000
  H   H227      1.0  0.54373  0.60018  0.80833  1.0000
  S   S39       1.0  0.94602  0.77170  0.76633  1.0000
  H   H228      1.0  0.94971  0.50977  0.72882  1.0000
  C   C285      1.0  0.96331  0.81838  0.68051  1.0000
  C   C286      1.0  0.59282  0.66493  0.80965  1.0000
  C   C287      1.0  0.64026  0.80394  0.97713  1.0000
  H   H229      1.0  0.67463  0.87558  0.80360  1.0000
  C   C288      1.0  0.62350  0.77279  0.94183  1.0000
  C   C289      1.0  0.62073  0.69655  0.83797  1.0000
  S   S40       1.0  0.75875  0.88003  0.99959  1.0000
  H   H230      1.0  0.72450  0.68735  0.86103  1.0000
  C   C290      1.0  0.66933  0.69942  0.97644  1.0000
  C   C291      1.0  0.56521  0.62474  0.83034  1.0000
  C   C292      1.0  0.57871  0.77405  0.92369  1.0000
  H   H231      1.0  0.56461  0.75046  0.89666  1.0000
  H   H232      1.0  0.89766  0.62997  0.69233  1.0000
  H   H233      1.0  0.94862  0.84166  0.89917  1.0000
  H   H234      1.0  0.58455  0.94300  0.91069  1.0000
  H   H235      1.0  0.91889  0.87820  0.73117  1.0000
  C   C293      1.0  0.73512  0.92600  0.82290  1.0000
  H   H236      1.0  0.57722  0.93879  0.99957  1.0000
  H   H237      1.0  0.66603  0.92284  0.94829  1.0000
  C   C294      1.0  0.92774  0.61340  0.69803  1.0000
  C   C295      1.0  0.95773  0.54533  0.71773  1.0000
  H   H238      1.0  0.98122  0.67505  0.68720  1.0000
  C   C296      1.0  0.61205  0.83481  0.99501  1.0000
  H   H239      1.0  0.67452  0.80341  0.99189  1.0000
  C   C297      1.0  0.72967  0.95333  0.90418  1.0000
  C   C298      1.0  0.85117  0.95591  0.81154  1.0000
  H   H240      1.0  0.97505  0.85200  0.99222  1.0000
  C   C299      1.0  0.91547  0.74255  0.67675  1.0000
  C   C300      1.0  0.88163  0.93458  0.73272  1.0000
