data_image0
_chemical_formula_structural       Fe2S2FeS2FeSFeCS2CFeSH2SHFeSHFe2SCSFeS2FeHCFeSFeCS2HC3H5C2H2CSHC8H4C6H4C6H4C7H2C4H3CHCH3C4HC4H2CHC6HC3PC13H12CH2C2H2CPH2CH3SC2H3C3PC4PC7HCH3SH5CH3CHCH2CHCH2SHC3H2C2H3C2HCHCHC5HSC2H2SCHCH4CH2CH3CHC5PC4HCHC4HC2H3CSCH2C2H3C4HC2HC2HCH2CPCH3CSCH2CH2CH2CH2CSHC3H2C4H2C2HCHCPHCH2C4HCHC3H2SCHSH3C4HFeS2FeSHFeSFeSHFeS2FeS2Fe2S3HFeS2HCHSCHCHFeS2FeSFeHS2C7HC2HC3HC2SC9H4C6H4CHC3HC6H4SH2C2HCH2CH6C2H3C2SH2CHCHCHCH2C2H2C2HCHCHC4HC2H3C2H2C5H2SC2H2CSHC2H2C6PC18H20C2HFeC5PC5H2CHCH3CH3CS2PC6PC13H10C2H6C3HC3PC8H2C8H14CHCH2CH2C2HCHCH2PHCSC3H3C2HFeHC2H2CH2C3SCHCH2CHCH2C2H3C3SCHFeS2FeS2FeSFeS3H2C6H4C6HCH2C4SHSC6H4C2H3C5H2C3H2CPC2H2CFeC12H2C3HC2H8CH2C2H2C2H2CH2CHCPH2CHCHCH4C2HCH3SCH2CHCH2C2HC3HC3H5CHC4H2SH3CH3CHC3SC6PC18H2CH3C2H12C3FeC3HC2PC5FeHCSH3CHCH2CSC2HCHCSH2C3H3CH3C4H2SFeS2FeSFeCFeS2FeS2FeSFeS3CHC4HC2HC7H4C6H4C6H4C6H4CHC4H2PH4SC4HCH2C2H3CSCH4C3HC3H3C2HC2H2C2HPC2HSHCSC6PC4H2C12H8CH8C2HCFeC2H2PCSCHC7H2CHCHCH10CH2C6PC18H20CHCHC2HC5PCH4C12FeH4CH2CH6CHC6PC2HCPC3HCH5C2HSCHC2FeC3SHCHSCHC2H2C2HC2H2C2H3CHCH2SCH2SCSH2SCFeSFeSCHFeS2FeS2FeSFeS3C7H4C2HCHCH3C6H5CHCHC11H4C2HCHCHC2HCHC7PC13H2CHCH2CFeH7CHCSC2HC2H3PC4H3SC7HC2H3C2PC2HCHCH2C2H6C5H3CH2C3H2C2HC4FeC5PHC2H3CH3C7HC2HC2H3CHCH5C6PC3HC7HC6H9CH2C2H4CH2CFeH3PC11HCHFeH2CHC2H3CH2C4HC2H6C3SH2C3HCH2C2HC3HFeH7CH3C3HS2C4SCH2PFeS2FeCHFeSHCS2FeS2FeS2FeSFeS3C6H5C6H3C6H5C2H2C4H2CHC2H2C4HCSC4PC8HCHC8HCHCH7C3H5C3H4C4H3SC2SC2H4C2HCHCSCHC2H3CH3C2H2C2H3CH3C2SHCHC2PC2H3CHPC7HCHC8H2CH3CH3CH2C2PFeH3C2HC4HC2H5SCHCHCHC6HCHC2HC3HC2HC4HFeHSH2C2H3FeCH2CHCH2CH6CSHFeSHCSCFeS2CFeHCFeS2FeSFeS2FeSFeS2FeSFeS3FeS2C2FeH2CS2C2H3C10H6C6H5CHC3HCH2C6H4PC3H4PCSC4H4CS2C2HCH5CHCHCH2CHCHCH2PH3CH2C2HC8H11CHCFeH2C6PC19H11CSH6C2HC2H2SC3HC8HCH3CHCH5C6PC15H17C2PC5HC8H2CH5CHSC2HFeSFeHCSC8H2CH2SC7FeCH3C2FeC2HCHCHSCHCHSHFeSFeS2FeSFeS3FeS3FeSFeCS2CS2H2CHFeS2C3FeSFeS3HCPSHCHC7H2C3PHCH3CHC4HC2H4C8HC6H4C6H4C6H4CHC2HCHC6PC7H3C4H3CH5CH2CH7CH2C4HCHC2HCHCHCH3CH2C2HCHC3H2C2HFeCH2SCHCHCHCHSH2CH3CHFeC3SH5CH3CH3C2H3C2H3CHC2H3CHCH2C7PC9HCHC7H10C2H7CH2CH2CHC3H2C2HCH2C7PC4HC5HC3HCHFeC3H2C4SH2CHCHCFeH3CFeS2FeSFeS2FeSFeS3FeHSFeS2FeHFeHS2CSC2SFeCSFeCSFeSPSC2HCHC2SCH2C5H4C6H4C6H4C2SC3SCHC6H4C2HC4PHC7HC2HC2HCH4C2H2C6HC5H2C3H4C10HCH4SCHC2H2C3HCH2S2H2C4HC3H3CH2C8HSH2CH3CHFeC3PC18HC2H17C4HCH3C4H2CH7C6PC18H20C2HCH3CH4PC5HC2HC2H5CH3CHPC4SHCHCH3C2S2HC3H4CHSH2PH2CHC3HCFe2HSC4H6C2HC2HFeS2FeS2FeCFeCS2FeS2FeS2Fe2S3FeHSFe3SHSC3HCH3FeSCSPSH2C3HCH2C4H2C6H4C6H5C3HC3SC8H4C6H3CHCSCHCPC18H2C2H2SCFeH12CH2C2HSC7H3C3HCH2CH9CHCH3C2HC3PC5SPCH2SH3C2H2C2PC14HC2H7SH4CHCHC7H7C2HSC6PC5HC10HCH5C3HCH8C3PC16H14PCHC3H2C2H2SH6CSC5HC3HCHCH2CHC4H2C3H3SC2H2C5H3C2H4C2H2CHC2HC2SCSCS2FeHFeS2FeS2FeS2FeSFeS3C6H3C3HCHC6H4CHC6H3CPHC4H4FeC5H2CHC4H2SHC5H3CH3PH8C4PC6HCH5CH4C3H2C3HFeC2H2CSC7HC2H3C3HC8PC15HC2H7CH8CH3CHC2H2C3H3C8H3C3H2C2H5CHCH2FeC3HCH4CHSCH4CH2CHC2HSHC2HCH2C2H2C2H3C2PHCH3CSC2H2C2HC2HS2FeHSC5SHSCFeS2FeS2FeSFeS3HC4H2CHC2HC2HCH3CH3PH4C7H4C7H4CHFeHC6HC2PC18H4C2H11CHCPC6PC2HC3HC8H3CHCH3CH9C3SH2C3HCH2CH6C2HC2H4CH2C2H3CHC4HCHC2H2C2HCH5CH3CHC6H2CSH2CHCSH3CH4CHC2SC3HC6PC2HCFeC7HCH5FeHC4H2C2HC6SC4HSHC4FeHSCHC2H5CHCHCH2CH2PCHCFeC3H3CH2CH2SHFeS2FeS2FeSFeS3HCFeCS2HSC7H4C6H4C6H4CHC3HCH3C3HC2H3C3HCHPH4C3H2CHFeC2H2CHC2HC5HCHCH3CH2CHC3H5CHCH2C2H4C3H3C4HPH2C5HPC4HSHCH3C5FeHC3HCH2CHCH2CHCH3CH3CHC2SCHC4HCH2C2H2C3HC2HC2SFeCHC4PC18H2CH4CH2C2H2C2HCHCHCFeH2CH4CHCH2CH3C3HC3HSHCHCHC3PHSFeS2FeS2FeSFeS3H4FeCSH2PHSHCHC4FeC4H3C6H4C6H4C7H3CHC4HCH3FeH2C9H2C4HC5HCH2SH4CH3CHSH5PH2C7PC18H20CHCH4C7PC4HC13HCH4C3H14C2HC3HC3H3C2HCSH2CH2CHC2H3CHCHC2HC2H2C2HC4HCH2C2PCHCH2FeHC3H10C6PC14H3C5FeHCSH2C2HSC2HC2H2C3HFeHC2HCHCSHSHCH4C4FeS2CHFeSFeHCFeHSFeS2FeSFeHS2FeS2FeSFeSFeS3CHFeS2FeSHFeSHCSCHCPCHC7H2C7H4C4HCHC8H4C3FeC2HC2HC6H4CH2C2HSHC7PC4HC13H18C2HC4HCH3C3H2C5H2CHCHC3HCHCH2CH2S2CSC7H4C3HC2H2CH3C6H3C3PHC6H3CHSCH3SH2C2HC7PC18H12CH7C4H3PCH5CHCHCHC4H2CH2CHCH5CHCH2SHCHSCHCPHC5H3C3H2CH3C2H2CHC2H2SCFeSHFeSFeSCSH4CHS2FeS2FeS2Fe2S3FeS2FeSHFeCFeS3C2H2CHPHC7SH2CHC6H4C7H4C2H2C6H6CHCSC2H3C6PC16HCH9CH8C2FeCH2C6PC8H2C2SCHCH10CH3C9PC18H20C3H4C3HCH2C2HPC2H3C10HC2SHC2FeCH2CHCH2C2H2C6H2C4H2CHC2H7C2HC5H2CSHCFeH4PH2CSC2H3CH2S2C4H4CH2C2H
_chemical_formula_sum              "Fe192 S384 C2880 H2304 P96"
_cell_length_a       61.1056
_cell_length_b       60.6558
_cell_length_c       60.638
_cell_angle_alpha    79.9478
_cell_angle_beta     80.0458
_cell_angle_gamma    80.2986

_space_group_name_H-M_alt    "P 1"
_space_group_IT_number       1

loop_
  _space_group_symop_operation_xyz
  'x, y, z'

loop_
  _atom_site_type_symbol
  _atom_site_label
  _atom_site_symmetry_multiplicity
  _atom_site_fract_x
  _atom_site_fract_y
  _atom_site_fract_z
  _atom_site_occupancy
  Fe  Fe1       1.0  0.23810  0.26231  0.08159  1.0000
  Fe  Fe2       1.0  0.09614  0.21734  0.20031  1.0000
  S   S1        1.0  0.06987  0.19580  0.21742  1.0000
  S   S2        1.0  0.11343  0.20925  0.16619  1.0000
  Fe  Fe3       1.0  0.09363  0.24045  0.24204  1.0000
  S   S3        1.0  0.06695  0.22076  0.26233  1.0000
  S   S4        1.0  0.10947  0.26635  0.25438  1.0000
  Fe  Fe4       1.0  0.08801  0.19112  0.24738  1.0000
  S   S5        1.0  0.09973  0.15675  0.26583  1.0000
  Fe  Fe5       1.0  0.05141  0.22742  0.23018  1.0000
  C   C1        1.0  0.17285  0.18965  0.37348  1.0000
  S   S6        1.0  0.11557  0.21048  0.22939  1.0000
  S   S7        1.0  0.07673  0.24947  0.21082  1.0000
  C   C2        1.0  0.17742  0.02990  0.15243  1.0000
  Fe  Fe6       1.0  0.21540  0.09860  0.21181  1.0000
  S   S8        1.0  0.17991  0.10642  0.20371  1.0000
  H   H1        1.0  0.18140  0.17940  0.31927  1.0000
  H   H2        1.0  0.21200  0.15218  0.24570  1.0000
  S   S9        1.0  0.21625  0.28542  0.05860  1.0000
  H   H3        1.0  0.21716  0.28048  0.13778  1.0000
  Fe  Fe7       1.0  0.21781  0.22072  0.07794  1.0000
  S   S10       1.0  0.19430  0.24051  0.05465  1.0000
  H   H4        1.0  0.18849  0.12284  0.26326  1.0000
  Fe  Fe8       1.0  0.22378  0.25748  0.03718  1.0000
  Fe  Fe9       1.0  0.18885  0.26639  0.07806  1.0000
  S   S11       1.0  0.15492  0.28346  0.09197  1.0000
  C   C3        1.0  0.20377  0.29432  0.14071  1.0000
  S   S12       1.0  0.21006  0.24528  0.10280  1.0000
  Fe  Fe10      1.0  0.17668  0.25316  0.35483  1.0000
  S   S13       1.0  0.18574  0.28832  0.34548  1.0000
  S   S14       1.0  0.14466  0.24224  0.34943  1.0000
  Fe  Fe11      1.0  0.21977  0.23460  0.37510  1.0000
  H   H5        1.0  0.14783  0.26813  0.47602  1.0000
  C   C4        1.0  0.10694  0.32505  0.20403  1.0000
  Fe  Fe12      1.0  0.19709  0.28210  0.37989  1.0000
  S   S15       1.0  0.18992  0.30652  0.40540  1.0000
  Fe  Fe13      1.0  0.22011  0.27072  0.33365  1.0000
  C   C5        1.0  0.00695  0.32164  0.24824  1.0000
  S   S16       1.0  0.18516  0.24837  0.39018  1.0000
  S   S17       1.0  0.21031  0.23590  0.34088  1.0000
  H   H6        1.0  0.15116  0.19276  0.34836  1.0000
  C   C6        1.0  0.09486  0.21665  0.01652  1.0000
  C   C7        1.0  0.21584  0.34015  0.27341  1.0000
  C   C8        1.0  0.21899  0.31929  0.28757  1.0000
  H   H7        1.0  0.19224  0.13460  0.07687  1.0000
  H   H8        1.0  0.03724  0.15399  0.13558  1.0000
  H   H9        1.0  0.18421  0.17650  0.48345  1.0000
  H   H10       1.0  0.19946  0.35027  0.27430  1.0000
  H   H11       1.0  0.20509  0.31345  0.29949  1.0000
  C   C9        1.0  0.23292  0.22940  0.28369  1.0000
  C   C10       1.0  0.18136  0.31972  0.16568  1.0000
  H   H12       1.0  0.18167  0.05881  0.20346  1.0000
  H   H13       1.0  0.16840  0.29702  0.03863  1.0000
  C   C11       1.0  0.08604  0.11971  0.22666  1.0000
  S   S18       1.0  0.21441  0.18375  0.08828  1.0000
  H   H14       1.0  0.21588  0.13966  0.11475  1.0000
  C   C12       1.0  0.22255  0.28721  0.24064  1.0000
  C   C13       1.0  0.14166  0.26922  0.19918  1.0000
  C   C14       1.0  0.12051  0.25836  0.28011  1.0000
  C   C15       1.0  0.13684  0.27006  0.28462  1.0000
  C   C16       1.0  0.14489  0.26486  0.30560  1.0000
  C   C17       1.0  0.13625  0.24827  0.32235  1.0000
  C   C18       1.0  0.12017  0.23639  0.31769  1.0000
  C   C19       1.0  0.11252  0.24121  0.29655  1.0000
  H   H15       1.0  0.14316  0.28326  0.27193  1.0000
  H   H16       1.0  0.15733  0.27406  0.30903  1.0000
  H   H17       1.0  0.11347  0.22350  0.33052  1.0000
  H   H18       1.0  0.09998  0.23209  0.29321  1.0000
  C   C20       1.0  0.12264  0.14318  0.24888  1.0000
  C   C21       1.0  0.13680  0.12469  0.25856  1.0000
  C   C22       1.0  0.15496  0.11372  0.24494  1.0000
  C   C23       1.0  0.15888  0.12112  0.22162  1.0000
  C   C24       1.0  0.14435  0.13916  0.21196  1.0000
  C   C25       1.0  0.12663  0.15050  0.22555  1.0000
  H   H19       1.0  0.13365  0.11881  0.27656  1.0000
  H   H20       1.0  0.16551  0.09913  0.25235  1.0000
  H   H21       1.0  0.14644  0.14401  0.19384  1.0000
  H   H22       1.0  0.11550  0.16431  0.21778  1.0000
  C   C26       1.0  0.12463  0.23053  0.14622  1.0000
  C   C27       1.0  0.14182  0.22408  0.12914  1.0000
  C   C28       1.0  0.15075  0.24037  0.11233  1.0000
  C   C29       1.0  0.14233  0.26325  0.11225  1.0000
  C   C30       1.0  0.12468  0.26981  0.12897  1.0000
  C   C31       1.0  0.11598  0.25343  0.14618  1.0000
  H   H23       1.0  0.14850  0.20646  0.12903  1.0000
  H   H24       1.0  0.16421  0.23512  0.09944  1.0000
  H   H25       1.0  0.11819  0.28754  0.12895  1.0000
  H   H26       1.0  0.10256  0.25845  0.15926  1.0000
  C   C32       1.0  0.22118  0.28174  0.47045  1.0000
  C   C33       1.0  0.22800  0.27031  0.45167  1.0000
  C   C34       1.0  0.21842  0.27774  0.43174  1.0000
  C   C35       1.0  0.20199  0.29680  0.43039  1.0000
  C   C36       1.0  0.19499  0.30816  0.44925  1.0000
  C   C37       1.0  0.20445  0.30056  0.46933  1.0000
  C   C38       1.0  0.22909  0.30590  0.22555  1.0000
  H   H27       1.0  0.22385  0.26874  0.41740  1.0000
  H   H28       1.0  0.18223  0.32286  0.44833  1.0000
  C   C39       1.0  0.23990  0.19033  0.30159  1.0000
  C   C40       1.0  0.20982  0.14731  0.26384  1.0000
  C   C41       1.0  0.16812  0.18768  0.35227  1.0000
  C   C42       1.0  0.10334  0.23675  0.01657  1.0000
  H   H29       1.0  0.09939  0.27294  0.00532  1.0000
  H   H30       1.0  0.19641  0.26655  0.25284  1.0000
  H   H31       1.0  0.24091  0.11896  0.14197  1.0000
  C   C43       1.0  0.23619  0.18750  0.02137  1.0000
  H   H32       1.0  0.13127  0.08893  0.19972  1.0000
  C   C44       1.0  0.16982  0.36287  0.31694  1.0000
  H   H33       1.0  0.20432  0.22924  0.44133  1.0000
  H   H34       1.0  0.13226  0.32856  0.17528  1.0000
  H   H35       1.0  0.11817  0.15915  0.16011  1.0000
  C   C45       1.0  0.10671  0.11288  0.18306  1.0000
  C   C46       1.0  0.19538  0.21705  0.47688  1.0000
  C   C47       1.0  0.05774  0.12594  0.15305  1.0000
  C   C48       1.0  0.19564  0.05388  0.16925  1.0000
  H   H36       1.0  0.23361  0.27798  0.25235  1.0000
  C   C49       1.0  0.17313  0.23896  0.19824  1.0000
  C   C50       1.0  0.24213  0.04767  0.13316  1.0000
  C   C51       1.0  0.20634  0.07348  0.10849  1.0000
  C   C52       1.0  0.13267  0.15948  0.10333  1.0000
  H   H37       1.0  0.07109  0.20118  0.00406  1.0000
  H   H38       1.0  0.20385  0.34288  0.36694  1.0000
  C   C53       1.0  0.07742  0.21677  0.00425  1.0000
  H   H39       1.0  0.10346  0.27348  0.05762  1.0000
  C   C54       1.0  0.09063  0.23779  0.10622  1.0000
  C   C55       1.0  0.21670  0.38762  0.39660  1.0000
  C   C56       1.0  0.04045  0.13580  0.14034  1.0000
  C   C57       1.0  0.16767  0.18383  0.00707  1.0000
  C   C58       1.0  0.18076  0.17519  0.02421  1.0000
  C   C59       1.0  0.14588  0.32737  0.20630  1.0000
  H   H40       1.0  0.09871  0.20160  0.11052  1.0000
  C   C60       1.0  0.09204  0.25800  0.09129  1.0000
  C   C61       1.0  0.21667  0.21941  0.21336  1.0000
  C   C62       1.0  0.16078  0.25354  0.47626  1.0000
  P   P1        1.0  0.18894  0.21391  0.21163  1.0000
  C   C63       1.0  0.17597  0.20517  0.24021  1.0000
  C   C64       1.0  0.16475  0.18610  0.24570  1.0000
  C   C65       1.0  0.15412  0.18023  0.26781  1.0000
  C   C66       1.0  0.15470  0.19318  0.28453  1.0000
  C   C67       1.0  0.16653  0.21164  0.27938  1.0000
  C   C68       1.0  0.17718  0.21758  0.25733  1.0000
  C   C69       1.0  0.18920  0.19276  0.19408  1.0000
  C   C70       1.0  0.20853  0.17752  0.18872  1.0000
  C   C71       1.0  0.20839  0.16194  0.17431  1.0000
  C   C72       1.0  0.18909  0.16143  0.16515  1.0000
  C   C73       1.0  0.16982  0.17664  0.17039  1.0000
  C   C74       1.0  0.16975  0.19203  0.18499  1.0000
  C   C75       1.0  0.19267  0.23166  0.45669  1.0000
  H   H41       1.0  0.02280  0.32633  0.25014  1.0000
  H   H42       1.0  0.21634  0.04245  0.07711  1.0000
  H   H43       1.0  0.15027  0.24630  0.22848  1.0000
  H   H44       1.0  0.16365  0.17599  0.23297  1.0000
  H   H45       1.0  0.14497  0.16590  0.27194  1.0000
  H   H46       1.0  0.14577  0.18902  0.30143  1.0000
  H   H47       1.0  0.16701  0.22165  0.29238  1.0000
  H   H48       1.0  0.18595  0.23211  0.25350  1.0000
  H   H49       1.0  0.22375  0.17753  0.19545  1.0000
  H   H50       1.0  0.23881  0.19134  0.44262  1.0000
  H   H51       1.0  0.18900  0.14903  0.15432  1.0000
  H   H52       1.0  0.15464  0.17623  0.16371  1.0000
  C   C76       1.0  0.18623  0.08717  0.11546  1.0000
  H   H53       1.0  0.18242  0.11188  0.30496  1.0000
  H   H54       1.0  0.20829  0.06460  0.16822  1.0000
  C   C77       1.0  0.14110  0.25991  0.02141  1.0000
  C   C78       1.0  0.22493  0.21003  0.29628  1.0000
  H   H55       1.0  0.19854  0.18563  0.39465  1.0000
  H   H56       1.0  0.19430  0.16138  0.02190  1.0000
  C   C79       1.0  0.19082  0.36970  0.31554  1.0000
  P   P2        1.0  0.12566  0.23649  0.03257  1.0000
  H   H57       1.0  0.05124  0.07057  0.15675  1.0000
  H   H58       1.0  0.15801  0.34590  0.14951  1.0000
  C   C80       1.0  0.12883  0.32741  0.19341  1.0000
  H   H59       1.0  0.11269  0.09477  0.23833  1.0000
  H   H60       1.0  0.12726  0.27819  0.20858  1.0000
  H   H61       1.0  0.19568  0.29911  0.10686  1.0000
  S   S19       1.0  0.23954  0.08379  0.18405  1.0000
  C   C81       1.0  0.21210  0.17613  0.36186  1.0000
  C   C82       1.0  0.15485  0.25109  0.21044  1.0000
  H   H62       1.0  0.10176  0.20089  0.02591  1.0000
  H   H63       1.0  0.18729  0.17855  0.05716  1.0000
  H   H64       1.0  0.01351  0.13000  0.12432  1.0000
  C   C83       1.0  0.11843  0.32346  0.24052  1.0000
  C   C84       1.0  0.22357  0.24054  0.20446  1.0000
  C   C85       1.0  0.23642  0.01312  0.19679  1.0000
  P   P3        1.0  0.17465  0.32934  0.19308  1.0000
  C   C86       1.0  0.17944  0.35835  0.19060  1.0000
  C   C87       1.0  0.19340  0.31239  0.21147  1.0000
  C   C88       1.0  0.21454  0.31858  0.21117  1.0000
  C   C89       1.0  0.21716  0.02283  0.11056  1.0000
  P   P4        1.0  0.07502  0.14366  0.16126  1.0000
  C   C90       1.0  0.20164  0.28074  0.24085  1.0000
  C   C91       1.0  0.18729  0.29291  0.22591  1.0000
  C   C92       1.0  0.18986  0.36954  0.17021  1.0000
  C   C93       1.0  0.19444  0.39159  0.16893  1.0000
  C   C94       1.0  0.18920  0.40245  0.18806  1.0000
  C   C95       1.0  0.17938  0.39125  0.20854  1.0000
  C   C96       1.0  0.17448  0.36932  0.20982  1.0000
  H   H65       1.0  0.15446  0.20343  0.18907  1.0000
  C   C97       1.0  0.19853  0.30157  0.16190  1.0000
  H   H66       1.0  0.15287  0.32614  0.24045  1.0000
  H   H67       1.0  0.21972  0.33336  0.19998  1.0000
  H   H68       1.0  0.22147  0.24496  0.28090  1.0000
  S   S20       1.0  0.01564  0.24247  0.22522  1.0000
  H   H69       1.0  0.00537  0.18697  0.19615  1.0000
  H   H70       1.0  0.17130  0.28741  0.22608  1.0000
  H   H71       1.0  0.19524  0.36122  0.15539  1.0000
  H   H72       1.0  0.22393  0.35163  0.09763  1.0000
  H   H73       1.0  0.20059  0.13016  0.32902  1.0000
  C   C98       1.0  0.10530  0.10381  0.22372  1.0000
  H   H74       1.0  0.16756  0.36073  0.22602  1.0000
  H   H75       1.0  0.15223  0.03446  0.20645  1.0000
  H   H76       1.0  0.20808  0.29302  0.17510  1.0000
  C   C99       1.0  0.11676  0.15702  0.14302  1.0000
  H   H77       1.0  0.23161  0.16948  0.26914  1.0000
  C   C100      1.0  0.21498  0.38580  0.37430  1.0000
  H   H78       1.0  0.19924  0.23617  0.00507  1.0000
  H   H79       1.0  0.14922  0.16690  0.12912  1.0000
  C   C101      1.0  0.17528  0.24983  0.45636  1.0000
  H   H80       1.0  0.08040  0.19193  0.15033  1.0000
  C   C102      1.0  0.05007  0.21024  0.16533  1.0000
  H   H81       1.0  0.14526  0.26696  0.05413  1.0000
  H   H82       1.0  0.16653  0.33177  0.36944  1.0000
  S   S21       1.0  0.23501  0.27264  0.49436  1.0000
  H   H83       1.0  0.07861  0.12299  0.24357  1.0000
  C   C103      1.0  0.03567  0.16813  0.18075  1.0000
  C   C104      1.0  0.14879  0.27152  0.03596  1.0000
  C   C105      1.0  0.02890  0.20894  0.17818  1.0000
  H   H84       1.0  0.21280  0.25378  0.19549  1.0000
  H   H85       1.0  0.07497  0.09417  0.16831  1.0000
  C   C106      1.0  0.16834  0.29373  0.00380  1.0000
  C   C107      1.0  0.18535  0.18022  0.33577  1.0000
  H   H86       1.0  0.19708  0.38018  0.30025  1.0000
  H   H87       1.0  0.16044  0.36798  0.30284  1.0000
  H   H88       1.0  0.19186  0.23585  0.16485  1.0000
  C   C108      1.0  0.18039  0.05079  0.18918  1.0000
  C   C109      1.0  0.22982  0.14715  0.11755  1.0000
  H   H89       1.0  0.14486  0.34376  0.33740  1.0000
  C   C110      1.0  0.19479  0.18373  0.37833  1.0000
  H   H90       1.0  0.14627  0.16328  0.08985  1.0000
  C   C111      1.0  0.14026  0.32600  0.22996  1.0000
  H   H91       1.0  0.09408  0.32431  0.19403  1.0000
  C   C112      1.0  0.16104  0.34926  0.33637  1.0000
  C   C113      1.0  0.17809  0.24527  0.17471  1.0000
  C   C114      1.0  0.21736  0.15128  0.30080  1.0000
  C   C115      1.0  0.23100  0.20288  0.22526  1.0000
  C   C116      1.0  0.07701  0.13218  0.20784  1.0000
  H   H92       1.0  0.11452  0.32120  0.25883  1.0000
  S   S22       1.0  0.23228  0.26802  0.36699  1.0000
  C   C117      1.0  0.20345  0.36269  0.33348  1.0000
  C   C118      1.0  0.06403  0.19051  0.16009  1.0000
  H   H93       1.0  0.17625  0.39930  0.22360  1.0000
  H   H94       1.0  0.08538  0.27400  0.09720  1.0000
  S   S23       1.0  0.23028  0.07458  0.23991  1.0000
  C   C119      1.0  0.21958  0.00701  0.07585  1.0000
  H   H95       1.0  0.01059  0.19652  0.24762  1.0000
  C   C120      1.0  0.14659  0.27526  0.17576  1.0000
  H   H96       1.0  0.08124  0.14258  0.11203  1.0000
  H   H97       1.0  0.15760  0.21093  0.06204  1.0000
  H   H98       1.0  0.01827  0.22422  0.18260  1.0000
  H   H99       1.0  0.20719  0.21074  0.30250  1.0000
  C   C121      1.0  0.16475  0.26323  0.16355  1.0000
  H   H100      1.0  0.13606  0.28891  0.16695  1.0000
  H   H101      1.0  0.11221  0.15095  0.08138  1.0000
  C   C122      1.0  0.20751  0.17438  0.34037  1.0000
  H   H102      1.0  0.15959  0.19634  0.38591  1.0000
  H   H103      1.0  0.11507  0.11009  0.16632  1.0000
  H   H104      1.0  0.08298  0.23812  0.12369  1.0000
  C   C123      1.0  0.02168  0.18791  0.18586  1.0000
  H   H105      1.0  0.20289  0.39991  0.15324  1.0000
  C   C124      1.0  0.02703  0.12225  0.13383  1.0000
  C   C125      1.0  0.10182  0.32280  0.22758  1.0000
  C   C126      1.0  0.17024  0.33097  0.14755  1.0000
  C   C127      1.0  0.19181  0.30492  0.12319  1.0000
  C   C128      1.0  0.10263  0.25763  0.06896  1.0000
  P   P5        1.0  0.21488  0.04672  0.12550  1.0000
  C   C129      1.0  0.11349  0.15260  0.09860  1.0000
  C   C130      1.0  0.22063  0.15728  0.27721  1.0000
  C   C131      1.0  0.11574  0.10053  0.20193  1.0000
  C   C132      1.0  0.17517  0.32333  0.12655  1.0000
  H   H106      1.0  0.05595  0.22650  0.16004  1.0000
  C   C133      1.0  0.09592  0.14787  0.11607  1.0000
  H   H107      1.0  0.08514  0.31995  0.23591  1.0000
  C   C134      1.0  0.19628  0.13084  0.27382  1.0000
  C   C135      1.0  0.06170  0.10229  0.15868  1.0000
  C   C136      1.0  0.09745  0.14999  0.13845  1.0000
  C   C137      1.0  0.11020  0.21674  0.07646  1.0000
  H   H108      1.0  0.06238  0.14466  0.21068  1.0000
  C   C138      1.0  0.20341  0.13492  0.31080  1.0000
  C   C139      1.0  0.08715  0.12871  0.18585  1.0000
  H   H109      1.0  0.16826  0.26757  0.14532  1.0000
  H   H110      1.0  0.22591  0.18662  0.23232  1.0000
  H   H111      1.0  0.16632  0.33176  0.11269  1.0000
  C   C140      1.0  0.19301  0.12464  0.29730  1.0000
  S   S24       1.0  0.22929  0.37361  0.23988  1.0000
  C   C141      1.0  0.19451  0.34884  0.35289  1.0000
  H   H112      1.0  0.21999  0.00934  0.05767  1.0000
  H   H113      1.0  0.19915  0.39188  0.36802  1.0000
  C   C142      1.0  0.16218  0.02680  0.17240  1.0000
  C   C143      1.0  0.17680  0.18483  0.04409  1.0000
  H   H114      1.0  0.19348  0.41924  0.18717  1.0000
  H   H115      1.0  0.11676  0.20059  0.07095  1.0000
  H   H116      1.0  0.24074  0.25559  0.45253  1.0000
  C   C144      1.0  0.17329  0.34246  0.35440  1.0000
  C   C145      1.0  0.18109  0.10901  0.10391  1.0000
  C   C146      1.0  0.11248  0.23703  0.06158  1.0000
  C   C147      1.0  0.16219  0.28848  0.02718  1.0000
  H   H117      1.0  0.02242  0.29518  0.22855  1.0000
  C   C148      1.0  0.15983  0.20316  0.04685  1.0000
  C   C149      1.0  0.05706  0.16928  0.16793  1.0000
  H   H118      1.0  0.22533  0.20046  0.02998  1.0000
  C   C150      1.0  0.13433  0.16158  0.12552  1.0000
  C   C151      1.0  0.09961  0.21718  0.09878  1.0000
  H   H119      1.0  0.22897  0.17221  0.36595  1.0000
  C   C152      1.0  0.14640  0.21175  0.02983  1.0000
  H   H120      1.0  0.19915  0.30951  0.48372  1.0000
  H   H121      1.0  0.22322  0.15003  0.17050  1.0000
  C   C153      1.0  0.00677  0.30420  0.23601  1.0000
  P   P6        1.0  0.22959  0.16549  0.31838  1.0000
  C   C154      1.0  0.23308  0.16892  0.10657  1.0000
  H   H122      1.0  0.17341  0.26139  0.44076  1.0000
  H   H123      1.0  0.20926  0.20346  0.47703  1.0000
  H   H124      1.0  0.22864  0.03046  0.19698  1.0000
  C   C155      1.0  0.23608  0.33873  0.10518  1.0000
  S   S25       1.0  0.23924  0.20489  0.39438  1.0000
  C   C156      1.0  0.16376  0.03713  0.19083  1.0000
  H   H125      1.0  0.20228  0.39502  0.40737  1.0000
  H   H126      1.0  0.17584  0.02177  0.13837  1.0000
  C   C157      1.0  0.19467  0.04302  0.15095  1.0000
  H   H127      1.0  0.17477  0.08141  0.13024  1.0000
  H   H128      1.0  0.16590  0.11964  0.10988  1.0000
  C   C158      1.0  0.21761  0.02579  0.08698  1.0000
  H   H129      1.0  0.23255  0.31389  0.08502  1.0000
  H   H130      1.0  0.23597  0.41691  0.25592  1.0000
  C   C159      1.0  0.03089  0.09876  0.13976  1.0000
  H   H131      1.0  0.17937  0.13775  0.48129  1.0000
  H   H132      1.0  0.02038  0.08827  0.13485  1.0000
  C   C160      1.0  0.22098  0.08193  0.08955  1.0000
  S   S26       1.0  0.23561  0.12601  0.21266  1.0000
  H   H133      1.0  0.14939  0.01605  0.17374  1.0000
  C   C161      1.0  0.21831  0.00080  0.12274  1.0000
  C   C162      1.0  0.19589  0.11739  0.08529  1.0000
  C   C163      1.0  0.09360  0.25711  0.00493  1.0000
  H   H134      1.0  0.02991  0.15195  0.18708  1.0000
  H   H135      1.0  0.24291  0.16852  0.48031  1.0000
  C   C164      1.0  0.15060  0.20209  0.00980  1.0000
  C   C165      1.0  0.04826  0.08879  0.15211  1.0000
  C   C166      1.0  0.17810  0.14305  0.49770  1.0000
  C   C167      1.0  0.23364  0.34760  0.25758  1.0000
  H   H136      1.0  0.23689  0.07194  0.08432  1.0000
  H   H137      1.0  0.22754  0.41974  0.33833  1.0000
  C   C168      1.0  0.21576  0.10380  0.07803  1.0000
  C   C169      1.0  0.18034  0.22001  0.49679  1.0000
  H   H138      1.0  0.24517  0.31106  0.22540  1.0000
  C   C170      1.0  0.16325  0.23873  0.49642  1.0000
  H   H139      1.0  0.23639  0.16261  0.05141  1.0000
  C   C171      1.0  0.24088  0.31732  0.09810  1.0000
  P   P7        1.0  0.23046  0.37181  0.33224  1.0000
  H   H140      1.0  0.23637  0.32208  0.34158  1.0000
  C   C172      1.0  0.22968  0.41880  0.32043  1.0000
  H   H141      1.0  0.24015  0.08429  0.12596  1.0000
  H   H142      1.0  0.22827  0.45498  0.31097  1.0000
  C   C173      1.0  0.23989  0.30568  0.28558  1.0000
  C   C174      1.0  0.23340  0.37567  0.36042  1.0000
  C   C175      1.0  0.24238  0.16619  0.03346  1.0000
  C   C176      1.0  0.23004  0.43886  0.30496  1.0000
  H   H143      1.0  0.24467  0.11618  0.32184  1.0000
  C   C177      1.0  0.23189  0.39791  0.31266  1.0000
  H   H144      1.0  0.20986  0.00342  0.18290  1.0000
  C   C178      1.0  0.23474  0.39745  0.28927  1.0000
  C   C179      1.0  0.23233  0.43824  0.28172  1.0000
  C   C180      1.0  0.23683  0.37947  0.40515  1.0000
  H   H145      1.0  0.23232  0.45378  0.26973  1.0000
  H   H146      1.0  0.23662  0.38152  0.28294  1.0000
  S   S27       1.0  0.24110  0.37041  0.13050  1.0000
  C   C181      1.0  0.23454  0.41752  0.27392  1.0000
  H   H147      1.0  0.23802  0.38059  0.42254  1.0000
  S   S28       1.0  0.24396  0.27861  0.30149  1.0000
  H   H148      1.0  0.24186  0.19748  0.15833  1.0000
  H   H149      1.0  0.22746  0.11048  0.06391  1.0000
  H   H150      1.0  0.24309  0.23733  0.14054  1.0000
  C   C182      1.0  0.24447  0.24497  0.20757  1.0000
  C   C183      1.0  0.24403  0.13536  0.13289  1.0000
  C   C184      1.0  0.24704  0.34352  0.12193  1.0000
  C   C185      1.0  0.18100  0.16515  0.49905  1.0000
  H   H151      1.0  0.03440  0.32902  0.66385  1.0000
  Fe  Fe14      1.0  0.21005  0.25760  0.57744  1.0000
  S   S29       1.0  0.18928  0.26986  0.54934  1.0000
  S   S30       1.0  0.20297  0.22713  0.60360  1.0000
  Fe  Fe15      1.0  0.23260  0.30067  0.56789  1.0000
  S   S31       1.0  0.21357  0.31665  0.53919  1.0000
  H   H152      1.0  0.99925  0.29420  0.63979  1.0000
  Fe  Fe16      1.0  0.18387  0.30329  0.56187  1.0000
  S   S32       1.0  0.14963  0.32238  0.57141  1.0000
  Fe  Fe17      1.0  0.22063  0.28183  0.52905  1.0000
  S   S33       1.0  0.20234  0.29029  0.59120  1.0000
  H   H153      1.0  0.17144  0.11063  0.51634  1.0000
  Fe  Fe18      1.0  0.09587  0.29217  0.69426  1.0000
  S   S34       1.0  0.07405  0.32539  0.68870  1.0000
  S   S35       1.0  0.11233  0.27126  0.66706  1.0000
  Fe  Fe19      1.0  0.08876  0.29085  0.74488  1.0000
  S   S36       1.0  0.06588  0.32426  0.74354  1.0000
  S   S37       1.0  0.09740  0.26717  0.77642  1.0000
  Fe  Fe20      1.0  0.05002  0.31152  0.71814  1.0000
  Fe  Fe21      1.0  0.09149  0.33570  0.71414  1.0000
  S   S38       1.0  0.09846  0.37203  0.70585  1.0000
  S   S39       1.0  0.07077  0.27724  0.72187  1.0000
  S   S40       1.0  0.11553  0.30326  0.71734  1.0000
  H   H154      1.0  0.06109  0.24745  0.56321  1.0000
  Fe  Fe22      1.0  0.21184  0.41557  0.70152  1.0000
  S   S41       1.0  0.22197  0.43977  0.67062  1.0000
  S   S42       1.0  0.17688  0.42164  0.72099  1.0000
  H   H155      1.0  0.23952  0.37083  0.87138  1.0000
  C   C186      1.0  0.19497  0.49704  0.66946  1.0000
  H   H156      1.0  0.21805  0.34319  0.83019  1.0000
  S   S43       1.0  0.22720  0.38488  0.68563  1.0000
  C   C187      1.0  0.22829  0.18216  0.94651  1.0000
  H   H157      1.0  0.21862  0.23026  0.50722  1.0000
  C   C188      1.0  0.24055  0.18282  0.55313  1.0000
  H   H158      1.0  0.12148  0.29359  0.56059  1.0000
  Fe  Fe23      1.0  0.19782  0.26066  0.84305  1.0000
  S   S44       1.0  0.18819  0.22840  0.86386  1.0000
  S   S45       1.0  0.17921  0.28602  0.81862  1.0000
  Fe  Fe24      1.0  0.20166  0.23953  0.89185  1.0000
  S   S46       1.0  0.18516  0.23377  0.92839  1.0000
  Fe  Fe25      1.0  0.22405  0.21442  0.85284  1.0000
  H   H159      1.0  0.17113  0.17681  0.99136  1.0000
  S   S47       1.0  0.20796  0.27322  0.87198  1.0000
  S   S48       1.0  0.23286  0.24581  0.82976  1.0000
  C   C189      1.0  0.17654  0.39440  0.53129  1.0000
  C   C190      1.0  0.19887  0.24245  0.94800  1.0000
  C   C191      1.0  0.19332  0.23492  0.97121  1.0000
  C   C192      1.0  0.20364  0.24208  0.98723  1.0000
  C   C193      1.0  0.21956  0.25691  0.98003  1.0000
  C   C194      1.0  0.22492  0.26456  0.95682  1.0000
  C   C195      1.0  0.21483  0.25718  0.94082  1.0000
  H   H160      1.0  0.18095  0.22361  0.97676  1.0000
  C   C196      1.0  0.08193  0.37890  0.63131  1.0000
  C   C197      1.0  0.16078  0.28225  0.98916  1.0000
  H   H161      1.0  0.21920  0.26312  0.92297  1.0000
  C   C198      1.0  0.23586  0.33709  0.76462  1.0000
  C   C199      1.0  0.12012  0.37654  0.63840  1.0000
  C   C200      1.0  0.17942  0.17219  0.52024  1.0000
  H   H162      1.0  0.23827  0.29461  0.81423  1.0000
  C   C201      1.0  0.21696  0.19151  0.78039  1.0000
  C   C202      1.0  0.21909  0.19412  0.80249  1.0000
  S   S49       1.0  0.24198  0.41694  0.71775  1.0000
  C   C203      1.0  0.17356  0.37358  0.62123  1.0000
  C   C204      1.0  0.22193  0.17170  0.91156  1.0000
  C   C205      1.0  0.22467  0.21658  0.51967  1.0000
  C   C206      1.0  0.12010  0.27226  0.78831  1.0000
  C   C207      1.0  0.13006  0.29179  0.78034  1.0000
  C   C208      1.0  0.14812  0.29562  0.78997  1.0000
  C   C209      1.0  0.15642  0.28005  0.80753  1.0000
  C   C210      1.0  0.14648  0.26048  0.81564  1.0000
  C   C211      1.0  0.12823  0.25669  0.80612  1.0000
  H   H163      1.0  0.12367  0.30404  0.76691  1.0000
  H   H164      1.0  0.15571  0.31078  0.78397  1.0000
  H   H165      1.0  0.15273  0.24840  0.82926  1.0000
  H   H166      1.0  0.12041  0.24168  0.81258  1.0000
  C   C212      1.0  0.12157  0.38275  0.71182  1.0000
  C   C213      1.0  0.11746  0.39862  0.72680  1.0000
  C   C214      1.0  0.13448  0.41053  0.72919  1.0000
  C   C215      1.0  0.15577  0.40705  0.71632  1.0000
  C   C216      1.0  0.15996  0.39138  0.70108  1.0000
  C   C217      1.0  0.14291  0.37915  0.69890  1.0000
  H   H167      1.0  0.10086  0.40208  0.73624  1.0000
  H   H168      1.0  0.13107  0.42263  0.74095  1.0000
  H   H169      1.0  0.17638  0.38856  0.69123  1.0000
  H   H170      1.0  0.14605  0.36741  0.68684  1.0000
  C   C218      1.0  0.22537  0.20813  0.61391  1.0000
  H   H171      1.0  0.12022  0.43149  0.62579  1.0000
  C   C219      1.0  0.04474  0.32136  0.62982  1.0000
  C   C220      1.0  0.22136  0.19398  0.63468  1.0000
  C   C221      1.0  0.08840  0.26269  0.54256  1.0000
  H   H172      1.0  0.20458  0.19471  0.64404  1.0000
  C   C222      1.0  0.13779  0.30829  0.59746  1.0000
  C   C223      1.0  0.14399  0.28498  0.60318  1.0000
  C   C224      1.0  0.13555  0.27375  0.62436  1.0000
  C   C225      1.0  0.12125  0.28583  0.64017  1.0000
  C   C226      1.0  0.11457  0.30907  0.63430  1.0000
  C   C227      1.0  0.12268  0.32027  0.61286  1.0000
  H   H173      1.0  0.15554  0.27561  0.59136  1.0000
  H   H174      1.0  0.14071  0.25578  0.62874  1.0000
  H   H175      1.0  0.10342  0.31848  0.64633  1.0000
  H   H176      1.0  0.11785  0.33830  0.60852  1.0000
  S   S50       1.0  0.22414  0.16915  0.74371  1.0000
  H   H177      1.0  0.22969  0.32936  0.68280  1.0000
  H   H178      1.0  0.22129  0.48199  0.57134  1.0000
  C   C228      1.0  0.99845  0.26443  0.58515  1.0000
  C   C229      1.0  0.14030  0.20743  0.54579  1.0000
  H   H179      1.0  0.18231  0.46755  0.79230  1.0000
  C   C230      1.0  0.23636  0.35930  0.76753  1.0000
  H   H180      1.0  0.22352  0.39330  0.58171  1.0000
  H   H181      1.0  0.20014  0.37441  0.73750  1.0000
  C   C231      1.0  0.24048  0.31567  0.69121  1.0000
  H   H182      1.0  0.06890  0.27290  0.98348  1.0000
  H   H183      1.0  0.21742  0.30880  0.77371  1.0000
  H   H184      1.0  0.22379  0.32407  0.86836  1.0000
  H   H185      1.0  0.18268  0.39324  0.51361  1.0000
  H   H186      1.0  0.24269  0.48550  0.64576  1.0000
  H   H187      1.0  0.23947  0.26727  0.72941  1.0000
  C   C232      1.0  0.07618  0.25718  0.99266  1.0000
  C   C233      1.0  0.02028  0.26717  0.58713  1.0000
  H   H188      1.0  0.20770  0.20486  0.76999  1.0000
  H   H189      1.0  0.05459  0.30891  0.59806  1.0000
  H   H190      1.0  0.10649  0.21334  0.56327  1.0000
  C   C234      1.0  0.17860  0.37518  0.64259  1.0000
  C   C235      1.0  0.04758  0.27598  0.64978  1.0000
  S   S51       1.0  0.01350  0.32107  0.71218  1.0000
  H   H191      1.0  0.06498  0.37513  0.63710  1.0000
  H   H192      1.0  0.11704  0.27901  0.52629  1.0000
  C   C236      1.0  0.22605  0.48297  0.58750  1.0000
  H   H193      1.0  0.19571  0.42077  0.53249  1.0000
  C   C237      1.0  0.23373  0.37915  0.59021  1.0000
  H   H194      1.0  0.13538  0.20031  0.53251  1.0000
  C   C238      1.0  0.08583  0.19361  0.62587  1.0000
  H   H195      1.0  0.14248  0.25591  0.98633  1.0000
  C   C239      1.0  0.10935  0.39615  0.60268  1.0000
  H   H196      1.0  0.16826  0.12280  0.55389  1.0000
  H   H197      1.0  0.02586  0.23188  0.63680  1.0000
  C   C240      1.0  0.07375  0.25811  0.56273  1.0000
  C   C241      1.0  0.16145  0.39654  0.57747  1.0000
  H   H198      1.0  0.19560  0.18333  0.93715  1.0000
  H   H199      1.0  0.15649  0.36745  0.53567  1.0000
  C   C242      1.0  0.09823  0.37176  0.64556  1.0000
  C   C243      1.0  0.21356  0.17909  0.93238  1.0000
  H   H200      1.0  0.21136  0.20946  0.80916  1.0000
  C   C244      1.0  0.17728  0.42761  0.61690  1.0000
  H   H201      1.0  0.11332  0.40595  0.58616  1.0000
  C   C245      1.0  0.13682  0.43577  0.62521  1.0000
  H   H202      1.0  0.05966  0.21099  0.60705  1.0000
  C   C246      1.0  0.16170  0.37999  0.54363  1.0000
  C   C247      1.0  0.13003  0.22434  0.58014  1.0000
  C   C248      1.0  0.01855  0.24067  0.62205  1.0000
  C   C249      1.0  0.13891  0.45523  0.63372  1.0000
  H   H203      1.0  0.09388  0.36276  0.66237  1.0000
  C   C250      1.0  0.21161  0.19949  0.52971  1.0000
  C   C251      1.0  0.19481  0.35921  0.65237  1.0000
  H   H204      1.0  0.18287  0.42259  0.57290  1.0000
  H   H205      1.0  0.19869  0.36053  0.66876  1.0000
  H   H206      1.0  0.07481  0.39684  0.59885  1.0000
  C   C252      1.0  0.22703  0.17174  0.77153  1.0000
  C   C253      1.0  0.23103  0.17672  0.81595  1.0000
  H   H207      1.0  0.04378  0.33897  0.62220  1.0000
  H   H208      1.0  0.21053  0.17007  0.90026  1.0000
  C   C254      1.0  0.17645  0.41092  0.56496  1.0000
  C   C255      1.0  0.24084  0.15689  0.80718  1.0000
  C   C256      1.0  0.23903  0.17909  0.64357  1.0000
  C   C257      1.0  0.23857  0.35850  0.58162  1.0000
  C   C258      1.0  0.03955  0.31579  0.65329  1.0000
  H   H209      1.0  0.23693  0.27631  0.95119  1.0000
  H   H210      1.0  0.20980  0.16973  0.55529  1.0000
  S   S52       1.0  0.23683  0.22295  0.88240  1.0000
  C   C259      1.0  0.16893  0.21864  0.56288  1.0000
  C   C260      1.0  0.15250  0.22609  0.58010  1.0000
  H   H211      1.0  0.17301  0.16173  0.55656  1.0000
  H   H212      1.0  0.03722  0.28892  0.68152  1.0000
  C   C261      1.0  0.15418  0.38107  0.56658  1.0000
  S   S53       1.0  0.23580  0.40774  0.61981  1.0000
  H   H213      1.0  0.21814  0.34168  0.71949  1.0000
  C   C262      1.0  0.12392  0.21482  0.56311  1.0000
  C   C263      1.0  0.17358  0.12778  0.51743  1.0000
  H   H214      1.0  0.18625  0.22024  0.56321  1.0000
  H   H215      1.0  0.15729  0.23329  0.59342  1.0000
  C   C264      1.0  0.18861  0.13763  0.68807  1.0000
  C   C265      1.0  0.18415  0.11895  0.70433  1.0000
  C   C266      1.0  0.16828  0.12181  0.72356  1.0000
  C   C267      1.0  0.15712  0.14341  0.72674  1.0000
  C   C268      1.0  0.16200  0.16237  0.71080  1.0000
  C   C269      1.0  0.17750  0.15923  0.69118  1.0000
  P   P8        1.0  0.14848  0.19048  0.71549  1.0000
  C   C270      1.0  0.14593  0.19229  0.74539  1.0000
  C   C271      1.0  0.16711  0.20975  0.69946  1.0000
  C   C272      1.0  0.18833  0.20884  0.70575  1.0000
  C   C273      1.0  0.20501  0.21943  0.69109  1.0000
  C   C274      1.0  0.20050  0.23155  0.67024  1.0000
  C   C275      1.0  0.17913  0.23350  0.66421  1.0000
  C   C276      1.0  0.16255  0.22246  0.67862  1.0000
  C   C277      1.0  0.16257  0.18042  0.75808  1.0000
  C   C278      1.0  0.16056  0.18138  0.78123  1.0000
  C   C279      1.0  0.14191  0.19422  0.79196  1.0000
  C   C280      1.0  0.12532  0.20619  0.77949  1.0000
  C   C281      1.0  0.12725  0.20523  0.75635  1.0000
  C   C282      1.0  0.12095  0.19612  0.70680  1.0000
  C   C283      1.0  0.11022  0.17826  0.70399  1.0000
  C   C284      1.0  0.08853  0.18260  0.69820  1.0000
  C   C285      1.0  0.07744  0.20478  0.69511  1.0000
  C   C286      1.0  0.08805  0.22262  0.69773  1.0000
  C   C287      1.0  0.10964  0.21834  0.70368  1.0000
  H   H216      1.0  0.20109  0.13544  0.67326  1.0000
  H   H217      1.0  0.19320  0.10230  0.70212  1.0000
  H   H218      1.0  0.16496  0.10731  0.73621  1.0000
  H   H219      1.0  0.14506  0.14535  0.74187  1.0000
  H   H220      1.0  0.18152  0.17342  0.67844  1.0000
  H   H221      1.0  0.19247  0.19887  0.72142  1.0000
  H   H222      1.0  0.22174  0.21725  0.69546  1.0000
  H   H223      1.0  0.21380  0.23873  0.65839  1.0000
  H   H224      1.0  0.17576  0.24267  0.64785  1.0000
  H   H225      1.0  0.14668  0.22316  0.67285  1.0000
  H   H226      1.0  0.17714  0.17029  0.75017  1.0000
  H   H227      1.0  0.17366  0.17230  0.79075  1.0000
  H   H228      1.0  0.14051  0.19524  0.80983  1.0000
  H   H229      1.0  0.11103  0.21656  0.78766  1.0000
  H   H230      1.0  0.11421  0.21490  0.74724  1.0000
  H   H231      1.0  0.11841  0.16095  0.70645  1.0000
  H   H232      1.0  0.08031  0.16874  0.69623  1.0000
  H   H233      1.0  0.06068  0.20819  0.69060  1.0000
  H   H234      1.0  0.07966  0.23988  0.69500  1.0000
  H   H235      1.0  0.11747  0.23243  0.70591  1.0000
  C   C288      1.0  0.10798  0.28389  0.56116  1.0000
  C   C289      1.0  0.12591  0.38860  0.61681  1.0000
  H   H236      1.0  0.11743  0.23046  0.59333  1.0000
  Fe  Fe26      1.0  0.23991  0.40907  0.65579  1.0000
  C   C290      1.0  0.10230  0.19575  0.63845  1.0000
  C   C291      1.0  0.10468  0.21707  0.64265  1.0000
  C   C292      1.0  0.09048  0.23620  0.63453  1.0000
  C   C293      1.0  0.07377  0.23421  0.62213  1.0000
  C   C294      1.0  0.07177  0.21281  0.61747  1.0000
  P   P9        1.0  0.05827  0.25939  0.60865  1.0000
  C   C295      1.0  0.05269  0.28143  0.62617  1.0000
  C   C296      1.0  0.07583  0.26686  0.58213  1.0000
  C   C297      1.0  0.09332  0.27945  0.58131  1.0000
  C   C298      1.0  0.20624  0.34173  0.64081  1.0000
  C   C299      1.0  0.05110  0.30426  0.61625  1.0000
  H   H237      1.0  0.18001  0.40726  0.84117  1.0000
  H   H238      1.0  0.05471  0.23710  0.98266  1.0000
  C   C300      1.0  0.17177  0.13465  0.53857  1.0000
  H   H239      1.0  0.16621  0.28574  0.97107  1.0000
  C   C301      1.0  0.08748  0.39112  0.60985  1.0000
  H   H240      1.0  0.19595  0.45092  0.62589  1.0000
  H   H241      1.0  0.11763  0.21893  0.65207  1.0000
  H   H242      1.0  0.09297  0.25264  0.63739  1.0000
  C   C302      1.0  0.04109  0.29312  0.66326  1.0000
  H   H243      1.0  0.09594  0.28556  0.59630  1.0000
  H   H244      1.0  0.12404  0.46569  0.64067  1.0000
  H   H245      1.0  0.08425  0.17709  0.62231  1.0000
  C   C303      1.0  0.23809  0.48508  0.62939  1.0000
  S   S54       1.0  0.23442  0.17943  0.84359  1.0000
  S   S55       1.0  0.24202  0.26664  0.55625  1.0000
  P   P10       1.0  0.18381  0.20045  0.52267  1.0000
  C   C304      1.0  0.16705  0.24737  0.74367  1.0000
  C   C305      1.0  0.17427  0.24178  0.76481  1.0000
  C   C306      1.0  0.19040  0.25306  0.76997  1.0000
  C   C307      1.0  0.19893  0.27031  0.75416  1.0000
  C   C308      1.0  0.19205  0.27586  0.73273  1.0000
  C   C309      1.0  0.17596  0.26423  0.72760  1.0000
  P   P11       1.0  0.20106  0.30006  0.71361  1.0000
  C   C310      1.0  0.19027  0.30154  0.68747  1.0000
  C   C311      1.0  0.18858  0.32452  0.72692  1.0000
  C   C312      1.0  0.16621  0.32589  0.73763  1.0000
  C   C313      1.0  0.15622  0.34454  0.74821  1.0000
  C   C314      1.0  0.16863  0.36174  0.74851  1.0000
  C   C315      1.0  0.19075  0.36072  0.73767  1.0000
  C   C316      1.0  0.20079  0.34215  0.72703  1.0000
  C   C317      1.0  0.20148  0.28751  0.67174  1.0000
  C   C318      1.0  0.19278  0.28745  0.65192  1.0000
  C   C319      1.0  0.17263  0.30106  0.64789  1.0000
  C   C320      1.0  0.16118  0.31486  0.66358  1.0000
  C   C321      1.0  0.16997  0.31520  0.68329  1.0000
  C   C322      1.0  0.23128  0.29864  0.70710  1.0000
  H   H246      1.0  0.15205  0.24228  0.51163  1.0000
  H   H247      1.0  0.18157  0.44825  0.83201  1.0000
  H   H248      1.0  0.14334  0.36918  0.57604  1.0000
  H   H249      1.0  0.15410  0.23909  0.73991  1.0000
  H   H250      1.0  0.16704  0.22909  0.77746  1.0000
  H   H251      1.0  0.19552  0.24909  0.78663  1.0000
  H   H252      1.0  0.21052  0.27960  0.75889  1.0000
  H   H253      1.0  0.16960  0.26848  0.71157  1.0000
  H   H254      1.0  0.15642  0.31257  0.73769  1.0000
  H   H255      1.0  0.13882  0.34568  0.75609  1.0000
  C   C323      1.0  0.18436  0.35527  0.61027  1.0000
  C   C324      1.0  0.16292  0.20948  0.54546  1.0000
  H   H256      1.0  0.21679  0.27640  0.67494  1.0000
  H   H257      1.0  0.20153  0.27674  0.63970  1.0000
  H   H258      1.0  0.16609  0.30121  0.63242  1.0000
  H   H259      1.0  0.14550  0.32534  0.66041  1.0000
  H   H260      1.0  0.16072  0.32605  0.69510  1.0000
  H   H261      1.0  0.16092  0.37632  0.75638  1.0000
  C   C325      1.0  0.10550  0.27560  0.54179  1.0000
  C   C326      1.0  0.17183  0.35344  0.88127  1.0000
  C   C327      1.0  0.19184  0.33907  0.88447  1.0000
  H   H262      1.0  0.23904  0.22095  0.72690  1.0000
  C   C328      1.0  0.20508  0.34648  0.84424  1.0000
  C   C329      1.0  0.18485  0.36062  0.84080  1.0000
  C   C330      1.0  0.16830  0.36413  0.85952  1.0000
  P   P12       1.0  0.17920  0.37266  0.81253  1.0000
  C   C331      1.0  0.20083  0.35937  0.79275  1.0000
  C   C332      1.0  0.15223  0.36558  0.80976  1.0000
  C   C333      1.0  0.13717  0.38086  0.79737  1.0000
  C   C334      1.0  0.11701  0.37458  0.79431  1.0000
  C   C335      1.0  0.11142  0.35326  0.80407  1.0000
  C   C336      1.0  0.12585  0.33830  0.81712  1.0000
  C   C337      1.0  0.14617  0.34437  0.81993  1.0000
  C   C338      1.0  0.21925  0.37026  0.78195  1.0000
  H   H263      1.0  0.17026  0.38894  0.65155  1.0000
  H   H264      1.0  0.22140  0.18873  0.96214  1.0000
  C   C339      1.0  0.21790  0.32601  0.77574  1.0000
  C   C340      1.0  0.20035  0.33717  0.78947  1.0000
  C   C341      1.0  0.17940  0.40290  0.80657  1.0000
  C   C342      1.0  0.18004  0.41539  0.82382  1.0000
  C   C343      1.0  0.18099  0.43867  0.81868  1.0000
  C   C344      1.0  0.18140  0.44957  0.79632  1.0000
  C   C345      1.0  0.18079  0.43723  0.77908  1.0000
  C   C346      1.0  0.17979  0.41403  0.78416  1.0000
  H   H265      1.0  0.15884  0.35583  0.89561  1.0000
  H   H266      1.0  0.19434  0.33027  0.90122  1.0000
  H   H267      1.0  0.02890  0.27908  0.57462  1.0000
  H   H268      1.0  0.23861  0.47477  0.72304  1.0000
  H   H269      1.0  0.15244  0.37466  0.85719  1.0000
  H   H270      1.0  0.14104  0.39741  0.78948  1.0000
  H   H271      1.0  0.10586  0.38612  0.78403  1.0000
  H   H272      1.0  0.09600  0.34821  0.80137  1.0000
  H   H273      1.0  0.12165  0.32165  0.82455  1.0000
  H   H274      1.0  0.15732  0.33220  0.82967  1.0000
  H   H275      1.0  0.16180  0.47561  0.64088  1.0000
  H   H276      1.0  0.01196  0.27431  0.73459  1.0000
  H   H277      1.0  0.04840  0.25853  0.65785  1.0000
  H   H278      1.0  0.18650  0.32838  0.79754  1.0000
  C   C347      1.0  0.20846  0.33562  0.86596  1.0000
  H   H279      1.0  0.18072  0.35322  0.59398  1.0000
  C   C348      1.0  0.18630  0.49007  0.69204  1.0000
  H   H280      1.0  0.18124  0.44553  0.76165  1.0000
  H   H281      1.0  0.17961  0.40473  0.77047  1.0000
  C   C349      1.0  0.20077  0.33959  0.62000  1.0000
  H   H282      1.0  0.20979  0.32609  0.61111  1.0000
  H   H283      1.0  0.21939  0.32978  0.64779  1.0000
  C   C350      1.0  0.16017  0.46082  0.63388  1.0000
  C   C351      1.0  0.17937  0.44701  0.62541  1.0000
  H   H284      1.0  0.13233  0.37100  0.64990  1.0000
  C   C352      1.0  0.18386  0.40990  0.54194  1.0000
  H   H285      1.0  0.23209  0.35679  0.56659  1.0000
  C   C353      1.0  0.03069  0.25487  0.60530  1.0000
  H   H286      1.0  0.08673  0.25600  0.52759  1.0000
  H   H287      1.0  0.11341  0.18097  0.64476  1.0000
  P   P13       1.0  0.15404  0.39534  0.60781  1.0000
  H   H288      1.0  0.19227  0.41675  0.61092  1.0000
  C   C354      1.0  0.15606  0.42178  0.61675  1.0000
  S   S56       1.0  0.23962  0.00332  0.65684  1.0000
  C   C355      1.0  0.17460  0.15674  0.53999  1.0000
  C   C356      1.0  0.24329  0.49126  0.71604  1.0000
  C   C357      1.0  0.24189  0.38146  0.60983  1.0000
  H   H289      1.0  0.22057  0.38716  0.78448  1.0000
  H   H290      1.0  0.18069  0.47361  0.69702  1.0000
  H   H291      1.0  0.23585  0.16853  0.65978  1.0000
  C   C358      1.0  0.21972  0.18264  0.54659  1.0000
  C   C359      1.0  0.24028  0.46506  0.59770  1.0000
  H   H292      1.0  0.19542  0.48603  0.65711  1.0000
  Fe  Fe27      1.0  0.24231  0.25575  0.86035  1.0000
  H   H293      1.0  0.23959  0.20897  0.98928  1.0000
  C   C360      1.0  0.06816  0.23701  0.99223  1.0000
  C   C361      1.0  0.23910  0.15448  0.78496  1.0000
  H   H294      1.0  0.14123  0.20912  0.99595  1.0000
  H   H295      1.0  0.24379  0.29178  0.63906  1.0000
  C   C362      1.0  0.24435  0.19229  0.99831  1.0000
  H   H296      1.0  0.24564  0.05010  0.65048  1.0000
  H   H297      1.0  0.24520  0.27272  0.60588  1.0000
  C   C363      1.0  0.24581  0.28120  0.71787  1.0000
  C   C364      1.0  0.24680  0.01984  0.67516  1.0000
  C   C365      1.0  0.24508  0.16749  0.90477  1.0000
  S   S57       1.0  0.23352  0.26596  0.99925  1.0000
  C   C366      1.0  0.14733  0.26529  0.99791  1.0000
  H   H298      1.0  0.17951  0.30620  0.99709  1.0000
  C   C367      1.0  0.24555  0.21661  0.52615  1.0000
  H   H299      1.0  0.17878  0.49860  0.72581  1.0000
  H   H300      1.0  0.24645  0.45014  0.58961  1.0000
  C   C368      1.0  0.24635  0.46617  0.61859  1.0000
  H   H301      1.0  0.24673  0.13909  0.77842  1.0000
  C   C369      1.0  0.24697  0.20665  0.60162  1.0000
  H   H302      1.0  0.24640  0.17019  0.56666  1.0000
  H   H303      1.0  0.19751  0.82110  0.37868  1.0000
  C   C370      1.0  0.15954  0.75974  0.04754  1.0000
  C   C371      1.0  0.22701  0.67657  0.01871  1.0000
  H   H304      1.0  0.01089  0.63260  0.24473  1.0000
  H   H305      1.0  0.13572  0.81466  0.33776  1.0000
  H   H306      1.0  0.13971  0.87086  0.28419  1.0000
  C   C372      1.0  0.23679  0.75971  0.16720  1.0000
  C   C373      1.0  0.16650  0.58925  0.40311  1.0000
  C   C374      1.0  0.15277  0.60934  0.40754  1.0000
  S   S58       1.0  0.17320  0.86813  0.22088  1.0000
  C   C375      1.0  0.00751  0.64944  0.18059  1.0000
  H   H307      1.0  0.04920  0.72635  0.16891  1.0000
  Fe  Fe28      1.0  0.13341  0.70394  0.25001  1.0000
  S   S59       1.0  0.10328  0.71499  0.27486  1.0000
  S   S60       1.0  0.14551  0.66723  0.24652  1.0000
  Fe  Fe29      1.0  0.13960  0.75216  0.22878  1.0000
  S   S61       1.0  0.10999  0.76713  0.25140  1.0000
  S   S62       1.0  0.16374  0.77081  0.20291  1.0000
  Fe  Fe30      1.0  0.12353  0.74144  0.27893  1.0000
  S   S63       1.0  0.12661  0.75322  0.31144  1.0000
  Fe  Fe31      1.0  0.09239  0.73960  0.24516  1.0000
  S   S64       1.0  0.05756  0.74945  0.23504  1.0000
  S   S65       1.0  0.15434  0.72832  0.25658  1.0000
  S   S66       1.0  0.12114  0.72669  0.22006  1.0000
  H   H308      1.0  0.15396  0.87420  0.32512  1.0000
  H   H309      1.0  0.23282  0.69881  0.20138  1.0000
  C   C376      1.0  0.03757  0.73052  0.24188  1.0000
  C   C377      1.0  0.01736  0.73632  0.23280  1.0000
  C   C378      1.0  0.18040  0.86174  0.29976  1.0000
  C   C379      1.0  0.23513  0.80159  0.01215  1.0000
  C   C380      1.0  0.02590  0.69443  0.25961  1.0000
  C   C381      1.0  0.04171  0.70959  0.25549  1.0000
  H   H310      1.0  0.01403  0.75253  0.22235  1.0000
  H   H311      1.0  0.03409  0.66008  0.22188  1.0000
  H   H312      1.0  0.02926  0.67820  0.27004  1.0000
  H   H313      1.0  0.05716  0.70501  0.26268  1.0000
  C   C382      1.0  0.15358  0.74535  0.31936  1.0000
  C   C383      1.0  0.16747  0.72633  0.31232  1.0000
  C   C384      1.0  0.18832  0.71934  0.31980  1.0000
  C   C385      1.0  0.19548  0.73117  0.33443  1.0000
  C   C386      1.0  0.18180  0.75042  0.34133  1.0000
  C   C387      1.0  0.16078  0.75738  0.33390  1.0000
  H   H314      1.0  0.16179  0.71641  0.30187  1.0000
  C   C388      1.0  0.21288  0.66622  0.23948  1.0000
  H   H315      1.0  0.18711  0.75953  0.35284  1.0000
  H   H316      1.0  0.14989  0.77181  0.33971  1.0000
  C   C389      1.0  0.21992  0.78758  0.00983  1.0000
  C   C390      1.0  0.20635  0.88817  0.28220  1.0000
  C   C391      1.0  0.22101  0.98518  0.08815  1.0000
  C   C392      1.0  0.05611  0.64935  0.11719  1.0000
  S   S67       1.0  0.22989  0.70401  0.08053  1.0000
  H   H317      1.0  0.16623  0.91171  0.32084  1.0000
  S   S68       1.0  0.22086  0.72025  0.34483  1.0000
  C   C393      1.0  0.17068  0.84120  0.21564  1.0000
  C   C394      1.0  0.18748  0.82948  0.20155  1.0000
  C   C395      1.0  0.18517  0.80786  0.19782  1.0000
  C   C396      1.0  0.16630  0.79776  0.20831  1.0000
  C   C397      1.0  0.14961  0.80943  0.22254  1.0000
  C   C398      1.0  0.15174  0.83118  0.22605  1.0000
  H   H318      1.0  0.20211  0.83715  0.19334  1.0000
  H   H319      1.0  0.19810  0.79891  0.18694  1.0000
  H   H320      1.0  0.13490  0.80198  0.23056  1.0000
  H   H321      1.0  0.13872  0.84029  0.23682  1.0000
  C   C399      1.0  0.19266  0.81376  0.29071  1.0000
  C   C400      1.0  0.21979  0.64347  0.29109  1.0000
  H   H322      1.0  0.04687  0.70363  0.09070  1.0000
  H   H323      1.0  0.02585  0.76349  0.17109  1.0000
  H   H324      1.0  0.12371  0.76854  0.04920  1.0000
  C   C401      1.0  0.11859  0.81394  0.28470  1.0000
  C   C402      1.0  0.18968  0.67300  0.24395  1.0000
  C   C403      1.0  0.17475  0.65924  0.24056  1.0000
  C   C404      1.0  0.18325  0.63865  0.23255  1.0000
  C   C405      1.0  0.23118  0.71578  0.01754  1.0000
  H   H325      1.0  0.18344  0.68865  0.25045  1.0000
  H   H326      1.0  0.17180  0.62788  0.22993  1.0000
  C   C406      1.0  0.05109  0.65327  0.13969  1.0000
  C   C407      1.0  0.23598  0.97532  0.18822  1.0000
  C   C408      1.0  0.04823  0.68957  0.10437  1.0000
  H   H327      1.0  0.13902  0.64282  0.39371  1.0000
  H   H328      1.0  0.05221  0.63903  0.15321  1.0000
  C   C409      1.0  0.05461  0.66748  0.09953  1.0000
  P   P14       1.0  0.15676  0.64887  0.34528  1.0000
  C   C410      1.0  0.15275  0.67501  0.35692  1.0000
  C   C411      1.0  0.18135  0.64725  0.32386  1.0000
  H   H329      1.0  0.16912  0.62503  0.30579  1.0000
  H   H330      1.0  0.22735  0.76440  0.30257  1.0000
  C   C412      1.0  0.18279  0.63395  0.30672  1.0000
  Fe  Fe32      1.0  0.20716  0.87857  0.20726  1.0000
  C   C413      1.0  0.20325  0.76822  0.14913  1.0000
  C   C414      1.0  0.16709  0.67811  0.37158  1.0000
  C   C415      1.0  0.16403  0.69823  0.38072  1.0000
  C   C416      1.0  0.14622  0.71511  0.37588  1.0000
  C   C417      1.0  0.13155  0.71195  0.36179  1.0000
  C   C418      1.0  0.13492  0.69213  0.35210  1.0000
  C   C419      1.0  0.13229  0.64675  0.33318  1.0000
  C   C420      1.0  0.12983  0.65750  0.31108  1.0000
  C   C421      1.0  0.11100  0.65572  0.30162  1.0000
  C   C422      1.0  0.09433  0.64359  0.31420  1.0000
  C   C423      1.0  0.09649  0.63312  0.33630  1.0000
  C   C424      1.0  0.11539  0.63466  0.34579  1.0000
  H   H331      1.0  0.20652  0.72643  0.27447  1.0000
  H   H332      1.0  0.19923  0.66859  0.33752  1.0000
  C   C425      1.0  0.22612  0.79742  0.14757  1.0000
  C   C426      1.0  0.17999  0.75572  0.03351  1.0000
  C   C427      1.0  0.21975  0.75071  0.21992  1.0000
  H   H333      1.0  0.06096  0.63220  0.11348  1.0000
  C   C428      1.0  0.21862  0.65662  0.30809  1.0000
  C   C429      1.0  0.16052  0.76242  0.00085  1.0000
  H   H334      1.0  0.14420  0.73096  0.38244  1.0000
  H   H335      1.0  0.11815  0.72537  0.35746  1.0000
  H   H336      1.0  0.12376  0.69054  0.34060  1.0000
  H   H337      1.0  0.14247  0.66717  0.30103  1.0000
  H   H338      1.0  0.10940  0.66372  0.28442  1.0000
  H   H339      1.0  0.07976  0.64237  0.30675  1.0000
  H   H340      1.0  0.08350  0.62377  0.34604  1.0000
  H   H341      1.0  0.11669  0.62643  0.36291  1.0000
  C   C430      1.0  0.21217  0.80014  0.25615  1.0000
  H   H342      1.0  0.20084  0.79241  0.32173  1.0000
  H   H343      1.0  0.18830  0.76303  0.14577  1.0000
  C   C431      1.0  0.19440  0.90429  0.29527  1.0000
  C   C432      1.0  0.20387  0.79500  0.30344  1.0000
  H   H344      1.0  0.21606  0.75351  0.08603  1.0000
  H   H345      1.0  0.19843  0.66892  0.19090  1.0000
  C   C433      1.0  0.21601  0.72944  0.25771  1.0000
  C   C434      1.0  0.19958  0.65834  0.32456  1.0000
  H   H346      1.0  0.17582  0.70100  0.39107  1.0000
  H   H347      1.0  0.22430  0.67678  0.24249  1.0000
  C   C435      1.0  0.20657  0.63190  0.22796  1.0000
  H   H348      1.0  0.05824  0.66439  0.08211  1.0000
  H   H349      1.0  0.14430  0.61090  0.42455  1.0000
  C   C436      1.0  0.24062  0.78225  0.16043  1.0000
  H   H350      1.0  0.18787  0.57160  0.37763  1.0000
  C   C437      1.0  0.99741  0.70947  0.17925  1.0000
  P   P15       1.0  0.17191  0.83398  0.30432  1.0000
  H   H351      1.0  0.10444  0.87064  0.26995  1.0000
  H   H352      1.0  0.04880  0.70046  0.21024  1.0000
  C   C438      1.0  0.02095  0.70762  0.17538  1.0000
  H   H353      1.0  0.08433  0.65684  0.16266  1.0000
  C   C439      1.0  0.13955  0.76528  0.03829  1.0000
  H   H354      1.0  0.19618  0.80235  0.13212  1.0000
  C   C440      1.0  0.16504  0.81040  0.38142  1.0000
  H   H355      1.0  0.11916  0.65582  0.17837  1.0000
  H   H356      1.0  0.19181  0.75732  0.24595  1.0000
  H   H357      1.0  0.21302  0.61590  0.22206  1.0000
  H   H358      1.0  0.11915  0.67729  0.20951  1.0000
  C   C441      1.0  0.14991  0.62745  0.39003  1.0000
  C   C442      1.0  0.02364  0.65240  0.21357  1.0000
  H   H359      1.0  0.18795  0.83019  0.25691  1.0000
  C   C443      1.0  0.17449  0.60529  0.36357  1.0000
  H   H360      1.0  0.16873  0.57523  0.41668  1.0000
  H   H361      1.0  0.20300  0.79049  0.01858  1.0000
  H   H362      1.0  0.23012  0.81438  0.02324  1.0000
  S   S69       1.0  0.21784  0.89428  0.17140  1.0000
  C   C444      1.0  0.21783  0.75288  0.16169  1.0000
  H   H363      1.0  0.20036  0.83436  0.33769  1.0000
  H   H364      1.0  0.22131  0.96523  0.12134  1.0000
  C   C445      1.0  0.03110  0.72731  0.17209  1.0000
  H   H365      1.0  0.20808  0.66427  0.09195  1.0000
  C   C446      1.0  0.22345  0.78167  0.26897  1.0000
  H   H366      1.0  0.23836  0.72814  0.02377  1.0000
  H   H367      1.0  0.22881  0.81486  0.14284  1.0000
  C   C447      1.0  0.24400  0.84045  0.10162  1.0000
  C   C448      1.0  0.14003  0.76641  0.01498  1.0000
  H   H368      1.0  0.11289  0.79802  0.28447  1.0000
  C   C449      1.0  0.01792  0.74843  0.17308  1.0000
  C   C450      1.0  0.14768  0.80874  0.36975  1.0000
  C   C451      1.0  0.17730  0.58721  0.38113  1.0000
  H   H369      1.0  0.21272  0.76403  0.20776  1.0000
  C   C452      1.0  0.11372  0.85483  0.27678  1.0000
  C   C453      1.0  0.04462  0.67541  0.14470  1.0000
  C   C454      1.0  0.10377  0.66585  0.18494  1.0000
  H   H370      1.0  0.03831  0.71078  0.13020  1.0000
  H   H371      1.0  0.19999  0.92062  0.29353  1.0000
  H   H372      1.0  0.14829  0.79789  0.29858  1.0000
  H   H373      1.0  0.21510  0.80209  0.23780  1.0000
  H   H374      1.0  0.20899  0.85490  0.27396  1.0000
  C   C455      1.0  0.23646  0.71597  0.25206  1.0000
  H   H375      1.0  0.19533  0.75113  0.04104  1.0000
  C   C456      1.0  0.22588  0.99783  0.18875  1.0000
  C   C457      1.0  0.14929  0.81626  0.34643  1.0000
  C   C458      1.0  0.16849  0.87803  0.31292  1.0000
  C   C459      1.0  0.18390  0.81983  0.36981  1.0000
  H   H376      1.0  0.22259  0.97060  0.07958  1.0000
  H   H377      1.0  0.23235  0.66570  0.30840  1.0000
  S   S70       1.0  0.22626  0.76930  0.38090  1.0000
  H   H378      1.0  0.20284  0.62201  0.27712  1.0000
  H   H379      1.0  0.18093  0.66517  0.37562  1.0000
  H   H380      1.0  0.08386  0.69947  0.22545  1.0000
  C   C460      1.0  0.22141  0.64562  0.23168  1.0000
  H   H381      1.0  0.19895  0.70468  0.31422  1.0000
  H   H382      1.0  0.22124  0.89201  0.27057  1.0000
  H   H383      1.0  0.13308  0.80139  0.37871  1.0000
  C   C461      1.0  0.13867  0.81393  0.29275  1.0000
  H   H384      1.0  0.09073  0.83426  0.27014  1.0000
  C   C462      1.0  0.08393  0.66651  0.17610  1.0000
  C   C463      1.0  0.20770  0.74682  0.24165  1.0000
  C   C464      1.0  0.18553  0.82731  0.34654  1.0000
  S   S71       1.0  0.21742  0.90529  0.22302  1.0000
  C   C465      1.0  0.16866  0.79117  0.09500  1.0000
  C   C466      1.0  0.19077  0.78285  0.08675  1.0000
  C   C467      1.0  0.19889  0.75999  0.09236  1.0000
  C   C468      1.0  0.18520  0.74551  0.10667  1.0000
  C   C469      1.0  0.16323  0.75389  0.11580  1.0000
  C   C470      1.0  0.15484  0.77672  0.10926  1.0000
  P   P16       1.0  0.14609  0.73547  0.13565  1.0000
  C   C471      1.0  0.13142  0.72094  0.12047  1.0000
  C   C472      1.0  0.16408  0.71511  0.15255  1.0000
  C   C473      1.0  0.17596  0.69564  0.14408  1.0000
  C   C474      1.0  0.18856  0.67915  0.15779  1.0000
  C   C475      1.0  0.18933  0.68198  0.18001  1.0000
  C   C476      1.0  0.17841  0.70170  0.18819  1.0000
  C   C477      1.0  0.16598  0.71827  0.17449  1.0000
  C   C478      1.0  0.12596  0.69929  0.12965  1.0000
  C   C479      1.0  0.11423  0.68824  0.11808  1.0000
  C   C480      1.0  0.10770  0.69880  0.09737  1.0000
  C   C481      1.0  0.11266  0.72054  0.08836  1.0000
  C   C482      1.0  0.12435  0.73164  0.09995  1.0000
  C   C483      1.0  0.12549  0.75120  0.15453  1.0000
  C   C484      1.0  0.10449  0.74398  0.16279  1.0000
  C   C485      1.0  0.08906  0.75544  0.17831  1.0000
  C   C486      1.0  0.09449  0.77403  0.18585  1.0000
  C   C487      1.0  0.11534  0.78124  0.17786  1.0000
  C   C488      1.0  0.13080  0.76986  0.16233  1.0000
  H   H385      1.0  0.16242  0.80895  0.09068  1.0000
  H   H386      1.0  0.20178  0.79411  0.07624  1.0000
  C   C489      1.0  0.16844  0.82526  0.33460  1.0000
  H   H387      1.0  0.19220  0.72799  0.11099  1.0000
  H   H388      1.0  0.13782  0.78354  0.11558  1.0000
  H   H389      1.0  0.17545  0.69309  0.12694  1.0000
  C   C490      1.0  0.22030  0.98211  0.11160  1.0000
  C   C491      1.0  0.10607  0.83436  0.27676  1.0000
  H   H390      1.0  0.17938  0.70413  0.20527  1.0000
  H   H391      1.0  0.15776  0.73336  0.18129  1.0000
  H   H392      1.0  0.13063  0.69100  0.14584  1.0000
  H   H393      1.0  0.11029  0.67145  0.12515  1.0000
  H   H394      1.0  0.09876  0.69014  0.08836  1.0000
  H   H395      1.0  0.10745  0.72878  0.07240  1.0000
  H   H396      1.0  0.12768  0.74862  0.09304  1.0000
  H   H397      1.0  0.10017  0.72914  0.15791  1.0000
  H   H398      1.0  0.07321  0.74940  0.18530  1.0000
  H   H399      1.0  0.08284  0.78233  0.19855  1.0000
  H   H400      1.0  0.11996  0.79507  0.18443  1.0000
  H   H401      1.0  0.14725  0.77512  0.15725  1.0000
  C   C492      1.0  0.16100  0.62566  0.36795  1.0000
  C   C493      1.0  0.19935  0.86702  0.28427  1.0000
  C   C494      1.0  0.19675  0.81606  0.26699  1.0000
  Fe  Fe33      1.0  0.23940  0.74313  0.35807  1.0000
  C   C495      1.0  0.13377  0.85489  0.28495  1.0000
  C   C496      1.0  0.14619  0.83442  0.29335  1.0000
  C   C497      1.0  0.20756  0.79039  0.14173  1.0000
  H   H402      1.0  0.16399  0.80432  0.39940  1.0000
  C   C498      1.0  0.02250  0.65866  0.19035  1.0000
  C   C499      1.0  0.17542  0.89925  0.31060  1.0000
  P   P17       1.0  0.03802  0.68034  0.17382  1.0000
  C   C500      1.0  0.06392  0.67926  0.18489  1.0000
  C   C501      1.0  0.04332  0.69356  0.12685  1.0000
  C   C502      1.0  0.06409  0.69099  0.20283  1.0000
  C   C503      1.0  0.08394  0.69038  0.21155  1.0000
  C   C504      1.0  0.10380  0.67788  0.20258  1.0000
  Fe  Fe34      1.0  0.23077  0.91942  0.18755  1.0000
  H   H403      1.0  0.22087  0.62498  0.10932  1.0000
  C   C505      1.0  0.21912  0.77900  0.29258  1.0000
  S   S72       1.0  0.22334  0.95722  0.17594  1.0000
  H   H404      1.0  0.19770  0.66413  0.15124  1.0000
  H   H405      1.0  0.18290  0.60327  0.34667  1.0000
  H   H406      1.0  0.21394  0.73588  0.16758  1.0000
  C   C506      1.0  0.20196  0.63202  0.29050  1.0000
  H   H407      1.0  0.12450  0.77031  0.00785  1.0000
  C   C507      1.0  0.22458  0.65996  0.09700  1.0000
  H   H408      1.0  0.15937  0.75848  0.06558  1.0000
  H   H409      1.0  0.23975  0.86606  0.12342  1.0000
  C   C508      1.0  0.00583  0.70010  0.25029  1.0000
  S   S73       1.0  0.23915  0.85466  0.21022  1.0000
  C   C509      1.0  0.24454  0.69644  0.18618  1.0000
  C   C510      1.0  0.23883  0.67645  0.09344  1.0000
  H   H410      1.0  0.23708  0.66286  0.18667  1.0000
  C   C511      1.0  0.24014  0.73707  0.21395  1.0000
  H   H411      1.0  0.23429  0.64246  0.27806  1.0000
  C   C512      1.0  0.23649  0.69290  0.02602  1.0000
  S   S74       1.0  0.24400  0.82693  0.34998  1.0000
  H   H412      1.0  0.24031  0.69450  0.49317  1.0000
  H   H413      1.0  0.21749  0.99791  0.14099  1.0000
  C   C513      1.0  0.01046  0.63673  0.22666  1.0000
  C   C514      1.0  0.23179  0.63779  0.10685  1.0000
  C   C515      1.0  0.00156  0.72114  0.23691  1.0000
  H   H414      1.0  0.00544  0.65483  0.16300  1.0000
  H   H415      1.0  0.23033  0.84867  0.09258  1.0000
  H   H416      1.0  0.24271  0.70229  0.26443  1.0000
  C   C516      1.0  0.21227  0.68313  0.00275  1.0000
  H   H417      1.0  0.24452  0.81366  0.30554  1.0000
  H   H418      1.0  0.23097  0.65889  0.02561  1.0000
  H   H419      1.0  0.23533  0.76925  0.26064  1.0000
  C   C517      1.0  0.18072  0.75776  0.00997  1.0000
  C   C518      1.0  0.21649  0.72252  0.00149  1.0000
  C   C519      1.0  0.24641  0.67614  0.17768  1.0000
  C   C520      1.0  0.18682  0.70318  0.89821  1.0000
  H   H420      1.0  0.23088  0.77888  0.63950  1.0000
  H   H421      1.0  0.22641  0.73568  0.64770  1.0000
  S   S75       1.0  0.17709  0.91936  0.70818  1.0000
  Fe  Fe35      1.0  0.21022  0.92773  0.68774  1.0000
  S   S76       1.0  0.21404  0.61848  0.73406  1.0000
  S   S77       1.0  0.22133  0.60266  0.68328  1.0000
  Fe  Fe36      1.0  0.20287  0.63183  0.70034  1.0000
  S   S78       1.0  0.16646  0.64253  0.69613  1.0000
  Fe  Fe37      1.0  0.23407  0.59011  0.71640  1.0000
  C   C521      1.0  0.22175  0.80489  0.58699  1.0000
  Fe  Fe38      1.0  0.09262  0.78964  0.76215  1.0000
  S   S79       1.0  0.11119  0.79715  0.72686  1.0000
  S   S80       1.0  0.05617  0.80172  0.77477  1.0000
  Fe  Fe39      1.0  0.13172  0.75662  0.77889  1.0000
  S   S81       1.0  0.15276  0.76029  0.74485  1.0000
  S   S82       1.0  0.14606  0.73250  0.80735  1.0000
  Fe  Fe40      1.0  0.14089  0.79744  0.74404  1.0000
  S   S83       1.0  0.17151  0.81451  0.73148  1.0000
  Fe  Fe41      1.0  0.12180  0.75964  0.73044  1.0000
  S   S84       1.0  0.11964  0.74323  0.70046  1.0000
  S   S85       1.0  0.12151  0.79379  0.77922  1.0000
  S   S86       1.0  0.10152  0.75198  0.76466  1.0000
  C   C522      1.0  0.16572  0.69263  0.62520  1.0000
  H   H422      1.0  0.22176  0.77953  0.52343  1.0000
  C   C523      1.0  0.22228  0.81494  0.63039  1.0000
  C   C524      1.0  0.19501  0.77812  0.95277  1.0000
  C   C525      1.0  0.21934  0.74280  0.94819  1.0000
  C   C526      1.0  0.18705  0.86515  0.86232  1.0000
  H   H423      1.0  0.19496  0.71096  0.98240  1.0000
  C   C527      1.0  0.24505  0.78897  0.78796  1.0000
  C   C528      1.0  0.23570  0.80999  0.79444  1.0000
  H   H424      1.0  0.21434  0.81124  0.83644  1.0000
  C   C529      1.0  0.20696  0.82646  0.84335  1.0000
  C   C530      1.0  0.15418  0.67069  0.69777  1.0000
  C   C531      1.0  0.16643  0.68697  0.70128  1.0000
  C   C532      1.0  0.15585  0.70921  0.70310  1.0000
  C   C533      1.0  0.13327  0.71536  0.70020  1.0000
  C   C534      1.0  0.12129  0.69921  0.69607  1.0000
  C   C535      1.0  0.13157  0.67688  0.69521  1.0000
  H   H425      1.0  0.18409  0.68244  0.70224  1.0000
  H   H426      1.0  0.16526  0.72165  0.70616  1.0000
  H   H427      1.0  0.10379  0.70390  0.69422  1.0000
  H   H428      1.0  0.12201  0.66440  0.69247  1.0000
  C   C536      1.0  0.20024  0.75650  0.83715  1.0000
  C   C537      1.0  0.20104  0.73358  0.83595  1.0000
  C   C538      1.0  0.18449  0.72642  0.82652  1.0000
  C   C539      1.0  0.16753  0.74217  0.81753  1.0000
  C   C540      1.0  0.16726  0.76521  0.81794  1.0000
  C   C541      1.0  0.18339  0.77231  0.82804  1.0000
  H   H429      1.0  0.20211  0.66204  0.93582  1.0000
  H   H430      1.0  0.18460  0.70861  0.82654  1.0000
  H   H431      1.0  0.15421  0.77750  0.81116  1.0000
  H   H432      1.0  0.18276  0.79005  0.82891  1.0000
  C   C542      1.0  0.17198  0.84377  0.72680  1.0000
  C   C543      1.0  0.15246  0.85957  0.72841  1.0000
  C   C544      1.0  0.15403  0.88287  0.72277  1.0000
  C   C545      1.0  0.17507  0.89028  0.71575  1.0000
  C   C546      1.0  0.19440  0.87434  0.71470  1.0000
  C   C547      1.0  0.19288  0.85123  0.72012  1.0000
  H   H433      1.0  0.13625  0.85386  0.73353  1.0000
  H   H434      1.0  0.13897  0.89513  0.72357  1.0000
  H   H435      1.0  0.21059  0.87980  0.70995  1.0000
  H   H436      1.0  0.20797  0.83902  0.71889  1.0000
  C   C548      1.0  0.20692  0.86760  0.65217  1.0000
  C   C549      1.0  0.22926  0.56790  0.63360  1.0000
  C   C550      1.0  0.02603  0.80944  0.71855  1.0000
  C   C551      1.0  0.04240  0.80631  0.73293  1.0000
  C   C552      1.0  0.03600  0.80447  0.75637  1.0000
  C   C553      1.0  0.01309  0.80542  0.76532  1.0000
  H   H437      1.0  0.16047  0.76278  0.98298  1.0000
  H   H438      1.0  0.03102  0.81138  0.70042  1.0000
  H   H439      1.0  0.05992  0.80588  0.72586  1.0000
  H   H440      1.0  0.16395  0.53056  0.64557  1.0000
  C   C554      1.0  0.19262  0.52521  0.70191  1.0000
  H   H441      1.0  0.22582  0.76185  0.72619  1.0000
  C   C555      1.0  0.21792  0.50204  0.59817  1.0000
  C   C556      1.0  0.23789  0.65526  0.93465  1.0000
  C   C557      1.0  0.20318  0.51789  0.66306  1.0000
  C   C558      1.0  0.20174  0.53202  0.67945  1.0000
  H   H442      1.0  0.18021  0.58427  0.57505  1.0000
  H   H443      1.0  0.18610  0.79041  0.96335  1.0000
  P   P18       1.0  0.20749  0.75213  0.99252  1.0000
  H   H444      1.0  0.23027  0.77015  0.60142  1.0000
  H   H445      1.0  0.22829  0.70170  0.67731  1.0000
  H   H446      1.0  0.23115  0.74720  0.55285  1.0000
  H   H447      1.0  0.23747  0.65872  0.95167  1.0000
  S   S87       1.0  0.21940  0.76550  0.85102  1.0000
  C   C559      1.0  0.19011  0.54429  0.62067  1.0000
  C   C560      1.0  0.16778  0.54219  0.63020  1.0000
  C   C561      1.0  0.15008  0.55527  0.61994  1.0000
  C   C562      1.0  0.15454  0.57044  0.60009  1.0000
  H   H448      1.0  0.20819  0.77162  0.89713  1.0000
  C   C563      1.0  0.24628  0.66859  0.62893  1.0000
  H   H449      1.0  0.19209  0.53602  0.71453  1.0000
  H   H450      1.0  0.23534  0.85139  0.68447  1.0000
  C   C564      1.0  0.19502  0.62920  0.85875  1.0000
  C   C565      1.0  0.19535  0.78302  0.92929  1.0000
  H   H451      1.0  0.20785  0.54820  0.67511  1.0000
  H   H452      1.0  0.23245  0.66078  0.63900  1.0000
  H   H453      1.0  0.00097  0.76231  0.71055  1.0000
  C   C566      1.0  0.24134  0.53133  0.71885  1.0000
  S   S88       1.0  0.24611  0.70443  0.87721  1.0000
  C   C567      1.0  0.01477  0.75552  0.71989  1.0000
  H   H454      1.0  0.14081  0.58061  0.59221  1.0000
  H   H455      1.0  0.21186  0.57554  0.63620  1.0000
  H   H456      1.0  0.13288  0.55368  0.62745  1.0000
  H   H457      1.0  0.21159  0.56116  0.59292  1.0000
  C   C568      1.0  0.23678  0.88577  0.74763  1.0000
  C   C569      1.0  0.21979  0.74781  0.92476  1.0000
  C   C570      1.0  0.16904  0.88564  0.66285  1.0000
  H   H458      1.0  0.18302  0.67399  0.65233  1.0000
  C   C571      1.0  0.19533  0.78556  0.67421  1.0000
  C   C572      1.0  0.23052  0.87978  0.79498  1.0000
  C   C573      1.0  0.17840  0.84494  0.67174  1.0000
  H   H459      1.0  0.18272  0.73834  0.90204  1.0000
  H   H460      1.0  0.15710  0.68166  0.86644  1.0000
  H   H461      1.0  0.12031  0.63758  0.93346  1.0000
  C   C574      1.0  0.15180  0.71611  0.87230  1.0000
  C   C575      1.0  0.20065  0.84632  0.66163  1.0000
  H   H462      1.0  0.21200  0.68125  0.84788  1.0000
  C   C576      1.0  0.19117  0.88714  0.65277  1.0000
  C   C577      1.0  0.18983  0.76582  0.68827  1.0000
  H   H463      1.0  0.22196  0.80104  0.57019  1.0000
  H   H464      1.0  0.17331  0.82890  0.67987  1.0000
  C   C578      1.0  0.16262  0.86454  0.67221  1.0000
  C   C579      1.0  0.17661  0.72572  0.89505  1.0000
  H   H465      1.0  0.14425  0.66330  0.90843  1.0000
  P   P19       1.0  0.22065  0.82100  0.65889  1.0000
  C   C580      1.0  0.15912  0.73219  0.88214  1.0000
  C   C581      1.0  0.21747  0.76837  0.71155  1.0000
  H   H466      1.0  0.15182  0.74981  0.87899  1.0000
  S   S89       1.0  0.23657  0.90092  0.67457  1.0000
  H   H467      1.0  0.22029  0.67161  0.80926  1.0000
  C   C582      1.0  0.20112  0.75706  0.70677  1.0000
  S   S90       1.0  0.23939  0.91168  0.60959  1.0000
  C   C583      1.0  0.11314  0.75255  0.56330  1.0000
  C   C584      1.0  0.09246  0.76046  0.57524  1.0000
  C   C585      1.0  0.09167  0.76868  0.59554  1.0000
  C   C586      1.0  0.11152  0.76905  0.60394  1.0000
  C   C587      1.0  0.13241  0.76125  0.59197  1.0000
  C   C588      1.0  0.13302  0.75287  0.57163  1.0000
  P   P20       1.0  0.15831  0.76097  0.60273  1.0000
  C   C589      1.0  0.15393  0.78150  0.62203  1.0000
  C   C590      1.0  0.16646  0.73325  0.61801  1.0000
  C   C591      1.0  0.17959  0.73087  0.63537  1.0000
  C   C592      1.0  0.18532  0.70960  0.64777  1.0000
  H   H468      1.0  0.22549  0.69973  0.61838  1.0000
  H   H469      1.0  0.19686  0.74177  0.71770  1.0000
  C   C593      1.0  0.15973  0.71392  0.61287  1.0000
  C   C594      1.0  0.16082  0.80294  0.61517  1.0000
  C   C595      1.0  0.15591  0.81901  0.62998  1.0000
  C   C596      1.0  0.14424  0.81376  0.65173  1.0000
  C   C597      1.0  0.13815  0.79221  0.65897  1.0000
  C   C598      1.0  0.14287  0.77618  0.64422  1.0000
  C   C599      1.0  0.17919  0.76763  0.57844  1.0000
  C   C600      1.0  0.17397  0.78595  0.56158  1.0000
  C   C601      1.0  0.18930  0.79028  0.54188  1.0000
  C   C602      1.0  0.20986  0.77626  0.53874  1.0000
  C   C603      1.0  0.21515  0.75802  0.55536  1.0000
  C   C604      1.0  0.19996  0.75370  0.57519  1.0000
  H   H470      1.0  0.11377  0.74619  0.54753  1.0000
  H   H471      1.0  0.07706  0.76025  0.56874  1.0000
  H   H472      1.0  0.07562  0.77483  0.60474  1.0000
  H   H473      1.0  0.11036  0.77555  0.61967  1.0000
  H   H474      1.0  0.14889  0.74654  0.56218  1.0000
  H   H475      1.0  0.18528  0.74543  0.63946  1.0000
  H   H476      1.0  0.19504  0.70785  0.66141  1.0000
  H   H477      1.0  0.18677  0.79192  0.65972  1.0000
  C   C605      1.0  0.20651  0.75766  0.96244  1.0000
  H   H478      1.0  0.14988  0.71514  0.59942  1.0000
  H   H479      1.0  0.16989  0.80742  0.59847  1.0000
  H   H480      1.0  0.16123  0.83555  0.62463  1.0000
  H   H481      1.0  0.14020  0.82622  0.66316  1.0000
  H   H482      1.0  0.12972  0.78786  0.67607  1.0000
  H   H483      1.0  0.13757  0.75969  0.65014  1.0000
  H   H484      1.0  0.15792  0.79673  0.56354  1.0000
  H   H485      1.0  0.18520  0.80441  0.52892  1.0000
  C   C606      1.0  0.22285  0.78825  0.69761  1.0000
  C   C607      1.0  0.22392  0.50325  0.61925  1.0000
  H   H486      1.0  0.20452  0.73938  0.58777  1.0000
  C   C608      1.0  0.17846  0.69048  0.64267  1.0000
  Fe  Fe42      1.0  0.23848  0.96546  0.66603  1.0000
  C   C609      1.0  0.19481  0.84550  0.87623  1.0000
  C   C610      1.0  0.00318  0.81012  0.72745  1.0000
  H   H487      1.0  0.22483  0.50740  0.74407  1.0000
  H   H488      1.0  0.02476  0.74561  0.77445  1.0000
  P   P21       1.0  0.20212  0.84691  0.79902  1.0000
  C   C611      1.0  0.17381  0.85555  0.79272  1.0000
  S   S91       1.0  0.23044  0.65290  0.68897  1.0000
  C   C612      1.0  0.18932  0.86547  0.83890  1.0000
  H   H489      1.0  0.00802  0.80416  0.78343  1.0000
  C   C613      1.0  0.20933  0.63894  0.81896  1.0000
  C   C614      1.0  0.16753  0.87683  0.78029  1.0000
  C   C615      1.0  0.14529  0.88360  0.77651  1.0000
  C   C616      1.0  0.12923  0.86912  0.78478  1.0000
  C   C617      1.0  0.13529  0.84803  0.79733  1.0000
  C   C618      1.0  0.15741  0.84138  0.80156  1.0000
  C   C619      1.0  0.22010  0.86696  0.78376  1.0000
  H   H490      1.0  0.17768  0.58642  0.94009  1.0000
  H   H491      1.0  0.13684  0.59911  0.94943  1.0000
  C   C620      1.0  0.23557  0.50975  0.72794  1.0000
  H   H492      1.0  0.18633  0.79872  0.92188  1.0000
  C   C621      1.0  0.21298  0.65987  0.82302  1.0000
  H   H493      1.0  0.21397  0.72133  0.84297  1.0000
  C   C622      1.0  0.24232  0.69061  0.61716  1.0000
  H   H494      1.0  0.18630  0.81662  0.77349  1.0000
  H   H495      1.0  0.18303  0.88074  0.82830  1.0000
  H   H496      1.0  0.23933  0.88807  0.72927  1.0000
  H   H497      1.0  0.18825  0.61704  0.87233  1.0000
  H   H498      1.0  0.17960  0.88831  0.77335  1.0000
  H   H499      1.0  0.14068  0.89989  0.76656  1.0000
  H   H500      1.0  0.11216  0.87414  0.78123  1.0000
  H   H501      1.0  0.12286  0.83673  0.80362  1.0000
  H   H502      1.0  0.16180  0.82503  0.81143  1.0000
  H   H503      1.0  0.15707  0.90092  0.66402  1.0000
  C   C623      1.0  0.18516  0.50415  0.70826  1.0000
  H   H504      1.0  0.00778  0.79265  0.67205  1.0000
  H   H505      1.0  0.21391  0.63461  0.80198  1.0000
  C   C624      1.0  0.10239  0.69691  0.74990  1.0000
  C   C625      1.0  0.08438  0.68465  0.75330  1.0000
  C   C626      1.0  0.08588  0.66307  0.76603  1.0000
  C   C627      1.0  0.10550  0.65369  0.77514  1.0000
  C   C628      1.0  0.12392  0.66566  0.77118  1.0000
  C   C629      1.0  0.12216  0.68750  0.75871  1.0000
  P   P22       1.0  0.14879  0.65319  0.78351  1.0000
  C   C630      1.0  0.14011  0.65290  0.81364  1.0000
  C   C631      1.0  0.15856  0.62565  0.77477  1.0000
  C   C632      1.0  0.17526  0.61068  0.78511  1.0000
  C   C633      1.0  0.18336  0.58971  0.77792  1.0000
  C   C634      1.0  0.17543  0.58386  0.75976  1.0000
  C   C635      1.0  0.15954  0.59906  0.74869  1.0000
  C   C636      1.0  0.15121  0.61988  0.75605  1.0000
  C   C637      1.0  0.12965  0.67310  0.82157  1.0000
  C   C638      1.0  0.12230  0.67344  0.84465  1.0000
  C   C639      1.0  0.12503  0.65354  0.86007  1.0000
  C   C640      1.0  0.13491  0.63324  0.85234  1.0000
  C   C641      1.0  0.14218  0.63284  0.82919  1.0000
  C   C642      1.0  0.17115  0.67013  0.77282  1.0000
  C   C643      1.0  0.18318  0.66845  0.75116  1.0000
  C   C644      1.0  0.20062  0.68124  0.74254  1.0000
  C   C645      1.0  0.20584  0.69624  0.75515  1.0000
  C   C646      1.0  0.19380  0.69828  0.77657  1.0000
  C   C647      1.0  0.17675  0.68505  0.78558  1.0000
  H   H506      1.0  0.10116  0.71368  0.74015  1.0000
  H   H507      1.0  0.06928  0.69191  0.74607  1.0000
  H   H508      1.0  0.07187  0.65362  0.76883  1.0000
  H   H509      1.0  0.10645  0.63698  0.78509  1.0000
  H   H510      1.0  0.13593  0.69733  0.75571  1.0000
  H   H511      1.0  0.18245  0.61547  0.79827  1.0000
  H   H512      1.0  0.19659  0.57838  0.78562  1.0000
  H   H513      1.0  0.18247  0.56805  0.75355  1.0000
  H   H514      1.0  0.15438  0.59514  0.73375  1.0000
  H   H515      1.0  0.13981  0.63175  0.74637  1.0000
  H   H516      1.0  0.12730  0.68873  0.80985  1.0000
  H   H517      1.0  0.11457  0.68927  0.85046  1.0000
  H   H518      1.0  0.11931  0.65383  0.87796  1.0000
  H   H519      1.0  0.13675  0.61775  0.86426  1.0000
  H   H520      1.0  0.14898  0.61679  0.82366  1.0000
  H   H521      1.0  0.17910  0.65724  0.74088  1.0000
  H   H522      1.0  0.21039  0.67938  0.72615  1.0000
  H   H523      1.0  0.21945  0.70600  0.74841  1.0000
  H   H524      1.0  0.19785  0.71005  0.78621  1.0000
  H   H525      1.0  0.16818  0.68668  0.80243  1.0000
  C   C648      1.0  0.21765  0.83234  0.61250  1.0000
  H   H526      1.0  0.14564  0.86349  0.68068  1.0000
  C   C649      1.0  0.16220  0.69365  0.87511  1.0000
  H   H527      1.0  0.23541  0.79681  0.70176  1.0000
  C   C650      1.0  0.19446  0.55945  0.60064  1.0000
  C   C651      1.0  0.17958  0.68689  0.88834  1.0000
  H   H528      1.0  0.22855  0.87756  0.81324  1.0000
  C   C652      1.0  0.23500  0.54472  0.63201  1.0000
  C   C653      1.0  0.04967  0.73994  0.74545  1.0000
  C   C654      1.0  0.05405  0.74159  0.72184  1.0000
  C   C655      1.0  0.03668  0.74981  0.70880  1.0000
  C   C656      1.0  0.20809  0.66536  0.84491  1.0000
  P   P23       1.0  0.04286  0.75406  0.67819  1.0000
  C   C657      1.0  0.06139  0.72952  0.66964  1.0000
  H   H529      1.0  0.04280  0.78677  0.63640  1.0000
  H   H530      1.0  0.06108  0.82087  0.62252  1.0000
  H   H531      1.0  0.13893  0.72137  0.86141  1.0000
  H   H532      1.0  0.17667  0.75745  0.68495  1.0000
  C   C658      1.0  0.21213  0.79675  0.67852  1.0000
  C   C659      1.0  0.21871  0.65426  0.90297  1.0000
  C   C660      1.0  0.08043  0.73197  0.65321  1.0000
  C   C661      1.0  0.09468  0.71290  0.64666  1.0000
  C   C662      1.0  0.09006  0.69125  0.65647  1.0000
  C   C663      1.0  0.07130  0.68865  0.67304  1.0000
  C   C664      1.0  0.05709  0.70772  0.67972  1.0000
  C   C665      1.0  0.05640  0.77904  0.66804  1.0000
  C   C666      1.0  0.07052  0.78572  0.68087  1.0000
  C   C667      1.0  0.08070  0.80516  0.67292  1.0000
  C   C668      1.0  0.22654  0.78750  0.60459  1.0000
  C   C669      1.0  0.20467  0.82614  0.86673  1.0000
  Fe  Fe43      1.0  0.23989  0.92476  0.64214  1.0000
  H   H533      1.0  0.20692  0.51563  0.58994  1.0000
  H   H534      1.0  0.06319  0.73457  0.75541  1.0000
  H   H535      1.0  0.07110  0.73717  0.71373  1.0000
  H   H536      1.0  0.22396  0.86911  0.64409  1.0000
  C   C670      1.0  0.24231  0.72788  0.65295  1.0000
  H   H537      1.0  0.20196  0.61188  0.91486  1.0000
  H   H538      1.0  0.21051  0.81074  0.87739  1.0000
  C   C671      1.0  0.06384  0.81095  0.63874  1.0000
  H   H539      1.0  0.08455  0.74854  0.64572  1.0000
  H   H540      1.0  0.10959  0.71493  0.63434  1.0000
  H   H541      1.0  0.10138  0.67649  0.65171  1.0000
  H   H542      1.0  0.06801  0.67187  0.68097  1.0000
  H   H543      1.0  0.04274  0.70551  0.69276  1.0000
  H   H544      1.0  0.07346  0.77632  0.69719  1.0000
  C   C672      1.0  0.07742  0.81775  0.65187  1.0000
  H   H545      1.0  0.16050  0.67773  0.62130  1.0000
  C   C673      1.0  0.13812  0.63200  0.92925  1.0000
  C   C674      1.0  0.14742  0.61033  0.93827  1.0000
  C   C675      1.0  0.17042  0.60318  0.93303  1.0000
  C   C676      1.0  0.18414  0.61768  0.91878  1.0000
  C   C677      1.0  0.17495  0.63951  0.90969  1.0000
  C   C678      1.0  0.15180  0.64656  0.91499  1.0000
  P   P24       1.0  0.19300  0.65776  0.89105  1.0000
  C   C679      1.0  0.00269  0.77856  0.66640  1.0000
  C   C680      1.0  0.20044  0.62355  0.83685  1.0000
  H   H546      1.0  0.09093  0.81060  0.68329  1.0000
  C   C681      1.0  0.21799  0.65739  0.92551  1.0000
  P   P25       1.0  0.21313  0.52746  0.63367  1.0000
  C   C682      1.0  0.19960  0.84619  0.82922  1.0000
  C   C683      1.0  0.20255  0.80908  0.77800  1.0000
  C   C684      1.0  0.21193  0.78812  0.77146  1.0000
  H   H547      1.0  0.24068  0.87822  0.58069  1.0000
  C   C685      1.0  0.24652  0.89897  0.75880  1.0000
  H   H548      1.0  0.19624  0.90351  0.64559  1.0000
  H   H549      1.0  0.01981  0.72333  0.65975  1.0000
  H   H550      1.0  0.19810  0.60710  0.83381  1.0000
  H   H551      1.0  0.20072  0.69888  0.90775  1.0000
  H   H552      1.0  0.08521  0.83290  0.64588  1.0000
  C   C686      1.0  0.21408  0.81991  0.79011  1.0000
  C   C687      1.0  0.22376  0.86972  0.76007  1.0000
  H   H553      1.0  0.20258  0.77979  0.76251  1.0000
  S   S92       1.0  0.21179  0.95069  0.65435  1.0000
  C   C688      1.0  0.20771  0.76783  0.91532  1.0000
  H   H554      1.0  0.21633  0.85951  0.75130  1.0000
  C   C689      1.0  0.22700  0.79251  0.62612  1.0000
  C   C690      1.0  0.19887  0.65019  0.86291  1.0000
  Fe  Fe44      1.0  0.24361  0.63713  0.72136  1.0000
  C   C691      1.0  0.24367  0.89580  0.78246  1.0000
  C   C692      1.0  0.24601  0.58144  0.63214  1.0000
  C   C693      1.0  0.05339  0.79167  0.64676  1.0000
  S   S93       1.0  0.23437  0.94472  0.70066  1.0000
  H   H555      1.0  0.23456  0.70225  0.53288  1.0000
  C   C694      1.0  0.21743  0.82731  0.59091  1.0000
  H   H556      1.0  0.21432  0.84089  0.57714  1.0000
  S   S94       1.0  0.23090  0.55428  0.73401  1.0000
  C   C695      1.0  0.02794  0.74604  0.75625  1.0000
  H   H557      1.0  0.19302  0.84521  0.89437  1.0000
  C   C696      1.0  0.17673  0.57250  0.59043  1.0000
  C   C697      1.0  0.01672  0.75766  0.66682  1.0000
  H   H558      1.0  0.17914  0.88011  0.86967  1.0000
  H   H559      1.0  0.21447  0.84987  0.61487  1.0000
  C   C698      1.0  0.01045  0.75349  0.74349  1.0000
  C   C699      1.0  0.00947  0.73962  0.65969  1.0000
  H   H560      1.0  0.24517  0.81833  0.80316  1.0000
  C   C700      1.0  0.23953  0.64790  0.89012  1.0000
  C   C701      1.0  0.20683  0.70605  0.99433  1.0000
  H   H561      1.0  0.20485  0.67048  0.99715  1.0000
  H   H562      1.0  0.24155  0.59930  0.63338  1.0000
  C   C702      1.0  0.22680  0.77012  0.99650  1.0000
  C   C703      1.0  0.24341  0.70855  0.66932  1.0000
  H   H563      1.0  0.22992  0.73630  0.91393  1.0000
  H   H564      1.0  0.22960  0.72763  0.95500  1.0000
  H   H565      1.0  0.24070  0.64502  0.87283  1.0000
  C   C704      1.0  0.23307  0.77793  0.77665  1.0000
  H   H566      1.0  0.24011  0.76148  0.77199  1.0000
  C   C705      1.0  0.44469  0.17494  0.21286  1.0000
  H   H567      1.0  0.27413  0.25670  0.14419  1.0000
  H   H568      1.0  0.40548  0.30529  0.29572  1.0000
  S   S95       1.0  0.27868  0.13143  0.15747  1.0000
  C   C706      1.0  0.25727  0.00603  0.20416  1.0000
  H   H569      1.0  0.38765  0.18434  0.21812  1.0000
  H   H570      1.0  0.33370  0.00543  0.25251  1.0000
  S   S96       1.0  0.27945  0.08667  0.21215  1.0000
  C   C707      1.0  0.41216  0.29053  0.30669  1.0000
  S   S97       1.0  0.29047  0.38276  0.20694  1.0000
  H   H571      1.0  0.39585  0.25698  0.27164  1.0000
  H   H572      1.0  0.44219  0.03693  0.21351  1.0000
  S   S98       1.0  0.29529  0.38126  0.15213  1.0000
  C   C708      1.0  0.35662  0.09532  0.26721  1.0000
  Fe  Fe45      1.0  0.29930  0.35642  0.18368  1.0000
  S   S99       1.0  0.32901  0.32870  0.18285  1.0000
  Fe  Fe46      1.0  0.28342  0.40715  0.17566  1.0000
  S   S100      1.0  0.29608  0.44092  0.16508  1.0000
  C   C709      1.0  0.25407  0.18086  0.47301  1.0000
  H   H573      1.0  0.42698  0.29303  0.19547  1.0000
  Fe  Fe47      1.0  0.34549  0.19487  0.26757  1.0000
  S   S101      1.0  0.36713  0.17269  0.29123  1.0000
  S   S102      1.0  0.33034  0.18305  0.24111  1.0000
  Fe  Fe48      1.0  0.35401  0.23796  0.28194  1.0000
  S   S103      1.0  0.37657  0.21914  0.30667  1.0000
  S   S104      1.0  0.34565  0.27583  0.27941  1.0000
  Fe  Fe49      1.0  0.39127  0.19786  0.27954  1.0000
  S   S105      1.0  0.42762  0.18352  0.26994  1.0000
  Fe  Fe50      1.0  0.35049  0.19589  0.31621  1.0000
  S   S106      1.0  0.34130  0.18184  0.35291  1.0000
  S   S107      1.0  0.37075  0.21858  0.25395  1.0000
  S   S108      1.0  0.32674  0.21618  0.29342  1.0000
  C   C710      1.0  0.29288  0.48532  0.16983  1.0000
  C   C711      1.0  0.44929  0.19890  0.27117  1.0000
  C   C712      1.0  0.47163  0.18973  0.26444  1.0000
  C   C713      1.0  0.25011  0.06845  0.13149  1.0000
  C   C714      1.0  0.27242  0.28814  0.38867  1.0000
  C   C715      1.0  0.46246  0.23178  0.27934  1.0000
  C   C716      1.0  0.44476  0.21985  0.27888  1.0000
  H   H574      1.0  0.47523  0.17346  0.25859  1.0000
  H   H575      1.0  0.27143  0.17737  0.18100  1.0000
  H   H576      1.0  0.45880  0.24816  0.28494  1.0000
  H   H577      1.0  0.42765  0.22681  0.28454  1.0000
  C   C717      1.0  0.31315  0.18965  0.36454  1.0000
  C   C718      1.0  0.29899  0.20689  0.35322  1.0000
  H   H578      1.0  0.43161  0.19178  0.39197  1.0000
  C   C719      1.0  0.26177  0.14518  0.13704  1.0000
  H   H579      1.0  0.28826  0.20847  0.27278  1.0000
  C   C720      1.0  0.30461  0.17786  0.38534  1.0000
  H   H580      1.0  0.30547  0.21653  0.33751  1.0000
  H   H581      1.0  0.26390  0.21947  0.42595  1.0000
  H   H582      1.0  0.31541  0.16452  0.39419  1.0000
  C   C721      1.0  0.33320  0.31388  0.20970  1.0000
  C   C722      1.0  0.32275  0.32264  0.22934  1.0000
  C   C723      1.0  0.32677  0.31087  0.25064  1.0000
  C   C724      1.0  0.34083  0.29007  0.25244  1.0000
  C   C725      1.0  0.35108  0.28117  0.23277  1.0000
  C   C726      1.0  0.34736  0.29313  0.21143  1.0000
  H   H583      1.0  0.31170  0.33856  0.22815  1.0000
  H   H584      1.0  0.31869  0.31775  0.26575  1.0000
  H   H585      1.0  0.36199  0.26521  0.23394  1.0000
  H   H586      1.0  0.35508  0.28616  0.19627  1.0000
  H   H587      1.0  0.27952  0.05972  0.26122  1.0000
  C   C727      1.0  0.27037  0.46302  0.19927  1.0000
  H   H588      1.0  0.24964  0.26135  0.20083  1.0000
  C   C728      1.0  0.25274  0.35025  0.32300  1.0000
  H   H589      1.0  0.27442  0.17459  0.29565  1.0000
  C   C729      1.0  0.26277  0.32685  0.13156  1.0000
  C   C730      1.0  0.34045  0.10561  0.30420  1.0000
  C   C731      1.0  0.29144  0.25016  0.39832  1.0000
  C   C732      1.0  0.44908  0.19727  0.20661  1.0000
  C   C733      1.0  0.25853  0.22838  0.21959  1.0000
  C   C734      1.0  0.28173  0.13080  0.26138  1.0000
  C   C735      1.0  0.28454  0.14269  0.23942  1.0000
  C   C736      1.0  0.29922  0.15891  0.23360  1.0000
  C   C737      1.0  0.31153  0.16309  0.24951  1.0000
  C   C738      1.0  0.30898  0.15105  0.27143  1.0000
  C   C739      1.0  0.29394  0.13504  0.27739  1.0000
  H   H590      1.0  0.27540  0.13941  0.22687  1.0000
  H   H591      1.0  0.30113  0.16809  0.21662  1.0000
  H   H592      1.0  0.31850  0.15410  0.28380  1.0000
  H   H593      1.0  0.29198  0.12577  0.29432  1.0000
  C   C740      1.0  0.42958  0.25202  0.33488  1.0000
  C   C741      1.0  0.29053  0.25385  0.42073  1.0000
  H   H594      1.0  0.26440  0.44712  0.20639  1.0000
  C   C742      1.0  0.28542  0.19966  0.47514  1.0000
  H   H595      1.0  0.27943  0.17412  0.12832  1.0000
  C   C743      1.0  0.27087  0.18388  0.48469  1.0000
  H   H596      1.0  0.27672  0.24822  0.48111  1.0000
  C   C744      1.0  0.42846  0.16382  0.32712  1.0000
  C   C745      1.0  0.28542  0.46457  0.17904  1.0000
  H   H597      1.0  0.27399  0.30283  0.26842  1.0000
  C   C746      1.0  0.42382  0.25335  0.17029  1.0000
  H   H598      1.0  0.29601  0.14879  0.35810  1.0000
  C   C747      1.0  0.40289  0.26479  0.25509  1.0000
  C   C748      1.0  0.34735  0.39177  0.17584  1.0000
  C   C749      1.0  0.34947  0.40321  0.15367  1.0000
  C   C750      1.0  0.35248  0.42598  0.14945  1.0000
  C   C751      1.0  0.35317  0.43744  0.16739  1.0000
  C   C752      1.0  0.35091  0.42611  0.18975  1.0000
  C   C753      1.0  0.34805  0.40314  0.19381  1.0000
  P   P26       1.0  0.35139  0.44060  0.21332  1.0000
  C   C754      1.0  0.32907  0.43281  0.23558  1.0000
  C   C755      1.0  0.37810  0.43266  0.22365  1.0000
  C   C756      1.0  0.38545  0.44711  0.23571  1.0000
  C   C757      1.0  0.40607  0.44119  0.24379  1.0000
  C   C758      1.0  0.41949  0.42078  0.23995  1.0000
  C   C759      1.0  0.41230  0.40627  0.22802  1.0000
  C   C760      1.0  0.39169  0.41216  0.21989  1.0000
  C   C761      1.0  0.33122  0.43168  0.25845  1.0000
  C   C762      1.0  0.31379  0.42558  0.27551  1.0000
  C   C763      1.0  0.29413  0.42061  0.26984  1.0000
  C   C764      1.0  0.29182  0.42191  0.24711  1.0000
  C   C765      1.0  0.30914  0.42812  0.23005  1.0000
  C   C766      1.0  0.34760  0.47099  0.20521  1.0000
  H   H599      1.0  0.26497  0.30119  0.37645  1.0000
  H   H600      1.0  0.46589  0.22239  0.39185  1.0000
  C   C767      1.0  0.28349  0.04926  0.14687  1.0000
  H   H601      1.0  0.28256  0.29524  0.21793  1.0000
  C   C768      1.0  0.28274  0.26735  0.38231  1.0000
  H   H602      1.0  0.34447  0.37424  0.17913  1.0000
  H   H603      1.0  0.34802  0.39462  0.13986  1.0000
  C   C769      1.0  0.25659  0.14961  0.02247  1.0000
  Fe  Fe51      1.0  0.25603  0.06186  0.21201  1.0000
  H   H604      1.0  0.34584  0.39412  0.21092  1.0000
  H   H605      1.0  0.37523  0.46299  0.23891  1.0000
  H   H606      1.0  0.41163  0.45249  0.25300  1.0000
  H   H607      1.0  0.43548  0.41623  0.24619  1.0000
  H   H608      1.0  0.42270  0.39045  0.22501  1.0000
  H   H609      1.0  0.38655  0.40068  0.21066  1.0000
  H   H610      1.0  0.34623  0.43559  0.26319  1.0000
  C   C770      1.0  0.25579  0.22900  0.27558  1.0000
  H   H611      1.0  0.26824  0.29307  0.33166  1.0000
  C   C771      1.0  0.27268  0.35633  0.30969  1.0000
  S   S109      1.0  0.26287  0.27339  0.09959  1.0000
  C   C772      1.0  0.26603  0.20975  0.44239  1.0000
  C   C773      1.0  0.27096  0.29178  0.41102  1.0000
  H   H612      1.0  0.35492  0.26157  0.47918  1.0000
  C   C774      1.0  0.25525  0.12355  0.33025  1.0000
  C   C775      1.0  0.40274  0.26428  0.13130  1.0000
  H   H613      1.0  0.26814  0.35986  0.35877  1.0000
  H   H614      1.0  0.31619  0.27863  0.08535  1.0000
  H   H615      1.0  0.41663  0.23309  0.24379  1.0000
  P   P27       1.0  0.43620  0.24413  0.19598  1.0000
  C   C776      1.0  0.25530  0.20611  0.16051  1.0000
  C   C777      1.0  0.33587  0.06181  0.24953  1.0000
  C   C778      1.0  0.39260  0.27294  0.15107  1.0000
  C   C779      1.0  0.34340  0.03861  0.24933  1.0000
  H   H616      1.0  0.39124  0.12368  0.28684  1.0000
  H   H617      1.0  0.32665  0.10608  0.31802  1.0000
  H   H618      1.0  0.44912  0.23257  0.15027  1.0000
  S   S110      1.0  0.26450  0.34752  0.18817  1.0000
  C   C780      1.0  0.28902  0.31689  0.31200  1.0000
  C   C781      1.0  0.28012  0.27479  0.42698  1.0000
  C   C782      1.0  0.26330  0.48209  0.21044  1.0000
  C   C783      1.0  0.40484  0.18791  0.21461  1.0000
  C   C784      1.0  0.27625  0.21184  0.36231  1.0000
  C   C785      1.0  0.42395  0.22787  0.38130  1.0000
  C   C786      1.0  0.39644  0.05629  0.24931  1.0000
  H   H619      1.0  0.39420  0.27347  0.18585  1.0000
  C   C787      1.0  0.46559  0.24683  0.19299  1.0000
  C   C788      1.0  0.43129  0.21513  0.20463  1.0000
  H   H620      1.0  0.36107  0.03231  0.24575  1.0000
  H   H621      1.0  0.31971  0.11010  0.17411  1.0000
  H   H622      1.0  0.39524  0.22380  0.20706  1.0000
  C   C789      1.0  0.42277  0.20773  0.39665  1.0000
  C   C790      1.0  0.31274  0.06923  0.25377  1.0000
  P   P28       1.0  0.35530  0.08231  0.24287  1.0000
  C   C791      1.0  0.43600  0.20211  0.34342  1.0000
  C   C792      1.0  0.29739  0.05377  0.25810  1.0000
  H   H623      1.0  0.33191  0.08105  0.20496  1.0000
  C   C793      1.0  0.41442  0.25129  0.23911  1.0000
  H   H624      1.0  0.25195  0.48076  0.22626  1.0000
  C   C794      1.0  0.43360  0.24426  0.15051  1.0000
  H   H625      1.0  0.30271  0.30389  0.30724  1.0000
  H   H626      1.0  0.29900  0.04991  0.15294  1.0000
  C   C795      1.0  0.42259  0.17027  0.21692  1.0000
  C   C796      1.0  0.40290  0.26725  0.17056  1.0000
  H   H627      1.0  0.27154  0.33046  0.14424  1.0000
  H   H628      1.0  0.30691  0.42929  0.21252  1.0000
  H   H629      1.0  0.35863  0.13136  0.23090  1.0000
  H   H630      1.0  0.34694  0.15984  0.19951  1.0000
  H   H631      1.0  0.30070  0.10743  0.35786  1.0000
  H   H632      1.0  0.41853  0.05811  0.18515  1.0000
  C   C797      1.0  0.40918  0.21025  0.20853  1.0000
  C   C798      1.0  0.42573  0.04576  0.21905  1.0000
  C   C799      1.0  0.39113  0.06904  0.21017  1.0000
  C   C800      1.0  0.42266  0.26130  0.21730  1.0000
  C   C801      1.0  0.42031  0.28499  0.21209  1.0000
  H   H633      1.0  0.38906  0.10595  0.25381  1.0000
  H   H634      1.0  0.27844  0.27799  0.44424  1.0000
  H   H635      1.0  0.27667  0.08531  0.13699  1.0000
  C   C802      1.0  0.37679  0.11557  0.28658  1.0000
  H   H636      1.0  0.40581  0.31668  0.22363  1.0000
  H   H637      1.0  0.39407  0.17159  0.34239  1.0000
  C   C803      1.0  0.33913  0.09539  0.28560  1.0000
  C   C804      1.0  0.39960  0.27276  0.31451  1.0000
  C   C805      1.0  0.26562  0.16654  0.12530  1.0000
  H   H638      1.0  0.29863  0.20147  0.48423  1.0000
  H   H639      1.0  0.38101  0.07797  0.19752  1.0000
  C   C806      1.0  0.28300  0.21283  0.45396  1.0000
  C   C807      1.0  0.27209  0.19477  0.17307  1.0000
  H   H640      1.0  0.27536  0.17312  0.41019  1.0000
  C   C808      1.0  0.32778  0.48448  0.21324  1.0000
  C   C809      1.0  0.37547  0.10551  0.26788  1.0000
  C   C810      1.0  0.25141  0.32732  0.33118  1.0000
  C   C811      1.0  0.47727  0.22474  0.37614  1.0000
  Fe  Fe52      1.0  0.25509  0.37603  0.20858  1.0000
  C   C812      1.0  0.33286  0.13673  0.18459  1.0000
  C   C813      1.0  0.30118  0.26544  0.23433  1.0000
  C   C814      1.0  0.25775  0.31324  0.26986  1.0000
  C   C815      1.0  0.29659  0.27159  0.19473  1.0000
  C   C816      1.0  0.32795  0.02323  0.25320  1.0000
  P   P29       1.0  0.30296  0.23183  0.44095  1.0000
  H   H641      1.0  0.39116  0.26441  0.41449  1.0000
  C   C817      1.0  0.31047  0.24455  0.46288  1.0000
  C   C818      1.0  0.44988  0.17019  0.32304  1.0000
  H   H642      1.0  0.28498  0.01324  0.15663  1.0000
  H   H643      1.0  0.26515  0.17394  0.34137  1.0000
  H   H644      1.0  0.27497  0.09137  0.33936  1.0000
  C   C819      1.0  0.33256  0.24843  0.46243  1.0000
  H   H645      1.0  0.32163  0.23448  0.24571  1.0000
  H   H646      1.0  0.44295  0.30312  0.30718  1.0000
  H   H647      1.0  0.28923  0.28210  0.18073  1.0000
  C   C820      1.0  0.32724  0.21647  0.42588  1.0000
  C   C821      1.0  0.33105  0.19271  0.42956  1.0000
  C   C822      1.0  0.34878  0.18101  0.41639  1.0000
  C   C823      1.0  0.36271  0.19287  0.39938  1.0000
  C   C824      1.0  0.35920  0.21651  0.39577  1.0000
  C   C825      1.0  0.34165  0.22828  0.40907  1.0000
  C   C826      1.0  0.33543  0.09815  0.20398  1.0000
  H   H648      1.0  0.30654  0.08708  0.25330  1.0000
  C   C827      1.0  0.35923  0.11569  0.30472  1.0000
  C   C828      1.0  0.32118  0.26490  0.49708  1.0000
  H   H649      1.0  0.32693  0.14949  0.17122  1.0000
  C   C829      1.0  0.25212  0.14694  0.33086  1.0000
  C   C830      1.0  0.39997  0.24858  0.40950  1.0000
  H   H650      1.0  0.27453  0.23181  0.22233  1.0000
  H   H651      1.0  0.35444  0.45530  0.16373  1.0000
  H   H652      1.0  0.34564  0.24376  0.44894  1.0000
  C   C831      1.0  0.29060  0.33969  0.30400  1.0000
  H   H653      1.0  0.41343  0.26415  0.37652  1.0000
  C   C832      1.0  0.35068  0.12621  0.21841  1.0000
  H   H654      1.0  0.31998  0.18311  0.44201  1.0000
  H   H655      1.0  0.35116  0.16269  0.41872  1.0000
  H   H656      1.0  0.37573  0.18370  0.38854  1.0000
  H   H657      1.0  0.36965  0.22570  0.38224  1.0000
  H   H658      1.0  0.33881  0.24659  0.40569  1.0000
  C   C833      1.0  0.36194  0.18798  0.14622  1.0000
  C   C834      1.0  0.38144  0.19236  0.15272  1.0000
  C   C835      1.0  0.38087  0.21148  0.16284  1.0000
  C   C836      1.0  0.36068  0.22586  0.16718  1.0000
  C   C837      1.0  0.34092  0.22131  0.16115  1.0000
  C   C838      1.0  0.34186  0.20265  0.14996  1.0000
  P   P30       1.0  0.31553  0.24126  0.16458  1.0000
  C   C839      1.0  0.29141  0.22789  0.16379  1.0000
  C   C840      1.0  0.31055  0.25109  0.19166  1.0000
  C   C841      1.0  0.31953  0.23778  0.21020  1.0000
  H   H659      1.0  0.35312  0.43509  0.13237  1.0000
  C   C842      1.0  0.26269  0.18978  0.29253  1.0000
  C   C843      1.0  0.28720  0.11841  0.35030  1.0000
  C   C844      1.0  0.31474  0.24489  0.23146  1.0000
  C   C845      1.0  0.33788  0.25853  0.47954  1.0000
  C   C846      1.0  0.32865  0.11454  0.18629  1.0000
  C   C847      1.0  0.34631  0.10388  0.22033  1.0000
  C   C848      1.0  0.47690  0.23970  0.21185  1.0000
  H   H660      1.0  0.38898  0.22861  0.44132  1.0000
  C   C849      1.0  0.31978  0.26417  0.14164  1.0000
  C   C850      1.0  0.32684  0.28396  0.14530  1.0000
  C   C851      1.0  0.32950  0.30188  0.12759  1.0000
  C   C852      1.0  0.32578  0.29995  0.10595  1.0000
  C   C853      1.0  0.31976  0.27992  0.10194  1.0000
  C   C854      1.0  0.31695  0.26200  0.11967  1.0000
  H   H661      1.0  0.36241  0.17341  0.13795  1.0000
  H   H662      1.0  0.39705  0.18113  0.14960  1.0000
  H   H663      1.0  0.39615  0.21528  0.16707  1.0000
  H   H664      1.0  0.36049  0.24069  0.17496  1.0000
  H   H665      1.0  0.32722  0.19947  0.14384  1.0000
  H   H666      1.0  0.32992  0.22174  0.20837  1.0000
  H   H667      1.0  0.30568  0.34443  0.29325  1.0000
  H   H668      1.0  0.42794  0.03557  0.25455  1.0000
  H   H669      1.0  0.39457  0.26855  0.11628  1.0000
  C   C855      1.0  0.46964  0.22726  0.35513  1.0000
  H   H670      1.0  0.39030  0.05530  0.26728  1.0000
  H   H671      1.0  0.42539  0.14960  0.32005  1.0000
  C   C856      1.0  0.30495  0.03082  0.25750  1.0000
  C   C857      1.0  0.28451  0.14169  0.35054  1.0000
  H   H672      1.0  0.30285  0.19680  0.18472  1.0000
  H   H673      1.0  0.32987  0.28592  0.16188  1.0000
  H   H674      1.0  0.33383  0.31752  0.13087  1.0000
  H   H675      1.0  0.32702  0.31414  0.09242  1.0000
  C   C858      1.0  0.40851  0.29844  0.22803  1.0000
  H   H676      1.0  0.31167  0.24686  0.11635  1.0000
  H   H677      1.0  0.24935  0.01154  0.14436  1.0000
  C   C859      1.0  0.26740  0.30549  0.12461  1.0000
  Fe  Fe53      1.0  0.26058  0.10969  0.18666  1.0000
  H   H678      1.0  0.27662  0.41818  0.24254  1.0000
  H   H679      1.0  0.30450  0.48665  0.15419  1.0000
  H   H680      1.0  0.38072  0.47146  0.18556  1.0000
  P   P31       1.0  0.44027  0.22728  0.35349  1.0000
  C   C860      1.0  0.36527  0.48151  0.19188  1.0000
  C   C861      1.0  0.25470  0.33428  0.25604  1.0000
  C   C862      1.0  0.40824  0.25364  0.32857  1.0000
  C   C863      1.0  0.28995  0.20574  0.17496  1.0000
  C   C864      1.0  0.34413  0.14250  0.20048  1.0000
  C   C865      1.0  0.25650  0.30055  0.10789  1.0000
  C   C866      1.0  0.42319  0.24987  0.13104  1.0000
  C   C867      1.0  0.28192  0.18267  0.39435  1.0000
  C   C868      1.0  0.41458  0.19530  0.34773  1.0000
  C   C869      1.0  0.41257  0.24834  0.38793  1.0000
  C   C870      1.0  0.27088  0.06916  0.13790  1.0000
  H   H681      1.0  0.38967  0.29861  0.26154  1.0000
  C   C871      1.0  0.29388  0.25089  0.48062  1.0000
  H   H682      1.0  0.41918  0.15305  0.22240  1.0000
  Fe  Fe54      1.0  0.25279  0.10092  0.23817  1.0000
  H   H683      1.0  0.39809  0.24030  0.33463  1.0000
  H   H684      1.0  0.38313  0.27377  0.30961  1.0000
  C   C872      1.0  0.39961  0.28831  0.24945  1.0000
  H   H685      1.0  0.26152  0.13318  0.03196  1.0000
  C   C873      1.0  0.41772  0.04502  0.24216  1.0000
  C   C874      1.0  0.41082  0.17630  0.33957  1.0000
  H   H686      1.0  0.26203  0.24420  0.26635  1.0000
  H   H687      1.0  0.46813  0.23256  0.22793  1.0000
  H   H688      1.0  0.32425  0.08797  0.28565  1.0000
  C   C875      1.0  0.38310  0.06862  0.23336  1.0000
  H   H689      1.0  0.36000  0.12395  0.31900  1.0000
  H   H690      1.0  0.43084  0.24286  0.11580  1.0000
  C   C876      1.0  0.47716  0.25679  0.17260  1.0000
  C   C877      1.0  0.27391  0.23942  0.15217  1.0000
  C   C878      1.0  0.43323  0.28930  0.31319  1.0000
  C   C879      1.0  0.44183  0.27027  0.32741  1.0000
  H   H691      1.0  0.46868  0.26335  0.15809  1.0000
  C   C880      1.0  0.26701  0.15591  0.34097  1.0000
  C   C881      1.0  0.27265  0.10936  0.34005  1.0000
  H   H692      1.0  0.45798  0.27002  0.33250  1.0000
  H   H693      1.0  0.29872  0.23393  0.39317  1.0000
  H   H694      1.0  0.40058  0.20484  0.35707  1.0000
  H   H695      1.0  0.37656  0.28387  0.15141  1.0000
  H   H696      1.0  0.27953  0.29291  0.13229  1.0000
  H   H697      1.0  0.29795  0.27114  0.25073  1.0000
  C   C882      1.0  0.29231  0.27890  0.21590  1.0000
  C   C883      1.0  0.41016  0.20803  0.41820  1.0000
  C   C884      1.0  0.41242  0.05772  0.20307  1.0000
  S   S111      1.0  0.26336  0.11037  0.26881  1.0000
  H   H698      1.0  0.46632  0.20039  0.20361  1.0000
  H   H699      1.0  0.26219  0.30757  0.41616  1.0000
  C   C885      1.0  0.25606  0.22850  0.15033  1.0000
  C   C886      1.0  0.27561  0.02860  0.14890  1.0000
  C   C887      1.0  0.25367  0.36777  0.36905  1.0000
  H   H700      1.0  0.29290  0.01903  0.25989  1.0000
  C   C888      1.0  0.26956  0.31078  0.32580  1.0000
  H   H701      1.0  0.40917  0.19241  0.42991  1.0000
  H   H702      1.0  0.31547  0.42481  0.29312  1.0000
  C   C889      1.0  0.27061  0.20903  0.27958  1.0000
  C   C890      1.0  0.39875  0.22844  0.42462  1.0000
  H   H703      1.0  0.26855  0.34003  0.24396  1.0000
  C   C891      1.0  0.25187  0.20730  0.22830  1.0000
  C   C892      1.0  0.25108  0.17857  0.11035  1.0000
  C   C893      1.0  0.25533  0.36965  0.39135  1.0000
  H   H704      1.0  0.31366  0.47700  0.22320  1.0000
  Fe  Fe55      1.0  0.25968  0.37444  0.15834  1.0000
  H   H705      1.0  0.28347  0.26427  0.36509  1.0000
  H   H706      1.0  0.28062  0.41592  0.28301  1.0000
  H   H707      1.0  0.26276  0.19447  0.23769  1.0000
  H   H708      1.0  0.45840  0.16130  0.21516  1.0000
  H   H709      1.0  0.46339  0.16086  0.31280  1.0000
  H   H710      1.0  0.47966  0.23230  0.31885  1.0000
  H   H711      1.0  0.26534  0.22496  0.35331  1.0000
  C   C894      1.0  0.26766  0.19956  0.38281  1.0000
  H   H712      1.0  0.27089  0.36322  0.39804  1.0000
  H   H713      1.0  0.27449  0.37388  0.30367  1.0000
  H   H714      1.0  0.25374  0.19535  0.10185  1.0000
  C   C895      1.0  0.45368  0.18926  0.33108  1.0000
  C   C896      1.0  0.25169  0.19376  0.45186  1.0000
  C   C897      1.0  0.48937  0.20141  0.26541  1.0000
  H   H715      1.0  0.47031  0.19403  0.32705  1.0000
  S   S112      1.0  0.24805  0.23559  0.05869  1.0000
  S   S113      1.0  0.27179  0.02521  0.21269  1.0000
  C   C898      1.0  0.48483  0.22253  0.27277  1.0000
  C   C899      1.0  0.25513  0.02776  0.14200  1.0000
  C   C900      1.0  0.29917  0.26110  0.49758  1.0000
  C   C901      1.0  0.48510  0.23023  0.33521  1.0000
  S   S114      1.0  0.24736  0.40251  0.17912  1.0000
  C   C902      1.0  0.26487  0.15439  0.99941  1.0000
  H   H716      1.0  0.29134  0.35297  0.76501  1.0000
  H   H717      1.0  0.34004  0.15426  0.86043  1.0000
  P   P32       1.0  0.29817  0.34063  0.81272  1.0000
  Fe  Fe56      1.0  0.30205  0.13295  0.71982  1.0000
  S   S115      1.0  0.28002  0.16305  0.70486  1.0000
  S   S116      1.0  0.32984  0.13651  0.73881  1.0000
  Fe  Fe57      1.0  0.27193  0.09995  0.71198  1.0000
  C   C903      1.0  0.25902  0.17589  0.98718  1.0000
  H   H718      1.0  0.40112  0.28298  0.86459  1.0000
  Fe  Fe58      1.0  0.27800  0.14241  0.67830  1.0000
  S   S117      1.0  0.28315  0.15870  0.64160  1.0000
  H   H719      1.0  0.41348  0.15759  0.79179  1.0000
  C   C904      1.0  0.34914  0.16735  0.81227  1.0000
  S   S118      1.0  0.30276  0.11312  0.69154  1.0000
  S   S119      1.0  0.27340  0.11727  0.74152  1.0000
  Fe  Fe59      1.0  0.42879  0.25370  0.75472  1.0000
  S   S120      1.0  0.41330  0.26624  0.72294  1.0000
  S   S121      1.0  0.46481  0.24509  0.76231  1.0000
  Fe  Fe60      1.0  0.38316  0.24871  0.78367  1.0000
  S   S122      1.0  0.36358  0.26058  0.75471  1.0000
  S   S123      1.0  0.37103  0.23872  0.82081  1.0000
  Fe  Fe61      1.0  0.39119  0.23902  0.73523  1.0000
  S   S124      1.0  0.38415  0.21996  0.70889  1.0000
  Fe  Fe62      1.0  0.38660  0.28707  0.74420  1.0000
  S   S125      1.0  0.37580  0.32421  0.73196  1.0000
  S   S126      1.0  0.40879  0.22463  0.76522  1.0000
  S   S127      1.0  0.40396  0.27695  0.77492  1.0000
  C   C905      1.0  0.34442  0.16007  0.73012  1.0000
  C   C906      1.0  0.35174  0.16726  0.70725  1.0000
  C   C907      1.0  0.36439  0.18533  0.70099  1.0000
  C   C908      1.0  0.36932  0.19663  0.71744  1.0000
  C   C909      1.0  0.36208  0.18940  0.74027  1.0000
  C   C910      1.0  0.34975  0.17113  0.74655  1.0000
  H   H720      1.0  0.34802  0.15862  0.69448  1.0000
  H   H721      1.0  0.37033  0.19062  0.68336  1.0000
  H   H722      1.0  0.36621  0.19776  0.75304  1.0000
  H   H723      1.0  0.34404  0.16575  0.76414  1.0000
  H   H724      1.0  0.33721  0.16647  0.89770  1.0000
  C   C911      1.0  0.29855  0.26210  0.85068  1.0000
  C   C912      1.0  0.31615  0.26019  0.86320  1.0000
  C   C913      1.0  0.33816  0.25236  0.85404  1.0000
  C   C914      1.0  0.34295  0.24759  0.83181  1.0000
  C   C915      1.0  0.32545  0.24988  0.81905  1.0000
  C   C916      1.0  0.30313  0.25642  0.82876  1.0000
  H   H725      1.0  0.35160  0.25060  0.86399  1.0000
  H   H726      1.0  0.32915  0.24652  0.80181  1.0000
  H   H727      1.0  0.28958  0.25759  0.81914  1.0000
  C   C917      1.0  0.30317  0.34661  0.71839  1.0000
  C   C918      1.0  0.31018  0.32433  0.72786  1.0000
  C   C919      1.0  0.33246  0.31730  0.73158  1.0000
  C   C920      1.0  0.34798  0.33257  0.72617  1.0000
  C   C921      1.0  0.34108  0.35491  0.71643  1.0000
  C   C922      1.0  0.31873  0.36191  0.71237  1.0000
  H   H728      1.0  0.29819  0.31254  0.73265  1.0000
  H   H729      1.0  0.33743  0.30016  0.73909  1.0000
  H   H730      1.0  0.35301  0.36684  0.71211  1.0000
  H   H731      1.0  0.31350  0.37916  0.70500  1.0000
  H   H732      1.0  0.28307  0.13599  0.94837  1.0000
  C   C923      1.0  0.29837  0.14286  0.94822  1.0000
  C   C924      1.0  0.49151  0.30358  0.81567  1.0000
  H   H733      1.0  0.28126  0.19019  0.60061  1.0000
  H   H734      1.0  0.29713  0.28241  0.76524  1.0000
  C   C925      1.0  0.28767  0.38914  0.75789  1.0000
  C   C926      1.0  0.26568  0.35834  0.84599  1.0000
  C   C927      1.0  0.48629  0.26240  0.75347  1.0000
  C   C928      1.0  0.48777  0.27692  0.73283  1.0000
  H   H735      1.0  0.24985  0.14338  0.81764  1.0000
  H   H736      1.0  0.36661  0.28581  0.82337  1.0000
  C   C929      1.0  0.33822  0.15971  0.94823  1.0000
  H   H737      1.0  0.47496  0.27853  0.72214  1.0000
  C   C930      1.0  0.25349  0.19976  0.54286  1.0000
  C   C931      1.0  0.36002  0.30315  0.81751  1.0000
  H   H738      1.0  0.43184  0.24365  0.81204  1.0000
  H   H739      1.0  0.30318  0.18935  0.74422  1.0000
  C   C932      1.0  0.25513  0.36309  0.62074  1.0000
  C   C933      1.0  0.29333  0.20081  0.73262  1.0000
  C   C934      1.0  0.37478  0.31872  0.80837  1.0000
  C   C935      1.0  0.28762  0.11008  0.81839  1.0000
  H   H740      1.0  0.33728  0.36501  0.79488  1.0000
  C   C936      1.0  0.28524  0.24505  0.96264  1.0000
  S   S128      1.0  0.27145  0.27327  0.86245  1.0000
  C   C937      1.0  0.26769  0.22898  0.70203  1.0000
  C   C938      1.0  0.28663  0.23791  0.63054  1.0000
  C   C939      1.0  0.28577  0.24827  0.64973  1.0000
  C   C940      1.0  0.37009  0.02493  0.70583  1.0000
  P   P33       1.0  0.30539  0.23778  0.66962  1.0000
  C   C941      1.0  0.29123  0.22550  0.69662  1.0000
  C   C942      1.0  0.32585  0.21572  0.65858  1.0000
  C   C943      1.0  0.31976  0.19429  0.65926  1.0000
  C   C944      1.0  0.33502  0.17733  0.64985  1.0000
  C   C945      1.0  0.35651  0.18161  0.63969  1.0000
  C   C946      1.0  0.36269  0.20296  0.63880  1.0000
  C   C947      1.0  0.34744  0.21999  0.64820  1.0000
  C   C948      1.0  0.30387  0.21128  0.71213  1.0000
  H   H741      1.0  0.28605  0.26629  0.51097  1.0000
  C   C949      1.0  0.25718  0.21866  0.72274  1.0000
  H   H742      1.0  0.26926  0.27601  0.66726  1.0000
  C   C950      1.0  0.31906  0.12923  0.94403  1.0000
  C   C951      1.0  0.31996  0.26036  0.67305  1.0000
  C   C952      1.0  0.32011  0.28017  0.65702  1.0000
  C   C953      1.0  0.33164  0.29744  0.65953  1.0000
  C   C954      1.0  0.34355  0.29491  0.67773  1.0000
  C   C955      1.0  0.34413  0.27500  0.69328  1.0000
  C   C956      1.0  0.33241  0.25780  0.69101  1.0000
  C   C957      1.0  0.29745  0.16515  0.95227  1.0000
  H   H743      1.0  0.27211  0.25718  0.90920  1.0000
  C   C958      1.0  0.25964  0.04673  0.70312  1.0000
  H   H744      1.0  0.29860  0.22312  0.62733  1.0000
  C   C959      1.0  0.29013  0.40862  0.78873  1.0000
  H   H745      1.0  0.30300  0.19083  0.66658  1.0000
  H   H746      1.0  0.33003  0.16087  0.65040  1.0000
  H   H747      1.0  0.36834  0.16836  0.63258  1.0000
  H   H748      1.0  0.37941  0.20624  0.63111  1.0000
  H   H749      1.0  0.35262  0.23635  0.64739  1.0000
  H   H750      1.0  0.32188  0.20770  0.70811  1.0000
  H   H751      1.0  0.45755  0.27174  0.79672  1.0000
  C   C960      1.0  0.44558  0.27417  0.81177  1.0000
  C   C961      1.0  0.38597  0.17898  0.80819  1.0000
  C   C962      1.0  0.27001  0.20447  0.73791  1.0000
  H   H752      1.0  0.31150  0.28236  0.64245  1.0000
  H   H753      1.0  0.33144  0.31279  0.64729  1.0000
  H   H754      1.0  0.35255  0.30825  0.67972  1.0000
  H   H755      1.0  0.35407  0.27270  0.70689  1.0000
  H   H756      1.0  0.33371  0.24239  0.70299  1.0000
  C   C963      1.0  0.32811  0.16886  0.86451  1.0000
  C   C964      1.0  0.27514  0.24737  0.92538  1.0000
  C   C965      1.0  0.26361  0.31608  0.68718  1.0000
  H   H757      1.0  0.26161  0.36483  0.63577  1.0000
  H   H758      1.0  0.28412  0.21314  0.98417  1.0000
  H   H759      1.0  0.28459  0.27508  0.93773  1.0000
  H   H760      1.0  0.28022  0.26841  0.72225  1.0000
  C   C966      1.0  0.32364  0.02577  0.71191  1.0000
  C   C967      1.0  0.27458  0.21217  0.95154  1.0000
  C   C968      1.0  0.28170  0.32788  0.88178  1.0000
  C   C969      1.0  0.29336  0.38783  0.80285  1.0000
  H   H761      1.0  0.31425  0.31102  0.77809  1.0000
  H   H762      1.0  0.49703  0.32689  0.77106  1.0000
  H   H763      1.0  0.29010  0.42424  0.79509  1.0000
  S   S129      1.0  0.26846  0.06255  0.72106  1.0000
  C   C970      1.0  0.28585  0.31944  0.80339  1.0000
  C   C971      1.0  0.25534  0.05615  0.68127  1.0000
  S   S130      1.0  0.25891  0.31430  0.58167  1.0000
  C   C972      1.0  0.33257  0.04490  0.71401  1.0000
  C   C973      1.0  0.35579  0.04452  0.71095  1.0000
  H   H764      1.0  0.26038  0.01660  0.72789  1.0000
  H   H765      1.0  0.30557  0.02646  0.71436  1.0000
  H   H766      1.0  0.39269  0.31334  0.80723  1.0000
  H   H767      1.0  0.25382  0.34381  0.90315  1.0000
  C   C974      1.0  0.26264  0.34371  0.88604  1.0000
  C   C975      1.0  0.28164  0.22244  0.96764  1.0000
  H   H768      1.0  0.25148  0.16263  0.88820  1.0000
  C   C976      1.0  0.28221  0.25745  0.94143  1.0000
  H   H769      1.0  0.29614  0.38759  0.82005  1.0000
  C   C977      1.0  0.26456  0.19132  0.61020  1.0000
  S   S131      1.0  0.26910  0.47112  0.68058  1.0000
  C   C978      1.0  0.33686  0.30976  0.81859  1.0000
  H   H770      1.0  0.32569  0.29730  0.82514  1.0000
  C   C979      1.0  0.29296  0.32744  0.85969  1.0000
  C   C980      1.0  0.25200  0.34020  0.59238  1.0000
  H   H771      1.0  0.32135  0.06008  0.71791  1.0000
  H   H772      1.0  0.36264  0.05947  0.71250  1.0000
  H   H773      1.0  0.25853  0.36950  0.83225  1.0000
  C   C981      1.0  0.25538  0.27640  0.63710  1.0000
  H   H774      1.0  0.27095  0.32853  0.62010  1.0000
  H   H775      1.0  0.40351  0.24921  0.84593  1.0000
  H   H776      1.0  0.28008  0.24590  0.75962  1.0000
  C   C982      1.0  0.36285  0.18256  0.81539  1.0000
  C   C983      1.0  0.25986  0.17070  0.91876  1.0000
  H   H777      1.0  0.31105  0.20070  0.90698  1.0000
  H   H778      1.0  0.30961  0.15348  0.78331  1.0000
  C   C984      1.0  0.43105  0.25822  0.82047  1.0000
  C   C985      1.0  0.31484  0.18116  0.84848  1.0000
  H   H779      1.0  0.37790  0.35284  0.79236  1.0000
  H   H780      1.0  0.39625  0.19123  0.81015  1.0000
  H   H781      1.0  0.32155  0.23774  0.75737  1.0000
  C   C986      1.0  0.29329  0.36752  0.79468  1.0000
  H   H782      1.0  0.24994  0.36808  0.75840  1.0000
  H   H783      1.0  0.35367  0.16622  0.94834  1.0000
  H   H784      1.0  0.29859  0.14029  0.85640  1.0000
  C   C987      1.0  0.28784  0.29154  0.77855  1.0000
  C   C988      1.0  0.30578  0.14922  0.81996  1.0000
  S   S132      1.0  0.27446  0.35449  0.71608  1.0000
  H   H785      1.0  0.34902  0.13573  0.80014  1.0000
  C   C989      1.0  0.29895  0.01236  0.64615  1.0000
  H   H786      1.0  0.31744  0.19041  0.95565  1.0000
  C   C990      1.0  0.27210  0.24689  0.61478  1.0000
  C   C991      1.0  0.36642  0.34096  0.80019  1.0000
  P   P34       1.0  0.27063  0.18274  0.95768  1.0000
  C   C992      1.0  0.33898  0.13764  0.94404  1.0000
  C   C993      1.0  0.28530  0.34294  0.84161  1.0000
  H   H787      1.0  0.38962  0.12982  0.78716  1.0000
  H   H788      1.0  0.35548  0.19751  0.82296  1.0000
  H   H789      1.0  0.28687  0.22197  0.87922  1.0000
  C   C994      1.0  0.31756  0.17342  0.95237  1.0000
  H   H790      1.0  0.28243  0.10609  0.85482  1.0000
  P   P35       1.0  0.46311  0.31395  0.81012  1.0000
  C   C995      1.0  0.25088  0.01054  0.69705  1.0000
  C   C996      1.0  0.46248  0.32054  0.77997  1.0000
  C   C997      1.0  0.48129  0.32721  0.76508  1.0000
  C   C998      1.0  0.48009  0.33389  0.74200  1.0000
  C   C999      1.0  0.46035  0.33335  0.73351  1.0000
  C   C1000     1.0  0.44166  0.32642  0.74816  1.0000
  C   C1001     1.0  0.44266  0.32019  0.77131  1.0000
  H   H791      1.0  0.35500  0.12703  0.94088  1.0000
  C   C1002     1.0  0.29521  0.12357  0.79833  1.0000
  H   H792      1.0  0.25528  0.32265  0.82750  1.0000
  C   C1003     1.0  0.28719  0.40927  0.76626  1.0000
  C   C1004     1.0  0.35906  0.14787  0.80274  1.0000
  C   C1005     1.0  0.45343  0.33958  0.82245  1.0000
  C   C1006     1.0  0.45832  0.34090  0.84395  1.0000
  C   C1007     1.0  0.45077  0.36056  0.85375  1.0000
  C   C1008     1.0  0.43821  0.37901  0.84221  1.0000
  C   C1009     1.0  0.43318  0.37780  0.82087  1.0000
  C   C1010     1.0  0.44071  0.35816  0.81101  1.0000
  H   H793      1.0  0.30715  0.31448  0.85682  1.0000
  H   H794      1.0  0.28921  0.21008  0.84227  1.0000
  C   C1011     1.0  0.32066  0.20997  0.78484  1.0000
  H   H795      1.0  0.25731  0.23923  0.69029  1.0000
  H   H796      1.0  0.29423  0.11897  0.78207  1.0000
  H   H797      1.0  0.49529  0.39887  0.86915  1.0000
  C   C1012     1.0  0.26043  0.34260  0.61183  1.0000
  H   H798      1.0  0.45966  0.33783  0.71552  1.0000
  H   H799      1.0  0.42640  0.32570  0.74154  1.0000
  H   H800      1.0  0.42794  0.31509  0.78236  1.0000
  C   C1013     1.0  0.25477  0.29834  0.80616  1.0000
  H   H801      1.0  0.49483  0.33852  0.73050  1.0000
  H   H802      1.0  0.31273  0.26457  0.88013  1.0000
  C   C1014     1.0  0.38221  0.14439  0.79537  1.0000
  C   C1015     1.0  0.29819  0.20694  0.87528  1.0000
  P   P36       1.0  0.31913  0.17348  0.82037  1.0000
  Fe  Fe63      1.0  0.25335  0.43901  0.68532  1.0000
  H   H803      1.0  0.43222  0.39421  0.84987  1.0000
  H   H804      1.0  0.42333  0.39205  0.81196  1.0000
  H   H805      1.0  0.43646  0.35759  0.79453  1.0000
  C   C1016     1.0  0.26445  0.31447  0.81356  1.0000
  C   C1017     1.0  0.29081  0.36833  0.77198  1.0000
  H   H806      1.0  0.45449  0.36141  0.87040  1.0000
  C   C1018     1.0  0.29962  0.20011  0.85416  1.0000
  C   C1019     1.0  0.28760  0.23240  0.77131  1.0000
  C   C1020     1.0  0.31093  0.22773  0.76999  1.0000
  C   C1021     1.0  0.39564  0.16002  0.79794  1.0000
  H   H807      1.0  0.33870  0.20693  0.78370  1.0000
  C   C1022     1.0  0.30399  0.14319  0.79909  1.0000
  C   C1023     1.0  0.27780  0.29933  0.69880  1.0000
  H   H808      1.0  0.28478  0.42533  0.75521  1.0000
  H   H809      1.0  0.31963  0.11208  0.94087  1.0000
  H   H810      1.0  0.27048  0.32991  0.67572  1.0000
  H   H811      1.0  0.25870  0.27455  0.78289  1.0000
  H   H812      1.0  0.28049  0.09508  0.81769  1.0000
  S   S133      1.0  0.27237  0.40998  0.66787  1.0000
  C   C1024     1.0  0.34324  0.34775  0.80159  1.0000
  H   H813      1.0  0.27308  0.19073  0.81383  1.0000
  C   C1025     1.0  0.30710  0.19657  0.80094  1.0000
  H   H814      1.0  0.46784  0.32663  0.85320  1.0000
  C   C1026     1.0  0.27400  0.21907  0.78720  1.0000
  H   H815      1.0  0.28746  0.31550  0.89550  1.0000
  C   C1027     1.0  0.41504  0.26141  0.83950  1.0000
  C   C1028     1.0  0.25159  0.17756  0.94001  1.0000
  C   C1029     1.0  0.44444  0.29334  0.82213  1.0000
  C   C1030     1.0  0.28878  0.11628  0.83928  1.0000
  C   C1031     1.0  0.42839  0.29637  0.84140  1.0000
  C   C1032     1.0  0.27115  0.22489  0.93046  1.0000
  H   H816      1.0  0.42688  0.31103  0.84972  1.0000
  C   C1033     1.0  0.31182  0.19495  0.89091  1.0000
  H   H817      1.0  0.29562  0.30016  0.69620  1.0000
  C   C1034     1.0  0.25629  0.26585  0.61823  1.0000
  C   C1035     1.0  0.32821  0.33222  0.81102  1.0000
  H   H818      1.0  0.27766  0.16824  0.91268  1.0000
  C   C1036     1.0  0.32659  0.17574  0.88564  1.0000
  C   C1037     1.0  0.29758  0.30770  0.78594  1.0000
  C   C1038     1.0  0.29791  0.13575  0.84010  1.0000
  H   H819      1.0  0.28563  0.38965  0.74039  1.0000
  C   C1039     1.0  0.41370  0.28048  0.84996  1.0000
  C   C1040     1.0  0.28374  0.20108  0.80175  1.0000
  H   H820      1.0  0.28977  0.25315  0.97546  1.0000
  C   C1041     1.0  0.26998  0.26758  0.65286  1.0000
  C   C1042     1.0  0.36117  0.00573  0.70366  1.0000
  C   C1043     1.0  0.26070  0.17767  0.63131  1.0000
  C   C1044     1.0  0.26633  0.28704  0.78849  1.0000
  H   H821      1.0  0.25592  0.22232  0.78800  1.0000
  Fe  Fe64      1.0  0.25843  0.38800  0.69913  1.0000
  H   H822      1.0  0.26940  0.20015  0.54828  1.0000
  S   S134      1.0  0.24717  0.12802  0.69698  1.0000
  H   H823      1.0  0.26523  0.21759  0.91798  1.0000
  H   H824      1.0  0.38811  0.02468  0.70345  1.0000
  C   C1045     1.0  0.26900  0.28167  0.71380  1.0000
  C   C1046     1.0  0.33781  0.00604  0.70659  1.0000
  H   H825      1.0  0.29124  0.02910  0.63957  1.0000
  H   H826      1.0  0.48857  0.26793  0.81932  1.0000
  H   H827      1.0  0.32520  0.27290  0.51025  1.0000
  Fe  Fe65      1.0  0.25142  0.14635  0.72495  1.0000
  C   C1047     1.0  0.25728  0.02392  0.71096  1.0000
  H   H828      1.0  0.26192  0.19582  0.75354  1.0000
  H   H829      1.0  0.25722  0.45215  0.62661  1.0000
  C   C1048     1.0  0.25755  0.49409  0.69538  1.0000
  H   H830      1.0  0.30459  0.02276  0.67625  1.0000
  C   C1049     1.0  0.24885  0.04276  0.66740  1.0000
  H   H831      1.0  0.25529  0.23009  0.51856  1.0000
  H   H832      1.0  0.49293  0.44062  0.85972  1.0000
  C   C1050     1.0  0.30655  0.00861  0.66713  1.0000
  H   H833      1.0  0.24930  0.32855  0.75362  1.0000
  H   H834      1.0  0.27334  0.23936  0.59964  1.0000
  H   H835      1.0  0.27604  0.14134  0.99140  1.0000
  H   H836      1.0  0.25709  0.07369  0.67504  1.0000
  H   H837      1.0  0.27267  0.17394  0.50112  1.0000
  H   H838      1.0  0.25006  0.21728  0.58547  1.0000
  C   C1051     1.0  0.25464  0.35895  0.86815  1.0000
  S   S135      1.0  0.46494  0.73246  0.22710  1.0000
  H   H839      1.0  0.31060  0.51845  0.21453  1.0000
  Fe  Fe66      1.0  0.26814  0.77289  0.07083  1.0000
  S   S136      1.0  0.30523  0.76324  0.06023  1.0000
  H   H840      1.0  0.34630  0.76422  0.48368  1.0000
  C   C1052     1.0  0.26155  0.86344  0.27808  1.0000
  S   S137      1.0  0.29389  0.71147  0.06222  1.0000
  C   C1053     1.0  0.35031  0.70233  0.04080  1.0000
  Fe  Fe67      1.0  0.30115  0.73249  0.08648  1.0000
  S   S138      1.0  0.32168  0.71378  0.11312  1.0000
  S   S139      1.0  0.26494  0.74386  0.09904  1.0000
  C   C1054     1.0  0.28540  0.50446  0.18068  1.0000
  Fe  Fe68      1.0  0.26579  0.61021  0.20625  1.0000
  H   H841      1.0  0.34959  0.73781  0.02792  1.0000
  C   C1055     1.0  0.36098  0.78000  0.35134  1.0000
  Fe  Fe69      1.0  0.31199  0.58870  0.18705  1.0000
  S   S140      1.0  0.29788  0.56660  0.16842  1.0000
  S   S141      1.0  0.34973  0.58343  0.18603  1.0000
  Fe  Fe70      1.0  0.27343  0.59752  0.15915  1.0000
  S   S142      1.0  0.26233  0.60401  0.12464  1.0000
  Fe  Fe71      1.0  0.27322  0.56038  0.20000  1.0000
  S   S143      1.0  0.28978  0.62020  0.17487  1.0000
  S   S144      1.0  0.28921  0.58005  0.21954  1.0000
  Fe  Fe72      1.0  0.43813  0.71823  0.21422  1.0000
  S   S145      1.0  0.41066  0.74442  0.20153  1.0000
  Fe  Fe73      1.0  0.41432  0.67980  0.20794  1.0000
  S   S146      1.0  0.38550  0.70307  0.19503  1.0000
  S   S147      1.0  0.41721  0.64187  0.21025  1.0000
  Fe  Fe74      1.0  0.41162  0.72313  0.17464  1.0000
  S   S148      1.0  0.40868  0.74022  0.13882  1.0000
  Fe  Fe75      1.0  0.38684  0.72231  0.22291  1.0000
  S   S149      1.0  0.35384  0.73955  0.23881  1.0000
  S   S150      1.0  0.44090  0.69844  0.18550  1.0000
  S   S151      1.0  0.41393  0.69754  0.23786  1.0000
  Fe  Fe76      1.0  0.28809  0.74891  0.35617  1.0000
  S   S152      1.0  0.27948  0.77562  0.37884  1.0000
  S   S153      1.0  0.32396  0.73442  0.34447  1.0000
  C   C1056     1.0  0.26043  0.67276  0.15757  1.0000
  C   C1057     1.0  0.36885  0.75788  0.36087  1.0000
  Fe  Fe77      1.0  0.25041  0.88262  0.22298  1.0000
  H   H842      1.0  0.26442  0.95072  0.19597  1.0000
  H   H843      1.0  0.26161  0.65698  0.15125  1.0000
  C   C1058     1.0  0.46743  0.75658  0.14502  1.0000
  S   S154      1.0  0.26227  0.76449  0.33368  1.0000
  S   S155      1.0  0.26602  0.72576  0.37898  1.0000
  C   C1059     1.0  0.40860  0.61044  0.02188  1.0000
  C   C1060     1.0  0.32590  0.50807  0.20830  1.0000
  H   H844      1.0  0.25490  0.73037  0.30624  1.0000
  H   H845      1.0  0.38389  0.58857  0.02309  1.0000
  H   H846      1.0  0.48578  0.75981  0.04164  1.0000
  C   C1061     1.0  0.28723  0.77859  0.48049  1.0000
  C   C1062     1.0  0.36960  0.61825  0.03837  1.0000
  C   C1063     1.0  0.25629  0.81996  0.09595  1.0000
  C   C1064     1.0  0.35893  0.65474  0.48721  1.0000
  C   C1065     1.0  0.34554  0.73692  0.26819  1.0000
  C   C1066     1.0  0.35824  0.72243  0.28331  1.0000
  C   C1067     1.0  0.35157  0.72186  0.30676  1.0000
  C   C1068     1.0  0.33182  0.73517  0.31508  1.0000
  C   C1069     1.0  0.31895  0.74927  0.29986  1.0000
  C   C1070     1.0  0.32590  0.75029  0.27649  1.0000
  H   H847      1.0  0.37330  0.71192  0.27695  1.0000
  H   H848      1.0  0.36171  0.71108  0.31847  1.0000
  H   H849      1.0  0.30395  0.75985  0.30603  1.0000
  H   H850      1.0  0.31610  0.76158  0.26481  1.0000
  H   H851      1.0  0.25837  0.68980  0.32186  1.0000
  H   H852      1.0  0.36344  0.59996  0.12696  1.0000
  C   C1071     1.0  0.36664  0.60110  0.19365  1.0000
  C   C1072     1.0  0.36032  0.62446  0.19392  1.0000
  C   C1073     1.0  0.37567  0.63761  0.19850  1.0000
  C   C1074     1.0  0.39699  0.62722  0.20356  1.0000
  C   C1075     1.0  0.40284  0.60392  0.20364  1.0000
  C   C1076     1.0  0.38796  0.59107  0.19846  1.0000
  H   H853      1.0  0.34393  0.63247  0.19012  1.0000
  H   H854      1.0  0.37102  0.65567  0.19801  1.0000
  H   H855      1.0  0.41919  0.59573  0.20747  1.0000
  H   H856      1.0  0.39305  0.57314  0.19818  1.0000
  H   H857      1.0  0.48215  0.77853  0.19620  1.0000
  C   C1077     1.0  0.33131  0.65754  0.10324  1.0000
  H   H858      1.0  0.32009  0.79356  0.39489  1.0000
  C   C1078     1.0  0.26704  0.83976  0.13069  1.0000
  C   C1079     1.0  0.27947  0.81942  0.12483  1.0000
  C   C1080     1.0  0.27396  0.80940  0.10769  1.0000
  H   H859      1.0  0.29130  0.52029  0.17334  1.0000
  C   C1081     1.0  0.28949  0.65645  0.02333  1.0000
  H   H860      1.0  0.29329  0.81128  0.13370  1.0000
  H   H861      1.0  0.28349  0.79359  0.10346  1.0000
  C   C1082     1.0  0.34646  0.72145  0.11842  1.0000
  C   C1083     1.0  0.35354  0.74229  0.10901  1.0000
  C   C1084     1.0  0.37327  0.74772  0.11447  1.0000
  C   C1085     1.0  0.38548  0.73261  0.12980  1.0000
  C   C1086     1.0  0.37877  0.71151  0.13837  1.0000
  C   C1087     1.0  0.35936  0.70595  0.13271  1.0000
  H   H862      1.0  0.34377  0.75415  0.09768  1.0000
  H   H863      1.0  0.37884  0.76373  0.10715  1.0000
  H   H864      1.0  0.38872  0.69925  0.14916  1.0000
  H   H865      1.0  0.35436  0.68952  0.13947  1.0000
  P   P37       1.0  0.25427  0.74013  0.18504  1.0000
  C   C1088     1.0  0.26023  0.67068  0.09982  1.0000
  C   C1089     1.0  0.26736  0.64855  0.10990  1.0000
  C   C1090     1.0  0.47815  0.77305  0.18148  1.0000
  H   H866      1.0  0.37404  0.74418  0.05426  1.0000
  H   H867      1.0  0.28398  0.68697  0.13036  1.0000
  H   H868      1.0  0.27126  0.68330  0.09714  1.0000
  H   H869      1.0  0.28393  0.64413  0.11480  1.0000
  P   P38       1.0  0.32308  0.68978  0.48390  1.0000
  C   C1091     1.0  0.34321  0.79272  0.36375  1.0000
  S   S156      1.0  0.31188  0.74336  0.00052  1.0000
  C   C1092     1.0  0.28986  0.78446  0.45685  1.0000
  C   C1093     1.0  0.27810  0.77489  0.44380  1.0000
  C   C1094     1.0  0.26343  0.75953  0.45433  1.0000
  C   C1095     1.0  0.24850  0.71971  0.23025  1.0000
  H   H870      1.0  0.35302  0.61316  0.04267  1.0000
  H   H871      1.0  0.30102  0.79648  0.44858  1.0000
  H   H872      1.0  0.28036  0.77946  0.42563  1.0000
  H   H873      1.0  0.32211  0.67358  0.09687  1.0000
  C   C1096     1.0  0.32867  0.64994  0.12653  1.0000
  S   S157      1.0  0.27121  0.87758  0.25123  1.0000
  S   S158      1.0  0.27527  0.85212  0.15155  1.0000
  C   C1097     1.0  0.29491  0.69380  0.49923  1.0000
  C   C1098     1.0  0.41981  0.83634  0.30961  1.0000
  H   H874      1.0  0.37780  0.67452  0.08428  1.0000
  C   C1099     1.0  0.45586  0.77592  0.17773  1.0000
  H   H875      1.0  0.24929  0.74203  0.48627  1.0000
  H   H876      1.0  0.39876  0.66021  0.04272  1.0000
  H   H877      1.0  0.34362  0.66643  0.01118  1.0000
  H   H878      1.0  0.44265  0.78382  0.18942  1.0000
  H   H879      1.0  0.43317  0.76947  0.15683  1.0000
  C   C1100     1.0  0.35814  0.68421  0.05667  1.0000
  H   H880      1.0  0.49204  0.69633  0.20400  1.0000
  C   C1101     1.0  0.28781  0.65076  0.04686  1.0000
  H   H881      1.0  0.37305  0.82063  0.35905  1.0000
  C   C1102     1.0  0.49515  0.76203  0.16698  1.0000
  H   H882      1.0  0.32643  0.73844  0.47023  1.0000
  H   H883      1.0  0.38669  0.62776  0.48962  1.0000
  C   C1103     1.0  0.30627  0.65077  0.05764  1.0000
  H   H884      1.0  0.28076  0.71060  0.00834  1.0000
  C   C1104     1.0  0.39881  0.84134  0.34647  1.0000
  H   H885      1.0  0.33830  0.62332  0.15302  1.0000
  C   C1105     1.0  0.39700  0.80320  0.23647  1.0000
  H   H886      1.0  0.28324  0.97776  0.20990  1.0000
  H   H887      1.0  0.34174  0.53667  0.19093  1.0000
  P   P39       1.0  0.37342  0.79231  0.32354  1.0000
  H   H888      1.0  0.27221  0.64637  0.05687  1.0000
  H   H889      1.0  0.48173  0.71002  0.15893  1.0000
  H   H890      1.0  0.30467  0.64601  0.07579  1.0000
  C   C1106     1.0  0.37800  0.70946  0.07032  1.0000
  H   H891      1.0  0.25811  0.86953  0.33333  1.0000
  H   H892      1.0  0.43295  0.84080  0.29588  1.0000
  C   C1107     1.0  0.32649  0.65671  0.04499  1.0000
  C   C1108     1.0  0.24962  0.83023  0.30314  1.0000
  H   H893      1.0  0.49157  0.78122  0.10392  1.0000
  C   C1109     1.0  0.32991  0.79861  0.31261  1.0000
  C   C1110     1.0  0.31237  0.81010  0.30115  1.0000
  C   C1111     1.0  0.39246  0.77128  0.30924  1.0000
  C   C1112     1.0  0.38673  0.76304  0.29108  1.0000
  C   C1113     1.0  0.40237  0.74792  0.27928  1.0000
  C   C1114     1.0  0.42373  0.74100  0.28541  1.0000
  C   C1115     1.0  0.42944  0.74887  0.30367  1.0000
  C   C1116     1.0  0.41386  0.76387  0.31561  1.0000
  H   H894      1.0  0.32652  0.78474  0.32602  1.0000
  H   H895      1.0  0.29568  0.80533  0.30600  1.0000
  H   H896      1.0  0.36966  0.66743  0.47967  1.0000
  H   H897      1.0  0.39799  0.74139  0.26535  1.0000
  H   H898      1.0  0.43585  0.72953  0.27595  1.0000
  H   H899      1.0  0.44602  0.74340  0.30843  1.0000
  H   H900      1.0  0.41858  0.76992  0.32965  1.0000
  H   H901      1.0  0.36900  0.61347  0.08581  1.0000
  H   H902      1.0  0.36516  0.73163  0.38966  1.0000
  H   H903      1.0  0.46275  0.74968  0.13145  1.0000
  H   H904      1.0  0.26902  0.80917  0.00302  1.0000
  C   C1117     1.0  0.25723  0.86173  0.31883  1.0000
  H   H905      1.0  0.41036  0.81164  0.29310  1.0000
  C   C1118     1.0  0.35938  0.74886  0.38259  1.0000
  Fe  Fe78      1.0  0.25159  0.78921  0.35827  1.0000
  H   H906      1.0  0.30263  0.83699  0.27491  1.0000
  H   H907      1.0  0.34061  0.84776  0.26355  1.0000
  C   C1119     1.0  0.28096  0.61279  0.27122  1.0000
  C   C1120     1.0  0.29801  0.59433  0.27047  1.0000
  C   C1121     1.0  0.32044  0.59783  0.26643  1.0000
  C   C1122     1.0  0.32584  0.61976  0.26347  1.0000
  C   C1123     1.0  0.30879  0.63842  0.26475  1.0000
  C   C1124     1.0  0.28630  0.63477  0.26815  1.0000
  P   P40       1.0  0.31588  0.66686  0.25850  1.0000
  C   C1125     1.0  0.29551  0.68679  0.27303  1.0000
  C   C1126     1.0  0.34216  0.66600  0.26866  1.0000
  C   C1127     1.0  0.34229  0.66915  0.29106  1.0000
  C   C1128     1.0  0.36253  0.66606  0.29977  1.0000
  C   C1129     1.0  0.38277  0.65979  0.28622  1.0000
  C   C1130     1.0  0.38276  0.65657  0.26399  1.0000
  C   C1131     1.0  0.36260  0.65990  0.25513  1.0000
  C   C1132     1.0  0.29376  0.71003  0.26461  1.0000
  C   C1133     1.0  0.27901  0.72567  0.27646  1.0000
  C   C1134     1.0  0.26613  0.71828  0.29692  1.0000
  C   C1135     1.0  0.26803  0.69529  0.30565  1.0000
  C   C1136     1.0  0.28271  0.67956  0.29383  1.0000
  C   C1137     1.0  0.31750  0.67582  0.22829  1.0000
  C   C1138     1.0  0.30535  0.66629  0.21560  1.0000
  C   C1139     1.0  0.30569  0.67393  0.19247  1.0000
  C   C1140     1.0  0.31786  0.69133  0.18180  1.0000
  C   C1141     1.0  0.32998  0.70090  0.19424  1.0000
  C   C1142     1.0  0.32996  0.69310  0.21738  1.0000
  C   C1143     1.0  0.48996  0.75406  0.14838  1.0000
  H   H908      1.0  0.29382  0.57740  0.27209  1.0000
  H   H909      1.0  0.33369  0.58363  0.26484  1.0000
  H   H910      1.0  0.34334  0.62202  0.25952  1.0000
  H   H911      1.0  0.27294  0.64895  0.26735  1.0000
  H   H912      1.0  0.32686  0.67390  0.30196  1.0000
  H   H913      1.0  0.36247  0.66871  0.31698  1.0000
  H   H914      1.0  0.39848  0.65748  0.29287  1.0000
  H   H915      1.0  0.39843  0.65140  0.25360  1.0000
  H   H916      1.0  0.36295  0.65705  0.23796  1.0000
  H   H917      1.0  0.30415  0.71627  0.24924  1.0000
  H   H918      1.0  0.26398  0.70865  0.22585  1.0000
  C   C1144     1.0  0.41266  0.63064  0.02747  1.0000
  S   S159      1.0  0.25062  0.63726  0.22799  1.0000
  H   H919      1.0  0.28453  0.66192  0.30128  1.0000
  H   H920      1.0  0.29547  0.65300  0.22335  1.0000
  H   H921      1.0  0.29638  0.66637  0.18288  1.0000
  H   H922      1.0  0.31788  0.69743  0.16391  1.0000
  H   H923      1.0  0.33937  0.71442  0.18586  1.0000
  H   H924      1.0  0.33944  0.70072  0.22679  1.0000
  C   C1145     1.0  0.35138  0.80526  0.30698  1.0000
  C   C1146     1.0  0.35526  0.82276  0.28888  1.0000
  H   H925      1.0  0.42214  0.59956  0.01336  1.0000
  C   C1147     1.0  0.40696  0.81977  0.30813  1.0000
  C   C1148     1.0  0.25308  0.63212  0.11361  1.0000
  H   H926      1.0  0.39560  0.84974  0.36133  1.0000
  H   H927      1.0  0.27837  0.68872  0.47194  1.0000
  S   S160      1.0  0.24953  0.74600  0.43839  1.0000
  C   C1149     1.0  0.27295  0.68954  0.14596  1.0000
  C   C1150     1.0  0.27139  0.70975  0.15450  1.0000
  C   C1151     1.0  0.38595  0.82475  0.34506  1.0000
  H   H928      1.0  0.34792  0.66794  0.44492  1.0000
  C   C1152     1.0  0.38336  0.78862  0.23218  1.0000
  C   C1153     1.0  0.28142  0.74937  0.18268  1.0000
  C   C1154     1.0  0.29078  0.74981  0.20216  1.0000
  C   C1155     1.0  0.31172  0.75688  0.20027  1.0000
  C   C1156     1.0  0.32367  0.76335  0.17898  1.0000
  C   C1157     1.0  0.31435  0.76347  0.15950  1.0000
  C   C1158     1.0  0.29321  0.75679  0.16132  1.0000
  C   C1159     1.0  0.34820  0.74643  0.49078  1.0000
  H   H929      1.0  0.42565  0.86000  0.32989  1.0000
  C   C1160     1.0  0.45052  0.76773  0.15947  1.0000
  H   H930      1.0  0.48614  0.66896  0.17216  1.0000
  H   H931      1.0  0.28106  0.72246  0.14497  1.0000
  H   H932      1.0  0.31777  0.66021  0.13807  1.0000
  C   C1161     1.0  0.26066  0.75381  0.47802  1.0000
  H   H933      1.0  0.33464  0.75484  0.41172  1.0000
  C   C1162     1.0  0.33771  0.83406  0.27731  1.0000
  H   H934      1.0  0.28201  0.74498  0.21889  1.0000
  H   H935      1.0  0.31861  0.75747  0.21537  1.0000
  H   H936      1.0  0.34011  0.76833  0.17761  1.0000
  H   H937      1.0  0.32348  0.76875  0.14296  1.0000
  H   H938      1.0  0.28606  0.75771  0.14599  1.0000
  C   C1163     1.0  0.29197  0.80438  0.24263  1.0000
  C   C1164     1.0  0.27572  0.80155  0.23018  1.0000
  C   C1165     1.0  0.27925  0.80659  0.20661  1.0000
  C   C1166     1.0  0.29901  0.81457  0.19545  1.0000
  C   C1167     1.0  0.31538  0.81775  0.20777  1.0000
  C   C1168     1.0  0.31168  0.81253  0.23148  1.0000
  P   P41       1.0  0.34004  0.83012  0.19360  1.0000
  C   C1169     1.0  0.34773  0.82216  0.16560  1.0000
  C   C1170     1.0  0.33412  0.86053  0.19150  1.0000
  C   C1171     1.0  0.34487  0.87439  0.17322  1.0000
  C   C1172     1.0  0.34046  0.89795  0.17181  1.0000
  C   C1173     1.0  0.32564  0.90782  0.18883  1.0000
  C   C1174     1.0  0.31539  0.89412  0.20734  1.0000
  C   C1175     1.0  0.31952  0.87057  0.20865  1.0000
  C   C1176     1.0  0.36552  0.80489  0.16093  1.0000
  C   C1177     1.0  0.37061  0.79847  0.13937  1.0000
  C   C1178     1.0  0.35790  0.80905  0.12238  1.0000
  C   C1179     1.0  0.34035  0.82640  0.12681  1.0000
  C   C1180     1.0  0.33547  0.83310  0.14823  1.0000
  C   C1181     1.0  0.36257  0.81981  0.21011  1.0000
  C   C1182     1.0  0.36625  0.79683  0.21909  1.0000
  C   C1183     1.0  0.37628  0.83450  0.21445  1.0000
  H   H939      1.0  0.28909  0.80068  0.26096  1.0000
  H   H940      1.0  0.26025  0.79581  0.23877  1.0000
  H   H941      1.0  0.26654  0.80473  0.19689  1.0000
  H   H942      1.0  0.30125  0.81828  0.17724  1.0000
  H   H943      1.0  0.32392  0.81496  0.24139  1.0000
  H   H944      1.0  0.35654  0.86704  0.15998  1.0000
  H   H945      1.0  0.34834  0.90858  0.15741  1.0000
  H   H946      1.0  0.32185  0.92606  0.18761  1.0000
  H   H947      1.0  0.30370  0.90176  0.22043  1.0000
  H   H948      1.0  0.31109  0.86030  0.22296  1.0000
  H   H949      1.0  0.37539  0.79608  0.17381  1.0000
  H   H950      1.0  0.38426  0.78504  0.13598  1.0000
  H   H951      1.0  0.36157  0.80375  0.10581  1.0000
  H   H952      1.0  0.33024  0.83452  0.11380  1.0000
  H   H953      1.0  0.32180  0.84659  0.15139  1.0000
  H   H954      1.0  0.35589  0.78520  0.21591  1.0000
  H   H955      1.0  0.37379  0.85232  0.20773  1.0000
  C   C1184     1.0  0.37194  0.68803  0.07152  1.0000
  C   C1185     1.0  0.31623  0.82797  0.28369  1.0000
  P   P42       1.0  0.35075  0.65622  0.05850  1.0000
  C   C1186     1.0  0.35458  0.61606  0.12017  1.0000
  C   C1187     1.0  0.35616  0.72382  0.03986  1.0000
  C   C1188     1.0  0.27081  0.50289  0.20119  1.0000
  C   C1189     1.0  0.38988  0.81381  0.32585  1.0000
  C   C1190     1.0  0.33691  0.73165  0.48317  1.0000
  H   H956      1.0  0.33639  0.80959  0.35655  1.0000
  C   C1191     1.0  0.34030  0.62922  0.13498  1.0000
  C   C1192     1.0  0.32283  0.69619  0.45363  1.0000
  C   C1193     1.0  0.30843  0.71489  0.44473  1.0000
  C   C1194     1.0  0.30753  0.71967  0.42149  1.0000
  C   C1195     1.0  0.32122  0.70598  0.40684  1.0000
  C   C1196     1.0  0.33586  0.68747  0.41543  1.0000
  C   C1197     1.0  0.33665  0.68252  0.43873  1.0000
  C   C1198     1.0  0.25088  0.84019  0.32202  1.0000
  H   H957      1.0  0.41036  0.79658  0.24652  1.0000
  H   H958      1.0  0.38188  0.74733  0.35146  1.0000
  C   C1199     1.0  0.35754  0.62379  0.09685  1.0000
  H   H959      1.0  0.29760  0.72557  0.45584  1.0000
  H   H960      1.0  0.29607  0.73397  0.41486  1.0000
  H   H961      1.0  0.32038  0.70969  0.38884  1.0000
  H   H962      1.0  0.34641  0.67687  0.40396  1.0000
  H   H963      1.0  0.37166  0.82795  0.28380  1.0000
  C   C1200     1.0  0.36997  0.72740  0.05463  1.0000
  H   H964      1.0  0.26362  0.61010  0.27304  1.0000
  S   S161      1.0  0.26482  0.89897  0.18860  1.0000
  C   C1201     1.0  0.34600  0.64473  0.08824  1.0000
  C   C1202     1.0  0.26717  0.98340  0.20409  1.0000
  H   H965      1.0  0.27793  0.74357  0.27001  1.0000
  Fe  Fe79      1.0  0.25096  0.87253  0.17553  1.0000
  S   S162      1.0  0.26256  0.52628  0.21612  1.0000
  Fe  Fe80      1.0  0.29468  0.74304  0.03688  1.0000
  H   H966      1.0  0.38602  0.77082  0.23879  1.0000
  C   C1203     1.0  0.37354  0.63858  0.04404  1.0000
  S   S163      1.0  0.25797  0.75505  0.04567  1.0000
  C   C1204     1.0  0.32811  0.66206  0.02132  1.0000
  C   C1205     1.0  0.39344  0.82618  0.22762  1.0000
  C   C1206     1.0  0.30963  0.66210  0.01058  1.0000
  C   C1207     1.0  0.33391  0.78371  0.38550  1.0000
  C   C1208     1.0  0.25466  0.84203  0.28109  1.0000
  C   C1209     1.0  0.41572  0.84714  0.32876  1.0000
  C   C1210     1.0  0.39522  0.64468  0.03853  1.0000
  C   C1211     1.0  0.24924  0.85026  0.11911  1.0000
  H   H967      1.0  0.38827  0.71233  0.08215  1.0000
  H   H968      1.0  0.40403  0.83752  0.23085  1.0000
  C   C1212     1.0  0.34204  0.76183  0.39495  1.0000
  H   H969      1.0  0.37024  0.76819  0.28600  1.0000
  H   H970      1.0  0.33924  0.70031  0.02943  1.0000
  S   S164      1.0  0.24934  0.80778  0.07421  1.0000
  C   C1213     1.0  0.27630  0.69213  0.48918  1.0000
  C   C1214     1.0  0.49426  0.72534  0.21893  1.0000
  C   C1215     1.0  0.48788  0.77293  0.07189  1.0000
  C   C1216     1.0  0.38708  0.60425  0.02733  1.0000
  C   C1217     1.0  0.26301  0.87306  0.29699  1.0000
  C   C1218     1.0  0.27269  0.76311  0.49107  1.0000
  C   C1219     1.0  0.34347  0.51838  0.19496  1.0000
  Fe  Fe81      1.0  0.25799  0.72510  0.07302  1.0000
  C   C1220     1.0  0.33552  0.66078  0.49140  1.0000
  H   H971      1.0  0.26854  0.88945  0.29476  1.0000
  H   H972      1.0  0.35257  0.84338  0.49204  1.0000
  H   H973      1.0  0.25449  0.78835  0.16524  1.0000
  C   C1221     1.0  0.49110  0.75602  0.05820  1.0000
  C   C1222     1.0  0.33862  0.70873  0.49282  1.0000
  Fe  Fe82      1.0  0.25502  0.75387  0.39993  1.0000
  C   C1223     1.0  0.36314  0.50511  0.18670  1.0000
  C   C1224     1.0  0.25652  0.96804  0.19626  1.0000
  H   H974      1.0  0.37668  0.51325  0.17632  1.0000
  C   C1225     1.0  0.25708  0.79870  0.00075  1.0000
  H   H975      1.0  0.48004  0.78982  0.06596  1.0000
  C   C1226     1.0  0.49443  0.76798  0.09341  1.0000
  H   H976      1.0  0.25367  0.83446  0.26648  1.0000
  S   S165      1.0  0.30221  0.79111  0.49621  1.0000
  C   C1227     1.0  0.36862  0.63228  0.49275  1.0000
  H   H977      1.0  0.27522  0.65654  0.01493  1.0000
  C   C1228     1.0  0.25740  0.71333  0.17484  1.0000
  H   H978      1.0  0.42935  0.63544  0.02330  1.0000
  S   S166      1.0  0.24765  0.59001  0.18962  1.0000
  H   H979      1.0  0.24779  0.68792  0.03855  1.0000
  Fe  Fe83      1.0  0.43322  0.78826  0.70510  1.0000
  S   S167      1.0  0.41696  0.76057  0.69731  1.0000
  Fe  Fe84      1.0  0.39746  0.82463  0.68623  1.0000
  S   S168      1.0  0.37855  0.79967  0.67721  1.0000
  S   S169      1.0  0.38675  0.86183  0.67526  1.0000
  Fe  Fe85      1.0  0.38456  0.78007  0.71120  1.0000
  S   S170      1.0  0.35681  0.76136  0.73098  1.0000
  Fe  Fe86      1.0  0.41246  0.78244  0.66420  1.0000
  S   S171      1.0  0.42435  0.76911  0.63102  1.0000
  S   S172      1.0  0.40080  0.80643  0.72155  1.0000
  S   S173      1.0  0.43129  0.80879  0.67079  1.0000
  Fe  Fe87      1.0  0.33268  0.75167  0.56666  1.0000
  S   S174      1.0  0.30657  0.75631  0.59674  1.0000
  S   S175      1.0  0.36786  0.73431  0.56909  1.0000
  S   S176      1.0  0.27368  0.78548  0.56097  1.0000
  Fe  Fe88      1.0  0.29993  0.79220  0.57970  1.0000
  S   S177      1.0  0.30076  0.81728  0.60277  1.0000
  Fe  Fe89      1.0  0.28274  0.74895  0.57569  1.0000
  C   C1229     1.0  0.26366  0.51555  0.68657  1.0000
  S   S178      1.0  0.32783  0.78789  0.55084  1.0000
  S   S179      1.0  0.30951  0.74084  0.54679  1.0000
  C   C1230     1.0  0.26651  0.64150  0.80118  1.0000
  S   S180      1.0  0.26694  0.94096  0.65125  1.0000
  S   S181      1.0  0.28514  0.89769  0.70678  1.0000
  H   H980      1.0  0.40998  0.74798  0.79675  1.0000
  H   H981      1.0  0.33133  0.94053  0.73713  1.0000
  C   C1231     1.0  0.26582  0.68210  0.79418  1.0000
  H   H982      1.0  0.25991  0.55070  0.69088  1.0000
  Fe  Fe90      1.0  0.29958  0.73142  0.85138  1.0000
  S   S182      1.0  0.30120  0.69583  0.87011  1.0000
  S   S183      1.0  0.33042  0.74861  0.83761  1.0000
  C   C1232     1.0  0.34961  0.69280  0.75559  1.0000
  C   C1233     1.0  0.35502  0.61568  0.50235  1.0000
  C   C1234     1.0  0.36072  0.85581  0.58264  1.0000
  Fe  Fe91      1.0  0.27336  0.71030  0.89529  1.0000
  S   S184      1.0  0.26844  0.69966  0.93343  1.0000
  Fe  Fe92      1.0  0.27395  0.69293  0.85049  1.0000
  S   S185      1.0  0.27374  0.66055  0.83667  1.0000
  S   S186      1.0  0.27383  0.74610  0.87826  1.0000
  S   S187      1.0  0.27430  0.72746  0.82997  1.0000
  H   H983      1.0  0.28622  0.95890  0.70685  1.0000
  C   C1235     1.0  0.36820  0.91558  0.53822  1.0000
  P   P43       1.0  0.34954  0.87747  0.56144  1.0000
  S   S188      1.0  0.27308  0.62877  0.64164  1.0000
  H   H984      1.0  0.27402  0.64870  0.92834  1.0000
  C   C1236     1.0  0.35852  0.91812  0.72219  1.0000
  H   H985      1.0  0.41135  0.64646  0.71815  1.0000
  C   C1237     1.0  0.32669  0.89978  0.59730  1.0000
  C   C1238     1.0  0.28094  0.71195  0.95163  1.0000
  C   C1239     1.0  0.29595  0.72753  0.94329  1.0000
  C   C1240     1.0  0.30560  0.73682  0.95842  1.0000
  C   C1241     1.0  0.30000  0.73092  0.98195  1.0000
  C   C1242     1.0  0.47924  0.82496  0.76794  1.0000
  C   C1243     1.0  0.27560  0.70583  0.97513  1.0000
  H   H986      1.0  0.30026  0.73230  0.92520  1.0000
  H   H987      1.0  0.31728  0.74879  0.95187  1.0000
  C   C1244     1.0  0.27946  0.83607  0.75896  1.0000
  C   C1245     1.0  0.32757  0.89699  0.57463  1.0000
  C   C1246     1.0  0.26832  0.66162  0.80883  1.0000
  P   P44       1.0  0.32571  0.98167  0.70341  1.0000
  H   H988      1.0  0.28338  0.77495  0.83521  1.0000
  C   C1247     1.0  0.34245  0.84791  0.50754  1.0000
  H   H989      1.0  0.28131  0.98906  0.77887  1.0000
  H   H990      1.0  0.38583  0.89896  0.70290  1.0000
  H   H991      1.0  0.24897  0.99307  0.70323  1.0000
  C   C1248     1.0  0.25525  0.53421  0.69800  1.0000
  H   H992      1.0  0.47144  0.82039  0.70068  1.0000
  C   C1249     1.0  0.30229  0.97731  0.72560  1.0000
  C   C1250     1.0  0.26798  0.65656  0.62716  1.0000
  C   C1251     1.0  0.43668  0.62454  0.73524  1.0000
  C   C1252     1.0  0.26225  0.64185  0.77902  1.0000
  H   H993      1.0  0.32116  0.60862  0.51369  1.0000
  C   C1253     1.0  0.28177  0.68895  0.60204  1.0000
  C   C1254     1.0  0.28568  0.66666  0.61343  1.0000
  H   H994      1.0  0.38376  0.72019  0.81280  1.0000
  H   H995      1.0  0.39586  0.84750  0.62242  1.0000
  H   H996      1.0  0.29548  0.69676  0.59164  1.0000
  H   H997      1.0  0.30247  0.65736  0.61184  1.0000
  C   C1255     1.0  0.28343  0.84347  0.60382  1.0000
  C   C1256     1.0  0.26672  0.85102  0.59002  1.0000
  C   C1257     1.0  0.34421  0.93868  0.72269  1.0000
  C   C1258     1.0  0.28262  0.98217  0.76329  1.0000
  C   C1259     1.0  0.27296  0.87777  0.62114  1.0000
  C   C1260     1.0  0.28683  0.85718  0.61891  1.0000
  C   C1261     1.0  0.30924  0.90466  0.79842  1.0000
  C   C1262     1.0  0.35418  0.83423  0.58659  1.0000
  H   H998      1.0  0.30025  0.85181  0.62901  1.0000
  C   C1263     1.0  0.34945  0.75937  0.76054  1.0000
  C   C1264     1.0  0.36085  0.76878  0.77388  1.0000
  C   C1265     1.0  0.35496  0.76541  0.79762  1.0000
  C   C1266     1.0  0.33767  0.75279  0.80795  1.0000
  C   C1267     1.0  0.32625  0.74373  0.79449  1.0000
  C   C1268     1.0  0.33188  0.74729  0.77095  1.0000
  H   H999      1.0  0.37446  0.77815  0.76601  1.0000
  H   H1000     1.0  0.36414  0.77203  0.80807  1.0000
  H   H1001     1.0  0.31344  0.73347  0.80215  1.0000
  H   H1002     1.0  0.32294  0.73998  0.76089  1.0000
  C   C1269     1.0  0.35771  0.87046  0.68170  1.0000
  C   C1270     1.0  0.34472  0.85750  0.69866  1.0000
  C   C1271     1.0  0.32211  0.86566  0.70534  1.0000
  C   C1272     1.0  0.31222  0.88652  0.69495  1.0000
  C   C1273     1.0  0.32481  0.89891  0.67709  1.0000
  C   C1274     1.0  0.34766  0.89102  0.67066  1.0000
  H   H1003     1.0  0.35227  0.84153  0.70709  1.0000
  H   H1004     1.0  0.31224  0.85587  0.71873  1.0000
  H   H1005     1.0  0.31717  0.91488  0.66884  1.0000
  H   H1006     1.0  0.35764  0.90101  0.65741  1.0000
  C   C1275     1.0  0.40741  0.75977  0.61478  1.0000
  C   C1276     1.0  0.41817  0.75030  0.59561  1.0000
  C   C1277     1.0  0.40581  0.74244  0.58198  1.0000
  C   C1278     1.0  0.38244  0.74444  0.58702  1.0000
  C   C1279     1.0  0.37148  0.75366  0.60640  1.0000
  C   C1280     1.0  0.38403  0.76104  0.62051  1.0000
  H   H1007     1.0  0.43622  0.74903  0.59124  1.0000
  H   H1008     1.0  0.41437  0.73515  0.56720  1.0000
  H   H1009     1.0  0.35343  0.75488  0.61061  1.0000
  H   H1010     1.0  0.37563  0.76798  0.63552  1.0000
  C   C1281     1.0  0.41498  0.72057  0.75133  1.0000
  H   H1011     1.0  0.27542  0.64169  0.88894  1.0000
  C   C1282     1.0  0.29407  0.92479  0.57216  1.0000
  C   C1283     1.0  0.31065  0.88112  0.80077  1.0000
  H   H1012     1.0  0.26623  0.79828  0.64542  1.0000
  C   C1284     1.0  0.26571  0.97076  0.75993  1.0000
  H   H1013     1.0  0.30670  0.83206  0.67612  1.0000
  C   C1285     1.0  0.37874  0.83553  0.76804  1.0000
  C   C1286     1.0  0.38677  0.82341  0.78752  1.0000
  C   C1287     1.0  0.37167  0.81620  0.80644  1.0000
  C   C1288     1.0  0.34854  0.82079  0.80581  1.0000
  C   C1289     1.0  0.34040  0.83255  0.78612  1.0000
  C   C1290     1.0  0.35566  0.84015  0.76733  1.0000
  P   P45       1.0  0.31074  0.84054  0.78540  1.0000
  C   C1291     1.0  0.30199  0.83062  0.76241  1.0000
  C   C1292     1.0  0.29393  0.82752  0.81006  1.0000
  C   C1293     1.0  0.29582  0.80388  0.81437  1.0000
  C   C1294     1.0  0.28174  0.79322  0.83217  1.0000
  C   C1295     1.0  0.25641  0.88550  0.60727  1.0000
  C   C1296     1.0  0.26348  0.82968  0.84158  1.0000
  C   C1297     1.0  0.27740  0.84043  0.82356  1.0000
  H   H1014     1.0  0.26019  0.69827  0.76068  1.0000
  H   H1015     1.0  0.35642  0.90430  0.73600  1.0000
  H   H1016     1.0  0.25428  0.83109  0.74009  1.0000
  C   C1298     1.0  0.30906  0.80738  0.73245  1.0000
  C   C1299     1.0  0.31671  0.81594  0.74922  1.0000
  C   C1300     1.0  0.30659  0.87091  0.78308  1.0000
  C   C1301     1.0  0.30946  0.97269  0.64301  1.0000
  H   H1017     1.0  0.26287  0.51751  0.62857  1.0000
  H   H1018     1.0  0.42817  0.88256  0.52655  1.0000
  H   H1019     1.0  0.26133  0.75163  0.63010  1.0000
  C   C1302     1.0  0.48722  0.81121  0.70515  1.0000
  H   H1020     1.0  0.39040  0.84132  0.75340  1.0000
  H   H1021     1.0  0.40468  0.81962  0.78793  1.0000
  H   H1022     1.0  0.37785  0.80679  0.82157  1.0000
  H   H1023     1.0  0.33717  0.81501  0.82067  1.0000
  H   H1024     1.0  0.34968  0.84967  0.75212  1.0000
  C   C1303     1.0  0.41144  0.89179  0.52980  1.0000
  H   H1025     1.0  0.47100  0.78432  0.62115  1.0000
  H   H1026     1.0  0.38270  0.94488  0.52040  1.0000
  C   C1304     1.0  0.26380  0.78191  0.98690  1.0000
  H   H1027     1.0  0.27489  0.85869  0.82004  1.0000
  H   H1028     1.0  0.30322  0.80266  0.65358  1.0000
  H   H1029     1.0  0.29732  0.91815  0.74445  1.0000
  H   H1030     1.0  0.31031  0.95875  0.63378  1.0000
  H   H1031     1.0  0.32067  0.79661  0.72191  1.0000
  H   H1032     1.0  0.33404  0.81088  0.75177  1.0000
  H   H1033     1.0  0.29916  0.87699  0.74879  1.0000
  C   C1305     1.0  0.36287  0.71581  0.51791  1.0000
  H   H1034     1.0  0.40944  0.72689  0.65162  1.0000
  H   H1035     1.0  0.26104  0.62629  0.77318  1.0000
  C   C1306     1.0  0.35144  0.70103  0.51053  1.0000
  C   C1307     1.0  0.35128  0.85876  0.52187  1.0000
  C   C1308     1.0  0.32550  0.66395  0.76927  1.0000
  C   C1309     1.0  0.30180  0.88447  0.76283  1.0000
  H   H1036     1.0  0.31520  0.87082  0.81624  1.0000
  C   C1310     1.0  0.44491  0.63638  0.76867  1.0000
  H   H1037     1.0  0.36476  0.96645  0.67137  1.0000
  C   C1311     1.0  0.28495  0.71539  0.99025  1.0000
  C   C1312     1.0  0.49086  0.75690  0.66906  1.0000
  H   H1038     1.0  0.44076  0.70205  0.66801  1.0000
  C   C1313     1.0  0.47576  0.76543  0.65381  1.0000
  H   H1039     1.0  0.28051  0.80533  0.71685  1.0000
  C   C1314     1.0  0.25002  0.84089  0.67733  1.0000
  H   H1040     1.0  0.34182  0.62957  0.77092  1.0000
  C   C1315     1.0  0.28651  0.81252  0.72942  1.0000
  H   H1041     1.0  0.29089  0.84326  0.53827  1.0000
  H   H1042     1.0  0.25124  0.96881  0.77286  1.0000
  H   H1043     1.0  0.25411  0.95349  0.73710  1.0000
  C   C1316     1.0  0.37578  0.86057  0.59571  1.0000
  H   H1044     1.0  0.26416  0.69366  0.98165  1.0000
  H   H1045     1.0  0.26836  0.62561  0.81248  1.0000
  C   C1317     1.0  0.28551  0.96539  0.72257  1.0000
  C   C1318     1.0  0.31116  0.90970  0.56211  1.0000
  H   H1046     1.0  0.31134  0.90774  0.54467  1.0000
  C   C1319     1.0  0.32828  0.68674  0.76392  1.0000
  H   H1047     1.0  0.38514  0.80910  0.62803  1.0000
  C   C1320     1.0  0.38903  0.70466  0.78258  1.0000
  C   C1321     1.0  0.30430  0.91807  0.77820  1.0000
  C   C1322     1.0  0.34402  0.64723  0.76635  1.0000
  H   H1048     1.0  0.27978  0.93888  0.60246  1.0000
  H   H1049     1.0  0.39014  0.93009  0.67089  1.0000
  C   C1323     1.0  0.47034  0.80604  0.76517  1.0000
  C   C1324     1.0  0.48853  0.78844  0.71479  1.0000
  H   H1050     1.0  0.48503  0.74801  0.68558  1.0000
  Fe  Fe93      1.0  0.30225  0.77778  0.53341  1.0000
  C   C1325     1.0  0.26188  0.73696  0.64313  1.0000
  H   H1051     1.0  0.30801  0.79363  0.80374  1.0000
  H   H1052     1.0  0.43960  0.61244  0.72347  1.0000
  S   S189      1.0  0.25426  0.72885  0.59015  1.0000
  C   C1326     1.0  0.36282  0.81756  0.60303  1.0000
  H   H1053     1.0  0.26709  0.69767  0.79987  1.0000
  C   C1327     1.0  0.36534  0.65324  0.75793  1.0000
  H   H1054     1.0  0.34238  0.83006  0.57713  1.0000
  C   C1328     1.0  0.36313  0.95322  0.68584  1.0000
  H   H1055     1.0  0.45835  0.76290  0.65850  1.0000
  C   C1329     1.0  0.39386  0.88044  0.54167  1.0000
  H   H1056     1.0  0.37744  0.69275  0.78990  1.0000
  S   S190      1.0  0.26480  0.60760  0.70671  1.0000
  H   H1057     1.0  0.37934  0.63988  0.75624  1.0000
  H   H1058     1.0  0.36829  0.86248  0.51717  1.0000
  C   C1330     1.0  0.48299  0.77751  0.63276  1.0000
  H   H1059     1.0  0.37257  0.99083  0.69970  1.0000
  H   H1060     1.0  0.28268  0.72933  0.74517  1.0000
  H   H1061     1.0  0.26146  0.78112  0.79197  1.0000
  C   C1331     1.0  0.38443  0.84379  0.61217  1.0000
  H   H1062     1.0  0.28094  0.93396  0.56277  1.0000
  Fe  Fe94      1.0  0.26094  0.91925  0.68501  1.0000
  C   C1332     1.0  0.37816  0.82221  0.61560  1.0000
  C   C1333     1.0  0.26014  0.66232  0.76430  1.0000
  C   C1334     1.0  0.33823  0.86436  0.54212  1.0000
  S   S191      1.0  0.46443  0.77459  0.72157  1.0000
  H   H1063     1.0  0.42979  0.74841  0.75728  1.0000
  H   H1064     1.0  0.27268  0.85653  0.69126  1.0000
  H   H1065     1.0  0.42617  0.66748  0.77779  1.0000
  H   H1066     1.0  0.42382  0.72103  0.73423  1.0000
  H   H1067     1.0  0.31395  0.69966  0.76666  1.0000
  C   C1335     1.0  0.32195  0.64394  0.50074  1.0000
  H   H1068     1.0  0.36254  0.59829  0.50670  1.0000
  H   H1069     1.0  0.47379  0.76972  0.77034  1.0000
  H   H1070     1.0  0.26417  0.84061  0.57817  1.0000
  C   C1336     1.0  0.39280  0.72003  0.79575  1.0000
  H   H1071     1.0  0.30626  0.86247  0.56356  1.0000
  H   H1072     1.0  0.30903  0.65923  0.77593  1.0000
  H   H1073     1.0  0.35737  0.80108  0.60601  1.0000
  C   C1337     1.0  0.26730  0.96217  0.73972  1.0000
  C   C1338     1.0  0.29342  0.92759  0.59464  1.0000
  H   H1074     1.0  0.30883  0.91674  0.62485  1.0000
  H   H1075     1.0  0.45422  0.63346  0.78283  1.0000
  H   H1076     1.0  0.26784  0.84709  0.76920  1.0000
  C   C1339     1.0  0.29150  0.69778  0.52178  1.0000
  C   C1340     1.0  0.26981  0.70079  0.53384  1.0000
  H   H1077     1.0  0.42107  0.92380  0.51297  1.0000
  H   H1078     1.0  0.30555  0.69857  0.53014  1.0000
  H   H1079     1.0  0.46111  0.60583  0.75577  1.0000
  C   C1341     1.0  0.48057  0.78434  0.77290  1.0000
  H   H1080     1.0  0.27541  0.88789  0.63330  1.0000
  C   C1342     1.0  0.28832  0.81307  0.66060  1.0000
  C   C1343     1.0  0.31638  0.85877  0.54782  1.0000
  H   H1081     1.0  0.27508  0.51771  0.67089  1.0000
  H   H1082     1.0  0.35221  0.68379  0.51914  1.0000
  H   H1083     1.0  0.26734  0.70414  0.55116  1.0000
  C   C1344     1.0  0.26564  0.80606  0.84586  1.0000
  H   H1084     1.0  0.26477  0.68306  0.68816  1.0000
  C   C1345     1.0  0.26007  0.70098  0.60404  1.0000
  H   H1085     1.0  0.37253  0.70985  0.53173  1.0000
  H   H1086     1.0  0.30352  0.93626  0.77622  1.0000
  C   C1346     1.0  0.41683  0.65963  0.74742  1.0000
  C   C1347     1.0  0.29371  0.73047  0.72911  1.0000
  C   C1348     1.0  0.30489  0.74926  0.72158  1.0000
  C   C1349     1.0  0.31892  0.75095  0.70075  1.0000
  C   C1350     1.0  0.32173  0.73387  0.68735  1.0000
  C   C1351     1.0  0.31079  0.71476  0.69492  1.0000
  C   C1352     1.0  0.29642  0.71339  0.71571  1.0000
  P   P46       1.0  0.30991  0.69577  0.67556  1.0000
  C   C1353     1.0  0.28378  0.70692  0.66538  1.0000
  C   C1354     1.0  0.33330  0.69598  0.65298  1.0000
  C   C1355     1.0  0.33003  0.69671  0.63052  1.0000
  C   C1356     1.0  0.34836  0.69581  0.61326  1.0000
  C   C1357     1.0  0.37012  0.69387  0.61831  1.0000
  C   C1358     1.0  0.37357  0.69243  0.64072  1.0000
  C   C1359     1.0  0.35522  0.69331  0.65807  1.0000
  C   C1360     1.0  0.31589  0.98682  0.67619  1.0000
  C   C1361     1.0  0.30974  0.91513  0.60719  1.0000
  H   H1087     1.0  0.27061  0.75843  0.50928  1.0000
  C   C1362     1.0  0.28243  0.72686  0.64975  1.0000
  H   H1088     1.0  0.28089  0.77960  0.97818  1.0000
  C   C1363     1.0  0.31121  0.66649  0.68798  1.0000
  C   C1364     1.0  0.31737  0.65884  0.70958  1.0000
  C   C1365     1.0  0.31993  0.63570  0.71799  1.0000
  C   C1366     1.0  0.31722  0.62009  0.70459  1.0000
  C   C1367     1.0  0.31159  0.62762  0.68289  1.0000
  C   C1368     1.0  0.30832  0.65073  0.67473  1.0000
  C   C1369     1.0  0.30075  0.90794  0.76037  1.0000
  H   H1089     1.0  0.30279  0.76244  0.73200  1.0000
  H   H1090     1.0  0.32756  0.76559  0.69494  1.0000
  H   H1091     1.0  0.33178  0.73603  0.67077  1.0000
  H   H1092     1.0  0.28670  0.69949  0.72120  1.0000
  H   H1093     1.0  0.31339  0.69781  0.62627  1.0000
  H   H1094     1.0  0.34569  0.69688  0.59587  1.0000
  H   H1095     1.0  0.38424  0.69367  0.60475  1.0000
  H   H1096     1.0  0.39047  0.69062  0.64458  1.0000
  H   H1097     1.0  0.35804  0.69173  0.67544  1.0000
  H   H1098     1.0  0.31237  0.91246  0.81212  1.0000
  C   C1370     1.0  0.30763  0.84789  0.53351  1.0000
  C   C1371     1.0  0.41859  0.73603  0.76448  1.0000
  H   H1099     1.0  0.29195  0.54146  0.62643  1.0000
  H   H1100     1.0  0.29730  0.73465  0.64277  1.0000
  H   H1101     1.0  0.32026  0.67056  0.71993  1.0000
  H   H1102     1.0  0.32387  0.62986  0.73492  1.0000
  H   H1103     1.0  0.31905  0.60218  0.71114  1.0000
  H   H1104     1.0  0.30915  0.61560  0.67253  1.0000
  H   H1105     1.0  0.30374  0.65629  0.65795  1.0000
  C   C1372     1.0  0.31679  0.96880  0.66414  1.0000
  H   H1106     1.0  0.35168  0.71047  0.75208  1.0000
  H   H1107     1.0  0.45581  0.80811  0.75656  1.0000
  C   C1373     1.0  0.37211  0.89227  0.54604  1.0000
  H   H1108     1.0  0.33872  0.88994  0.60760  1.0000
  H   H1109     1.0  0.31084  0.66677  0.99236  1.0000
  C   C1374     1.0  0.27113  0.84359  0.68156  1.0000
  H   H1110     1.0  0.35160  0.92509  0.54127  1.0000
  C   C1375     1.0  0.26728  0.81077  0.65580  1.0000
  C   C1376     1.0  0.32064  0.84250  0.51335  1.0000
  C   C1377     1.0  0.37751  0.93268  0.68547  1.0000
  H   H1111     1.0  0.37251  0.73441  0.67522  1.0000
  H   H1112     1.0  0.36604  0.71557  0.71454  1.0000
  C   C1378     1.0  0.37511  0.91510  0.70357  1.0000
  C   C1379     1.0  0.44878  0.62081  0.75344  1.0000
  H   H1113     1.0  0.39721  0.86240  0.54740  1.0000
  C   C1380     1.0  0.42074  0.64384  0.73224  1.0000
  H   H1114     1.0  0.43519  0.68372  0.70772  1.0000
  H   H1115     1.0  0.38071  0.87725  0.59329  1.0000
  C   C1381     1.0  0.40754  0.73573  0.78670  1.0000
  C   C1382     1.0  0.42436  0.70440  0.67818  1.0000
  C   C1383     1.0  0.40674  0.71861  0.66895  1.0000
  C   C1384     1.0  0.38583  0.72259  0.68221  1.0000
  C   C1385     1.0  0.38227  0.71179  0.70460  1.0000
  C   C1386     1.0  0.39974  0.69699  0.71395  1.0000
  C   C1387     1.0  0.42101  0.69388  0.70067  1.0000
  P   P47       1.0  0.39603  0.68441  0.74347  1.0000
  C   C1388     1.0  0.40006  0.70487  0.76022  1.0000
  C   C1389     1.0  0.36833  0.67616  0.75245  1.0000
  C   C1390     1.0  0.42897  0.65571  0.76572  1.0000
  C   C1391     1.0  0.29030  0.82970  0.67316  1.0000
  H   H1116     1.0  0.32298  0.95169  0.67106  1.0000
  C   C1392     1.0  0.34618  0.95630  0.70437  1.0000
  C   C1393     1.0  0.25136  0.69962  0.52357  1.0000
  C   C1394     1.0  0.40744  0.91501  0.52215  1.0000
  C   C1395     1.0  0.24877  0.76764  0.98482  1.0000
  C   C1396     1.0  0.25461  0.69515  0.50129  1.0000
  H   H1117     1.0  0.47143  0.84176  0.76171  1.0000
  C   C1397     1.0  0.38583  0.92688  0.52634  1.0000
  C   C1398     1.0  0.27174  0.82699  0.74257  1.0000
  C   C1399     1.0  0.27445  0.54891  0.62809  1.0000
  H   H1118     1.0  0.30386  0.64805  0.50385  1.0000
  C   C1400     1.0  0.26413  0.69793  0.67536  1.0000
  H   H1119     1.0  0.31397  0.99394  0.74937  1.0000
  Fe  Fe95      1.0  0.25018  0.62276  0.67493  1.0000
  C   C1401     1.0  0.33171  0.62150  0.50629  1.0000
  C   C1402     1.0  0.36119  0.73853  0.50813  1.0000
  C   C1403     1.0  0.25346  0.87223  0.59149  1.0000
  H   H1120     1.0  0.31391  0.83381  0.50241  1.0000
  H   H1121     1.0  0.25644  0.91148  0.74896  1.0000
  C   C1404     1.0  0.30101  0.98516  0.74634  1.0000
  C   C1405     1.0  0.25857  0.64955  0.92151  1.0000
  C   C1406     1.0  0.25937  0.64572  0.89932  1.0000
  C   C1407     1.0  0.26191  0.68239  0.77197  1.0000
  S   S192      1.0  0.25661  0.66367  0.73585  1.0000
  H   H1122     1.0  0.25160  0.90584  0.79103  1.0000
  H   H1123     1.0  0.28147  0.58245  0.62880  1.0000
  C   C1408     1.0  0.30034  0.99443  0.63412  1.0000
  H   H1124     1.0  0.25434  0.75462  0.97410  1.0000
  C   C1409     1.0  0.26858  0.57194  0.62949  1.0000
  H   H1125     1.0  0.25470  0.79761  0.85959  1.0000
  C   C1410     1.0  0.25777  0.53533  0.62931  1.0000
  Fe  Fe96      1.0  0.24881  0.73912  0.85823  1.0000
  H   H1126     1.0  0.29374  0.99731  0.61823  1.0000
  H   H1127     1.0  0.25083  0.83962  0.85206  1.0000
  H   H1128     1.0  0.36941  0.75012  0.51451  1.0000
  C   C1411     1.0  0.24799  0.82489  0.66388  1.0000
  Fe  Fe97      1.0  0.71098  0.09150  0.26563  1.0000
  S   S193      1.0  0.68805  0.10623  0.23975  1.0000
  S   S194      1.0  0.70240  0.06949  0.29861  1.0000
  Fe  Fe98      1.0  0.54277  0.22231  0.26427  1.0000
  S   S195      1.0  0.56799  0.24619  0.25040  1.0000
  Fe  Fe99      1.0  0.57844  0.18121  0.26279  1.0000
  S   S196      1.0  0.60626  0.20155  0.24838  1.0000
  S   S197      1.0  0.58705  0.14375  0.27322  1.0000
  Fe  Fe100     1.0  0.58984  0.22395  0.27394  1.0000
  S   S198      1.0  0.61423  0.23757  0.28981  1.0000
  Fe  Fe101     1.0  0.58228  0.22177  0.22602  1.0000
  S   S199      1.0  0.59253  0.23669  0.18959  1.0000
  S   S200      1.0  0.56358  0.20233  0.29015  1.0000
  S   S201      1.0  0.55540  0.19934  0.23803  1.0000
  Fe  Fe102     1.0  0.69845  0.22741  0.42987  1.0000
  H   H1129     1.0  0.71105  0.17150  0.14574  1.0000
  S   S202      1.0  0.69581  0.21939  0.46820  1.0000
  Fe  Fe103     1.0  0.66824  0.23163  0.39344  1.0000
  S   S203      1.0  0.69566  0.23992  0.36485  1.0000
  S   S204      1.0  0.63274  0.22849  0.38954  1.0000
  Fe  Fe104     1.0  0.71710  0.21205  0.38405  1.0000
  H   H1130     1.0  0.73600  0.37696  0.04430  1.0000
  Fe  Fe105     1.0  0.70468  0.26193  0.38701  1.0000
  H   H1131     1.0  0.68535  0.30252  0.01019  1.0000
  S   S205      1.0  0.68915  0.20217  0.41126  1.0000
  S   S206      1.0  0.67519  0.25633  0.41414  1.0000
  C   C1412     1.0  0.49987  0.22556  0.37707  1.0000
  S   S207      1.0  0.73777  0.26156  0.14346  1.0000
  C   C1413     1.0  0.65417  0.31996  0.30218  1.0000
  C   C1414     1.0  0.67565  0.20821  0.07842  1.0000
  S   S208      1.0  0.71435  0.34234  0.27368  1.0000
  Fe  Fe106     1.0  0.72085  0.29511  0.12825  1.0000
  C   C1415     1.0  0.72707  0.33723  0.15679  1.0000
  S   S209      1.0  0.70767  0.32271  0.14932  1.0000
  Fe  Fe107     1.0  0.71757  0.27870  0.08416  1.0000
  C   C1416     1.0  0.72271  0.33004  0.33983  1.0000
  S   S210      1.0  0.70484  0.29204  0.05066  1.0000
  Fe  Fe108     1.0  0.71238  0.24734  0.12944  1.0000
  S   S211      1.0  0.69611  0.21873  0.15133  1.0000
  P   P48       1.0  0.63482  0.30585  0.26922  1.0000
  S   S212      1.0  0.69399  0.28093  0.11676  1.0000
  C   C1417     1.0  0.71712  0.04208  0.20026  1.0000
  C   C1418     1.0  0.73663  0.41948  0.37202  1.0000
  H   H1132     1.0  0.64625  0.06055  0.22368  1.0000
  C   C1419     1.0  0.72285  0.34026  0.31716  1.0000
  H   H1133     1.0  0.59141  0.21923  0.02881  1.0000
  C   C1420     1.0  0.74211  0.39643  0.38041  1.0000
  C   C1421     1.0  0.67823  0.01850  0.29054  1.0000
  S   S213      1.0  0.74289  0.06878  0.25563  1.0000
  C   C1422     1.0  0.65914  0.31855  0.32410  1.0000
  H   H1134     1.0  0.70727  0.34126  0.18899  1.0000
  H   H1135     1.0  0.66572  0.23829  0.03494  1.0000
  C   C1423     1.0  0.55809  0.32625  0.28408  1.0000
  C   C1424     1.0  0.63721  0.04148  0.25685  1.0000
  C   C1425     1.0  0.71693  0.32885  0.30146  1.0000
  C   C1426     1.0  0.71175  0.30680  0.30830  1.0000
  C   C1427     1.0  0.71187  0.29646  0.33092  1.0000
  H   H1136     1.0  0.61910  0.34695  0.23846  1.0000
  H   H1137     1.0  0.52890  0.25229  0.18838  1.0000
  H   H1138     1.0  0.70700  0.29792  0.29628  1.0000
  H   H1139     1.0  0.70742  0.27967  0.33607  1.0000
  C   C1428     1.0  0.66736  0.22406  0.16193  1.0000
  C   C1429     1.0  0.65805  0.20876  0.17973  1.0000
  C   C1430     1.0  0.63516  0.21265  0.18858  1.0000
  C   C1431     1.0  0.62141  0.23165  0.17939  1.0000
  C   C1432     1.0  0.63066  0.24672  0.16137  1.0000
  C   C1433     1.0  0.65361  0.24307  0.15279  1.0000
  H   H1140     1.0  0.66856  0.19389  0.18675  1.0000
  H   H1141     1.0  0.62810  0.20063  0.20214  1.0000
  H   H1142     1.0  0.62000  0.26120  0.15401  1.0000
  H   H1143     1.0  0.66045  0.25468  0.13876  1.0000
  C   C1434     1.0  0.61916  0.22865  0.31787  1.0000
  C   C1435     1.0  0.60145  0.22834  0.33587  1.0000
  C   C1436     1.0  0.60585  0.22715  0.35811  1.0000
  C   C1437     1.0  0.62791  0.22610  0.36232  1.0000
  C   C1438     1.0  0.64567  0.22461  0.34447  1.0000
  C   C1439     1.0  0.64127  0.22614  0.32230  1.0000
  H   H1144     1.0  0.58434  0.23058  0.33251  1.0000
  H   H1145     1.0  0.59208  0.22815  0.37191  1.0000
  H   H1146     1.0  0.66272  0.22314  0.34761  1.0000
  H   H1147     1.0  0.65498  0.22632  0.30841  1.0000
  C   C1440     1.0  0.71730  0.12579  0.35104  1.0000
  C   C1441     1.0  0.68162  0.32620  0.45010  1.0000
  S   S214      1.0  0.72851  0.23464  0.40416  1.0000
  C   C1442     1.0  0.73671  0.35758  0.18406  1.0000
  C   C1443     1.0  0.71236  0.15805  0.37111  1.0000
  C   C1444     1.0  0.70499  0.13853  0.36737  1.0000
  S   S215      1.0  0.73382  0.45298  0.25106  1.0000
  C   C1445     1.0  0.68682  0.19708  0.06027  1.0000
  H   H1148     1.0  0.70246  0.16799  0.38337  1.0000
  C   C1446     1.0  0.66065  0.11781  0.25010  1.0000
  C   C1447     1.0  0.64851  0.13413  0.23573  1.0000
  C   C1448     1.0  0.62617  0.14277  0.24313  1.0000
  C   C1449     1.0  0.61570  0.13471  0.26473  1.0000
  C   C1450     1.0  0.62786  0.11844  0.27913  1.0000
  C   C1451     1.0  0.65041  0.11020  0.27194  1.0000
  H   H1149     1.0  0.65635  0.14005  0.21882  1.0000
  H   H1150     1.0  0.61681  0.15514  0.23184  1.0000
  H   H1151     1.0  0.61975  0.11200  0.29574  1.0000
  H   H1152     1.0  0.65962  0.09746  0.28298  1.0000
  C   C1452     1.0  0.63301  0.27673  0.23891  1.0000
  C   C1453     1.0  0.70604  0.22942  0.30015  1.0000
  H   H1153     1.0  0.50653  0.19412  0.26036  1.0000
  C   C1454     1.0  0.70339  0.27497  0.03024  1.0000
  C   C1455     1.0  0.71255  0.25207  0.03207  1.0000
  C   C1456     1.0  0.70875  0.02264  0.19815  1.0000
  C   C1457     1.0  0.69489  0.28603  0.45383  1.0000
  P   P49       1.0  0.74092  0.42916  0.34183  1.0000
  H   H1154     1.0  0.67860  0.34239  0.43946  1.0000
  C   C1458     1.0  0.68188  0.02658  0.23245  1.0000
  C   C1459     1.0  0.70409  0.28485  0.20267  1.0000
  C   C1460     1.0  0.69298  0.27025  0.19462  1.0000
  C   C1461     1.0  0.69711  0.24699  0.20178  1.0000
  C   C1462     1.0  0.71264  0.23827  0.21662  1.0000
  C   C1463     1.0  0.72484  0.25274  0.22369  1.0000
  C   C1464     1.0  0.72001  0.27618  0.21715  1.0000
  H   H1155     1.0  0.72564  0.16982  0.26353  1.0000
  C   C1465     1.0  0.59004  0.29863  0.27359  1.0000
  C   C1466     1.0  0.71568  0.23902  0.27874  1.0000
  H   H1156     1.0  0.69635  0.43318  0.28016  1.0000
  C   C1467     1.0  0.71446  0.20755  0.30936  1.0000
  C   C1468     1.0  0.62603  0.00121  0.23440  1.0000
  H   H1157     1.0  0.67235  0.25710  0.07182  1.0000
  C   C1469     1.0  0.73384  0.23586  0.47391  1.0000
  H   H1158     1.0  0.70081  0.30288  0.19714  1.0000
  H   H1159     1.0  0.68141  0.27688  0.18260  1.0000
  H   H1160     1.0  0.68847  0.23566  0.19561  1.0000
  H   H1161     1.0  0.71594  0.22011  0.22167  1.0000
  C   C1470     1.0  0.71502  0.43165  0.30754  1.0000
  C   C1471     1.0  0.73757  0.49452  0.26106  1.0000
  H   H1162     1.0  0.70720  0.20012  0.32607  1.0000
  H   H1163     1.0  0.63447  0.21570  0.12970  1.0000
  C   C1472     1.0  0.71077  0.39266  0.13785  1.0000
  C   C1473     1.0  0.71257  0.15426  0.21686  1.0000
  C   C1474     1.0  0.61327  0.16663  0.13444  1.0000
  C   C1475     1.0  0.69024  0.04635  0.23416  1.0000
  C   C1476     1.0  0.68982  0.28442  0.47737  1.0000
  C   C1477     1.0  0.71061  0.40034  0.33794  1.0000
  H   H1164     1.0  0.68101  0.37244  0.21037  1.0000
  C   C1478     1.0  0.72061  0.41975  0.32831  1.0000
  C   C1479     1.0  0.66666  0.00599  0.28020  1.0000
  C   C1480     1.0  0.51501  0.22884  0.35709  1.0000
  C   C1481     1.0  0.73389  0.15249  0.20366  1.0000
  C   C1482     1.0  0.65327  0.30069  0.34080  1.0000
  H   H1165     1.0  0.55566  0.29280  0.27801  1.0000
  H   H1166     1.0  0.59632  0.28164  0.27012  1.0000
  C   C1483     1.0  0.68306  0.01086  0.31254  1.0000
  C   C1484     1.0  0.70938  0.19853  0.09622  1.0000
  C   C1485     1.0  0.67659  0.32462  0.47371  1.0000
  H   H1167     1.0  0.73982  0.01704  0.25184  1.0000
  H   H1168     1.0  0.61829  0.09400  0.23050  1.0000
  H   H1169     1.0  0.71797  0.17924  0.04560  1.0000
  H   H1170     1.0  0.56586  0.35782  0.29017  1.0000
  C   C1486     1.0  0.69558  0.39292  0.32683  1.0000
  C   C1487     1.0  0.68015  0.30357  0.48748  1.0000
  C   C1488     1.0  0.64181  0.28457  0.33576  1.0000
  C   C1489     1.0  0.64324  0.30340  0.29679  1.0000
  C   C1490     1.0  0.69066  0.30687  0.44016  1.0000
  C   C1491     1.0  0.62743  0.17949  0.09522  1.0000
  C   C1492     1.0  0.70224  0.15750  0.15363  1.0000
  C   C1493     1.0  0.72228  0.34496  0.17773  1.0000
  C   C1494     1.0  0.64292  0.27994  0.25715  1.0000
  C   C1495     1.0  0.69053  0.40463  0.30597  1.0000
  H   H1171     1.0  0.53246  0.22974  0.35774  1.0000
  C   C1496     1.0  0.72390  0.42697  0.41062  1.0000
  H   H1172     1.0  0.71927  0.41015  0.16250  1.0000
  H   H1173     1.0  0.66319  0.29598  0.08080  1.0000
  H   H1174     1.0  0.61090  0.45129  0.12474  1.0000
  H   H1175     1.0  0.74685  0.12259  0.32607  1.0000
  S   S216      1.0  0.73057  0.39722  0.23042  1.0000
  C   C1497     1.0  0.69291  0.28499  0.01139  1.0000
  H   H1176     1.0  0.63106  0.17658  0.07775  1.0000
  C   C1498     1.0  0.61527  0.21894  0.05132  1.0000
  C   C1499     1.0  0.73657  0.36972  0.02905  1.0000
  H   H1177     1.0  0.61626  0.01782  0.23469  1.0000
  H   H1178     1.0  0.68296  0.05627  0.24753  1.0000
  C   C1500     1.0  0.71168  0.23956  0.01477  1.0000
  C   C1501     1.0  0.72744  0.43469  0.38733  1.0000
  C   C1502     1.0  0.72060  0.18812  0.07783  1.0000
  H   H1179     1.0  0.68949  0.13351  0.37683  1.0000
  C   C1503     1.0  0.69126  0.01488  0.21415  1.0000
  H   H1180     1.0  0.70212  0.27103  0.44623  1.0000
  H   H1181     1.0  0.73536  0.19000  0.16523  1.0000
  S   S217      1.0  0.70695  0.10210  0.34599  1.0000
  S   S218      1.0  0.73397  0.24380  0.09589  1.0000
  H   H1182     1.0  0.71804  0.19891  0.11028  1.0000
  H   H1183     1.0  0.67944  0.39848  0.29704  1.0000
  C   C1504     1.0  0.64972  0.23347  0.03377  1.0000
  C   C1505     1.0  0.61936  0.18556  0.14077  1.0000
  C   C1506     1.0  0.61924  0.07919  0.24339  1.0000
  C   C1507     1.0  0.60648  0.06062  0.28095  1.0000
  H   H1184     1.0  0.54009  0.33092  0.28800  1.0000
  C   C1508     1.0  0.73257  0.16441  0.35919  1.0000
  C   C1509     1.0  0.60483  0.07933  0.26394  1.0000
  C   C1510     1.0  0.63664  0.28602  0.31391  1.0000
  H   H1185     1.0  0.67327  0.17131  0.13730  1.0000
  H   H1186     1.0  0.62055  0.28973  0.23197  1.0000
  H   H1187     1.0  0.72303  0.45253  0.38143  1.0000
  C   C1511     1.0  0.70010  0.42410  0.29644  1.0000
  H   H1188     1.0  0.61320  0.14855  0.10687  1.0000
  H   H1189     1.0  0.70634  0.10900  0.19166  1.0000
  C   C1512     1.0  0.61751  0.16347  0.11170  1.0000
  C   C1513     1.0  0.50764  0.23100  0.33617  1.0000
  C   C1514     1.0  0.64054  0.24708  0.08877  1.0000
  C   C1515     1.0  0.65626  0.26220  0.08161  1.0000
  C   C1516     1.0  0.65111  0.28429  0.08665  1.0000
  C   C1517     1.0  0.63045  0.29135  0.09911  1.0000
  C   C1518     1.0  0.61462  0.27644  0.10613  1.0000
  C   C1519     1.0  0.61950  0.25449  0.10070  1.0000
  H   H1190     1.0  0.66849  0.10895  0.18303  1.0000
  S   S219      1.0  0.72741  0.11476  0.28032  1.0000
  H   H1191     1.0  0.67863  0.21687  0.11076  1.0000
  H   H1192     1.0  0.63937  0.37625  0.21406  1.0000
  C   C1520     1.0  0.56682  0.30483  0.27837  1.0000
  H   H1193     1.0  0.62668  0.30842  0.10308  1.0000
  H   H1194     1.0  0.59851  0.28189  0.11568  1.0000
  H   H1195     1.0  0.60681  0.24337  0.10576  1.0000
  C   C1521     1.0  0.68454  0.40484  0.16956  1.0000
  H   H1196     1.0  0.72685  0.33917  0.35201  1.0000
  Fe  Fe109     1.0  0.72169  0.09077  0.31262  1.0000
  C   C1522     1.0  0.69413  0.38300  0.13128  1.0000
  C   C1523     1.0  0.67243  0.38446  0.14369  1.0000
  C   C1524     1.0  0.66777  0.39541  0.16293  1.0000
  P   P50       1.0  0.65035  0.37294  0.13505  1.0000
  C   C1525     1.0  0.62569  0.39411  0.13661  1.0000
  C   C1526     1.0  0.65848  0.36680  0.10639  1.0000
  C   C1527     1.0  0.65059  0.38149  0.08791  1.0000
  C   C1528     1.0  0.65684  0.37599  0.06597  1.0000
  C   C1529     1.0  0.67101  0.35590  0.06235  1.0000
  C   C1530     1.0  0.67900  0.34136  0.08065  1.0000
  C   C1531     1.0  0.67269  0.34670  0.10254  1.0000
  C   C1532     1.0  0.60434  0.38817  0.14563  1.0000
  C   C1533     1.0  0.58552  0.40487  0.14695  1.0000
  C   C1534     1.0  0.58787  0.42759  0.13939  1.0000
  C   C1535     1.0  0.60907  0.43365  0.13050  1.0000
  C   C1536     1.0  0.62791  0.41701  0.12914  1.0000
  C   C1537     1.0  0.64477  0.34661  0.15264  1.0000
  C   C1538     1.0  0.65387  0.33918  0.17283  1.0000
  C   C1539     1.0  0.64965  0.31852  0.18593  1.0000
  C   C1540     1.0  0.63664  0.30500  0.17878  1.0000
  C   C1541     1.0  0.62766  0.31222  0.15865  1.0000
  C   C1542     1.0  0.63172  0.33291  0.14560  1.0000
  H   H1197     1.0  0.68102  0.41310  0.18452  1.0000
  C   C1543     1.0  0.59584  0.33523  0.28044  1.0000
  C   C1544     1.0  0.64907  0.32658  0.24953  1.0000
  H   H1198     1.0  0.69847  0.37412  0.11680  1.0000
  H   H1199     1.0  0.65119  0.39664  0.17280  1.0000
  H   H1200     1.0  0.63955  0.39706  0.09029  1.0000
  H   H1201     1.0  0.65064  0.38727  0.05175  1.0000
  H   H1202     1.0  0.67580  0.35150  0.04541  1.0000
  H   H1203     1.0  0.69008  0.32585  0.07798  1.0000
  H   H1204     1.0  0.67895  0.33507  0.11649  1.0000
  H   H1205     1.0  0.60206  0.37077  0.15182  1.0000
  H   H1206     1.0  0.56909  0.40020  0.15395  1.0000
  H   H1207     1.0  0.57328  0.44051  0.14048  1.0000
  H   H1208     1.0  0.64424  0.42200  0.12226  1.0000
  H   H1209     1.0  0.66487  0.34883  0.17808  1.0000
  H   H1210     1.0  0.65697  0.31273  0.20135  1.0000
  H   H1211     1.0  0.63381  0.28874  0.18857  1.0000
  H   H1212     1.0  0.61771  0.30164  0.15308  1.0000
  H   H1213     1.0  0.62484  0.33818  0.12990  1.0000
  H   H1214     1.0  0.72705  0.35716  0.31195  1.0000
  C   C1545     1.0  0.63279  0.19899  0.10135  1.0000
  C   C1546     1.0  0.51122  0.25092  0.18963  1.0000
  C   C1547     1.0  0.71483  0.22592  0.48415  1.0000
  C   C1548     1.0  0.67200  0.35955  0.22095  1.0000
  H   H1215     1.0  0.72658  0.39808  0.43684  1.0000
  C   C1549     1.0  0.63716  0.34513  0.23721  1.0000
  H   H1216     1.0  0.50563  0.22382  0.39330  1.0000
  H   H1217     1.0  0.66725  0.26510  0.27951  1.0000
  H   H1218     1.0  0.69830  0.14973  0.21126  1.0000
  C   C1550     1.0  0.73847  0.38876  0.40369  1.0000
  C   C1551     1.0  0.63829  0.25623  0.23027  1.0000
  C   C1552     1.0  0.65403  0.23911  0.23928  1.0000
  C   C1553     1.0  0.66482  0.24262  0.25663  1.0000
  H   H1219     1.0  0.73749  0.23918  0.45566  1.0000
  H   H1220     1.0  0.66801  0.33108  0.32805  1.0000
  C   C1554     1.0  0.65933  0.26298  0.26555  1.0000
  H   H1221     1.0  0.65894  0.33404  0.28967  1.0000
  H   H1222     1.0  0.62975  0.25332  0.21701  1.0000
  H   H1223     1.0  0.65769  0.22306  0.23291  1.0000
  H   H1224     1.0  0.67682  0.22925  0.26372  1.0000
  H   H1225     1.0  0.65173  0.14005  0.15579  1.0000
  H   H1226     1.0  0.68217  0.30989  0.25576  1.0000
  H   H1227     1.0  0.70211  0.33898  0.23070  1.0000
  C   C1555     1.0  0.64567  0.07616  0.33315  1.0000
  C   C1556     1.0  0.62697  0.06558  0.34286  1.0000
  C   C1557     1.0  0.60805  0.07785  0.35381  1.0000
  C   C1558     1.0  0.60779  0.10074  0.35485  1.0000
  C   C1559     1.0  0.62628  0.11172  0.34447  1.0000
  C   C1560     1.0  0.64546  0.09911  0.33401  1.0000
  P   P51       1.0  0.62575  0.14121  0.34650  1.0000
  C   C1561     1.0  0.59724  0.15530  0.34641  1.0000
  C   C1562     1.0  0.63577  0.14347  0.37223  1.0000
  C   C1563     1.0  0.64200  0.16399  0.37482  1.0000
  C   C1564     1.0  0.64978  0.16609  0.39458  1.0000
  C   C1565     1.0  0.65181  0.14762  0.41179  1.0000
  C   C1566     1.0  0.64593  0.12700  0.40925  1.0000
  C   C1567     1.0  0.63790  0.12490  0.38955  1.0000
  C   C1568     1.0  0.58386  0.14959  0.33224  1.0000
  C   C1569     1.0  0.56144  0.15943  0.33273  1.0000
  C   C1570     1.0  0.55229  0.17542  0.34706  1.0000
  C   C1571     1.0  0.56562  0.18156  0.36091  1.0000
  C   C1572     1.0  0.58802  0.17155  0.36062  1.0000
  C   C1573     1.0  0.64396  0.15478  0.32322  1.0000
  C   C1574     1.0  0.66714  0.15130  0.32375  1.0000
  C   C1575     1.0  0.68154  0.16295  0.30709  1.0000
  C   C1576     1.0  0.67282  0.17848  0.28981  1.0000
  C   C1577     1.0  0.64977  0.18190  0.28894  1.0000
  C   C1578     1.0  0.63533  0.17006  0.30551  1.0000
  H   H1228     1.0  0.66042  0.06649  0.32507  1.0000
  H   H1229     1.0  0.62730  0.04781  0.34209  1.0000
  H   H1230     1.0  0.59363  0.06960  0.36164  1.0000
  H   H1231     1.0  0.59314  0.10987  0.36379  1.0000
  H   H1232     1.0  0.66026  0.10685  0.32649  1.0000
  H   H1233     1.0  0.64080  0.17842  0.36154  1.0000
  H   H1234     1.0  0.65439  0.18206  0.39644  1.0000
  H   H1235     1.0  0.65818  0.14928  0.42693  1.0000
  H   H1236     1.0  0.64786  0.11257  0.42242  1.0000
  H   H1237     1.0  0.63369  0.10873  0.38784  1.0000
  H   H1238     1.0  0.59079  0.13753  0.32074  1.0000
  H   H1239     1.0  0.55140  0.15503  0.32148  1.0000
  H   H1240     1.0  0.53500  0.18326  0.34711  1.0000
  H   H1241     1.0  0.55873  0.19416  0.37183  1.0000
  H   H1242     1.0  0.59797  0.17663  0.37145  1.0000
  H   H1243     1.0  0.67400  0.13979  0.33737  1.0000
  H   H1244     1.0  0.69940  0.16003  0.30787  1.0000
  H   H1245     1.0  0.68388  0.18792  0.27720  1.0000
  H   H1246     1.0  0.64297  0.19415  0.27571  1.0000
  H   H1247     1.0  0.61752  0.17329  0.30462  1.0000
  C   C1579     1.0  0.68707  0.20876  0.09642  1.0000
  C   C1580     1.0  0.57260  0.34141  0.28523  1.0000
  H   H1248     1.0  0.50828  0.23590  0.22474  1.0000
  C   C1581     1.0  0.62934  0.20151  0.12434  1.0000
  H   H1249     1.0  0.69212  0.23896  0.30972  1.0000
  H   H1250     1.0  0.60693  0.34688  0.28199  1.0000
  H   H1251     1.0  0.72003  0.49887  0.25909  1.0000
  C   C1582     1.0  0.63665  0.22343  0.05310  1.0000
  H   H1252     1.0  0.71435  0.39064  0.35383  1.0000
  H   H1253     1.0  0.63677  0.27106  0.34890  1.0000
  H   H1254     1.0  0.67828  0.19567  0.04648  1.0000
  H   H1255     1.0  0.73295  0.36326  0.20040  1.0000
  P   P52       1.0  0.64621  0.21939  0.08028  1.0000
  C   C1583     1.0  0.62255  0.04172  0.27743  1.0000
  C   C1584     1.0  0.72939  0.40403  0.41880  1.0000
  C   C1585     1.0  0.73798  0.45972  0.33619  1.0000
  C   C1586     1.0  0.70783  0.05395  0.21818  1.0000
  C   C1587     1.0  0.68396  0.34062  0.23237  1.0000
  H   H1256     1.0  0.60549  0.15430  0.14722  1.0000
  C   C1588     1.0  0.71655  0.47257  0.33646  1.0000
  C   C1589     1.0  0.67260  0.32414  0.24654  1.0000
  H   H1257     1.0  0.69363  0.26824  0.48764  1.0000
  C   C1590     1.0  0.64862  0.36170  0.22315  1.0000
  C   C1591     1.0  0.60474  0.31398  0.27404  1.0000
  H   H1258     1.0  0.65759  0.29933  0.35765  1.0000
  H   H1259     1.0  0.62726  0.27374  0.31038  1.0000
  H   H1260     1.0  0.67000  0.33977  0.48121  1.0000
  H   H1261     1.0  0.60425  0.21256  0.06617  1.0000
  H   H1262     1.0  0.70164  0.46435  0.34025  1.0000
  C   C1592     1.0  0.70932  0.18739  0.05985  1.0000
  H   H1263     1.0  0.59266  0.09417  0.26683  1.0000
  H   H1264     1.0  0.61643  0.18791  0.15845  1.0000
  H   H1265     1.0  0.72240  0.32415  0.01220  1.0000
  C   C1593     1.0  0.63525  0.06028  0.23973  1.0000
  H   H1266     1.0  0.72246  0.44663  0.29964  1.0000
  P   P53       1.0  0.73856  0.14100  0.17745  1.0000
  C   C1594     1.0  0.68070  0.15743  0.14877  1.0000
  C   C1595     1.0  0.66856  0.13988  0.15921  1.0000
  C   C1596     1.0  0.67802  0.12231  0.17442  1.0000
  C   C1597     1.0  0.69957  0.12234  0.17925  1.0000
  S   S220      1.0  0.71493  0.29680  0.37584  1.0000
  H   H1267     1.0  0.59548  0.06095  0.29698  1.0000
  C   C1598     1.0  0.73426  0.22709  0.26656  1.0000
  H   H1268     1.0  0.70859  0.25581  0.27175  1.0000
  C   C1599     1.0  0.70606  0.40340  0.15706  1.0000
  H   H1269     1.0  0.69233  0.02048  0.32022  1.0000
  H   H1270     1.0  0.74520  0.10423  0.15074  1.0000
  H   H1271     1.0  0.62361  0.02742  0.29085  1.0000
  C   C1600     1.0  0.64230  0.23733  0.01270  1.0000
  C   C1601     1.0  0.49964  0.24159  0.21012  1.0000
  S   S221      1.0  0.50667  0.23777  0.27397  1.0000
  S   S222      1.0  0.74198  0.18897  0.36346  1.0000
  H   H1272     1.0  0.68357  0.03418  0.28176  1.0000
  C   C1602     1.0  0.71685  0.30825  0.34687  1.0000
  C   C1603     1.0  0.73236  0.19524  0.29703  1.0000
  C   C1604     1.0  0.74531  0.15124  0.34334  1.0000
  H   H1273     1.0  0.71423  0.06914  0.21968  1.0000
  H   H1274     1.0  0.69452  0.30799  0.42187  1.0000
  H   H1275     1.0  0.71686  0.43882  0.42234  1.0000
  H   H1276     1.0  0.73085  0.04792  0.18807  1.0000
  C   C1605     1.0  0.71181  0.14003  0.16901  1.0000
  H   H1277     1.0  0.68826  0.37771  0.33414  1.0000
  S   S223      1.0  0.74292  0.29619  0.09460  1.0000
  H   H1278     1.0  0.69332  0.16086  0.24868  1.0000
  H   H1279     1.0  0.51934  0.23344  0.32058  1.0000
  P   P54       1.0  0.65842  0.01728  0.25266  1.0000
  H   H1280     1.0  0.72052  0.24409  0.04662  1.0000
  H   H1281     1.0  0.63391  0.32087  0.49721  1.0000
  C   C1606     1.0  0.70958  0.16089  0.23820  1.0000
  H   H1282     1.0  0.72870  0.28777  0.22277  1.0000
  C   C1607     1.0  0.72779  0.16600  0.24648  1.0000
  C   C1608     1.0  0.49995  0.25865  0.17092  1.0000
  C   C1609     1.0  0.60781  0.22295  0.03020  1.0000
  H   H1283     1.0  0.73881  0.17823  0.30406  1.0000
  C   C1610     1.0  0.73738  0.13228  0.33882  1.0000
  Fe  Fe110     1.0  0.73723  0.36844  0.25842  1.0000
  Fe  Fe111     1.0  0.73579  0.04858  0.29009  1.0000
  H   H1284     1.0  0.73579  0.27705  0.26848  1.0000
  S   S224      1.0  0.73930  0.01052  0.30049  1.0000
  C   C1611     1.0  0.71425  0.49618  0.33137  1.0000
  C   C1612     1.0  0.72909  0.33987  0.01082  1.0000
  C   C1613     1.0  0.74219  0.20489  0.27576  1.0000
  C   C1614     1.0  0.62142  0.23194  0.01087  1.0000
  H   H1285     1.0  0.50890  0.26619  0.15516  1.0000
  H   H1286     1.0  0.71609  0.01323  0.18440  1.0000
  H   H1287     1.0  0.73802  0.18060  0.07757  1.0000
  H   H1288     1.0  0.71902  0.22195  0.01609  1.0000
  H   H1289     1.0  0.72760  0.39116  0.12848  1.0000
  H   H1290     1.0  0.72189  0.34038  0.04673  1.0000
  C   C1615     1.0  0.73527  0.00049  0.25886  1.0000
  C   C1616     1.0  0.72854  0.34919  0.03045  1.0000
  H   H1291     1.0  0.68547  0.99962  0.21211  1.0000
  C   C1617     1.0  0.74512  0.38094  0.00796  1.0000
  C   C1618     1.0  0.74623  0.34250  0.14181  1.0000
  H   H1292     1.0  0.74262  0.37094  0.41000  1.0000
  Fe  Fe112     1.0  0.65661  0.26782  0.90912  1.0000
  S   S225      1.0  0.67961  0.28390  0.88029  1.0000
  S   S226      1.0  0.62009  0.26706  0.90793  1.0000
  Fe  Fe113     1.0  0.69264  0.25235  0.93951  1.0000
  S   S227      1.0  0.71888  0.26626  0.91252  1.0000
  S   S228      1.0  0.70161  0.23403  0.97363  1.0000
  Fe  Fe114     1.0  0.69299  0.29670  0.90704  1.0000
  C   C1619     1.0  0.58456  0.13885  0.69764  1.0000
  Fe  Fe115     1.0  0.70381  0.25243  0.88771  1.0000
  C   C1620     1.0  0.69824  0.03519  0.80258  1.0000
  S   S229      1.0  0.66752  0.28378  0.93561  1.0000
  S   S230      1.0  0.67990  0.23520  0.91507  1.0000
  Fe  Fe116     1.0  0.62496  0.27031  0.74118  1.0000
  S   S231      1.0  0.60936  0.30602  0.73033  1.0000
  S   S232      1.0  0.65262  0.24783  0.72280  1.0000
  Fe  Fe117     1.0  0.59741  0.26709  0.78802  1.0000
  S   S233      1.0  0.57921  0.30219  0.78106  1.0000
  S   S234      1.0  0.58858  0.24468  0.82098  1.0000
  Fe  Fe118     1.0  0.57674  0.29364  0.74721  1.0000
  Fe  Fe119     1.0  0.61320  0.31130  0.76519  1.0000
  S   S235      1.0  0.62357  0.34011  0.77787  1.0000
  S   S236      1.0  0.59230  0.25760  0.75540  1.0000
  S   S237      1.0  0.63143  0.27669  0.77471  1.0000
  Fe  Fe120     1.0  0.70236  0.42199  0.80418  1.0000
  H   H1293     1.0  0.72094  0.28089  0.51890  1.0000
  S   S238      1.0  0.67603  0.41403  0.83428  1.0000
  Fe  Fe121     1.0  0.71895  0.45891  0.76705  1.0000
  Fe  Fe122     1.0  0.73450  0.13548  0.75135  1.0000
  Fe  Fe123     1.0  0.71357  0.41286  0.75576  1.0000
  S   S239      1.0  0.70450  0.39294  0.73136  1.0000
  H   H1294     1.0  0.61460  0.20581  0.67807  1.0000
  S   S240      1.0  0.68965  0.43957  0.77215  1.0000
  C   C1621     1.0  0.61089  0.33671  0.52266  1.0000
  C   C1622     1.0  0.65302  0.49297  0.84680  1.0000
  C   C1623     1.0  0.50618  0.28902  0.72578  1.0000
  H   H1295     1.0  0.68511  0.39210  0.92356  1.0000
  C   C1624     1.0  0.72544  0.17328  0.55411  1.0000
  H   H1296     1.0  0.72773  0.13914  0.65203  1.0000
  H   H1297     1.0  0.67216  0.34567  0.81288  1.0000
  H   H1298     1.0  0.62028  0.33681  0.57636  1.0000
  Fe  Fe124     1.0  0.71650  0.25188  0.60649  1.0000
  S   S241      1.0  0.67975  0.26439  0.61655  1.0000
  C   C1625     1.0  0.63548  0.19423  0.72379  1.0000
  S   S242      1.0  0.72888  0.22153  0.58872  1.0000
  P   P55       1.0  0.67459  0.30156  0.51794  1.0000
  S   S243      1.0  0.74183  0.43367  0.74737  1.0000
  H   H1299     1.0  0.65488  0.36801  0.93462  1.0000
  H   H1300     1.0  0.50726  0.30015  0.70974  1.0000
  C   C1626     1.0  0.56963  0.16614  0.82822  1.0000
  C   C1627     1.0  0.72402  0.22793  0.52133  1.0000
  C   C1628     1.0  0.59776  0.18458  0.83848  1.0000
  H   H1301     1.0  0.68196  0.22169  0.75476  1.0000
  C   C1629     1.0  0.61662  0.16688  0.75123  1.0000
  H   H1302     1.0  0.72003  0.22498  0.53957  1.0000
  H   H1303     1.0  0.72171  0.06787  0.70338  1.0000
  C   C1630     1.0  0.64407  0.32194  0.55056  1.0000
  C   C1631     1.0  0.71892  0.17726  0.68232  1.0000
  C   C1632     1.0  0.73105  0.18362  0.66091  1.0000
  C   C1633     1.0  0.71267  0.34758  0.95549  1.0000
  H   H1304     1.0  0.70210  0.18571  0.68682  1.0000
  H   H1305     1.0  0.72344  0.19665  0.64884  1.0000
  C   C1634     1.0  0.67153  0.25963  0.64603  1.0000
  C   C1635     1.0  0.68439  0.24334  0.65958  1.0000
  C   C1636     1.0  0.67810  0.23969  0.68306  1.0000
  C   C1637     1.0  0.65901  0.25246  0.69322  1.0000
  C   C1638     1.0  0.64568  0.26839  0.67973  1.0000
  C   C1639     1.0  0.65190  0.27189  0.65607  1.0000
  H   H1306     1.0  0.69898  0.23317  0.65196  1.0000
  H   H1307     1.0  0.68819  0.22700  0.69335  1.0000
  H   H1308     1.0  0.63079  0.27814  0.68755  1.0000
  H   H1309     1.0  0.64177  0.28439  0.64561  1.0000
  C   C1640     1.0  0.64584  0.35457  0.76388  1.0000
  C   C1641     1.0  0.65231  0.37029  0.77492  1.0000
  C   C1642     1.0  0.67009  0.38221  0.76484  1.0000
  C   C1643     1.0  0.68168  0.37842  0.74358  1.0000
  C   C1644     1.0  0.67525  0.36266  0.73237  1.0000
  C   C1645     1.0  0.65729  0.35072  0.74253  1.0000
  H   H1310     1.0  0.64371  0.37299  0.79156  1.0000
  H   H1311     1.0  0.67503  0.39409  0.77376  1.0000
  H   H1312     1.0  0.68424  0.35959  0.71593  1.0000
  H   H1313     1.0  0.65240  0.33853  0.73394  1.0000
  H   H1314     1.0  0.70415  0.24397  0.72014  1.0000
  C   C1646     1.0  0.68672  0.02236  0.79253  1.0000
  C   C1647     1.0  0.70951  0.00205  0.82904  1.0000
  C   C1648     1.0  0.53649  0.21119  0.78492  1.0000
  H   H1315     1.0  0.59251  0.20809  0.76711  1.0000
  C   C1649     1.0  0.71381  0.36699  0.87326  1.0000
  C   C1650     1.0  0.71586  0.32027  0.84060  1.0000
  C   C1651     1.0  0.63088  0.06489  0.76853  1.0000
  S   S244      1.0  0.71310  0.15232  0.72464  1.0000
  C   C1652     1.0  0.58032  0.34183  0.87063  1.0000
  C   C1653     1.0  0.70864  0.36883  0.94215  1.0000
  C   C1654     1.0  0.61272  0.26033  0.88326  1.0000
  C   C1655     1.0  0.62568  0.26458  0.86190  1.0000
  C   C1656     1.0  0.61848  0.25990  0.84252  1.0000
  C   C1657     1.0  0.59852  0.25068  0.84459  1.0000
  C   C1658     1.0  0.58595  0.24604  0.86599  1.0000
  C   C1659     1.0  0.59283  0.25117  0.88515  1.0000
  H   H1316     1.0  0.64101  0.27177  0.86025  1.0000
  H   H1317     1.0  0.62842  0.26333  0.82606  1.0000
  H   H1318     1.0  0.57059  0.23886  0.86773  1.0000
  H   H1319     1.0  0.58273  0.24789  0.90157  1.0000
  C   C1660     1.0  0.69865  0.35223  0.88427  1.0000
  C   C1661     1.0  0.67636  0.35673  0.88023  1.0000
  C   C1662     1.0  0.66939  0.37584  0.86494  1.0000
  C   C1663     1.0  0.68481  0.39014  0.85334  1.0000
  C   C1664     1.0  0.58819  0.31943  0.84013  1.0000
  C   C1665     1.0  0.61582  0.18482  0.73311  1.0000
  H   H1320     1.0  0.66453  0.34553  0.88890  1.0000
  H   H1321     1.0  0.65216  0.37932  0.86180  1.0000
  H   H1322     1.0  0.69547  0.21411  0.51583  1.0000
  C   C1666     1.0  0.65930  0.25997  0.52309  1.0000
  H   H1323     1.0  0.53056  0.35181  0.74384  1.0000
  C   C1667     1.0  0.60059  0.06690  0.80003  1.0000
  S   S245      1.0  0.54507  0.30359  0.73082  1.0000
  C   C1668     1.0  0.72099  0.23681  0.72337  1.0000
  H   H1324     1.0  0.74437  0.39532  0.69930  1.0000
  C   C1669     1.0  0.73933  0.29369  0.95767  1.0000
  P   P56       1.0  0.72442  0.27928  0.73261  1.0000
  C   C1670     1.0  0.70874  0.28048  0.76073  1.0000
  C   C1671     1.0  0.68648  0.99931  0.80120  1.0000
  C   C1672     1.0  0.71011  0.22185  0.50787  1.0000
  C   C1673     1.0  0.73191  0.20883  0.82863  1.0000
  C   C1674     1.0  0.64215  0.20217  0.79665  1.0000
  C   C1675     1.0  0.65569  0.18533  0.73194  1.0000
  C   C1676     1.0  0.52228  0.43937  0.83425  1.0000
  C   C1677     1.0  0.71153  0.26203  0.77813  1.0000
  C   C1678     1.0  0.69899  0.26279  0.79969  1.0000
  C   C1679     1.0  0.68345  0.28179  0.80399  1.0000
  C   C1680     1.0  0.68062  0.30018  0.78683  1.0000
  C   C1681     1.0  0.69351  0.29975  0.76545  1.0000
  C   C1682     1.0  0.70760  0.29014  0.71017  1.0000
  C   C1683     1.0  0.71808  0.29274  0.68749  1.0000
  C   C1684     1.0  0.70545  0.30090  0.66989  1.0000
  C   C1685     1.0  0.68224  0.30671  0.67473  1.0000
  C   C1686     1.0  0.67161  0.30384  0.69714  1.0000
  C   C1687     1.0  0.68410  0.29508  0.71477  1.0000
  H   H1325     1.0  0.71365  0.30245  0.65244  1.0000
  H   H1326     1.0  0.63740  0.07052  0.75103  1.0000
  C   C1688     1.0  0.55912  0.21213  0.78512  1.0000
  C   C1689     1.0  0.70177  0.24986  0.99554  1.0000
  H   H1327     1.0  0.67993  0.32582  0.85037  1.0000
  H   H1328     1.0  0.64570  0.48481  0.86310  1.0000
  S   S246      1.0  0.74127  0.24291  0.63107  1.0000
  C   C1690     1.0  0.65639  0.16727  0.74970  1.0000
  Fe  Fe125     1.0  0.73912  0.13509  0.80073  1.0000
  H   H1329     1.0  0.72325  0.24699  0.77520  1.0000
  H   H1330     1.0  0.70117  0.24859  0.81309  1.0000
  H   H1331     1.0  0.67360  0.28227  0.82064  1.0000
  H   H1332     1.0  0.66832  0.31478  0.79007  1.0000
  H   H1333     1.0  0.69131  0.31434  0.75251  1.0000
  H   H1334     1.0  0.70569  0.20261  0.88314  1.0000
  H   H1335     1.0  0.64648  0.22829  0.52742  1.0000
  H   H1336     1.0  0.67242  0.31279  0.66106  1.0000
  H   H1337     1.0  0.65353  0.30762  0.70080  1.0000
  H   H1338     1.0  0.67519  0.29171  0.73173  1.0000
  H   H1339     1.0  0.50076  0.33703  0.81253  1.0000
  H   H1340     1.0  0.54519  0.17521  0.67097  1.0000
  C   C1691     1.0  0.69644  0.33284  0.53158  1.0000
  H   H1341     1.0  0.58389  0.07404  0.80703  1.0000
  H   H1342     1.0  0.66131  0.33110  0.95941  1.0000
  C   C1692     1.0  0.72097  0.09391  0.62882  1.0000
  C   C1693     1.0  0.66824  0.01419  0.75337  1.0000
  H   H1343     1.0  0.65272  0.26615  0.50732  1.0000
  S   S247      1.0  0.73753  0.27472  0.58179  1.0000
  C   C1694     1.0  0.68548  0.05774  0.75229  1.0000
  C   C1695     1.0  0.68208  0.07943  0.75861  1.0000
  C   C1696     1.0  0.69258  0.09686  0.74491  1.0000
  C   C1697     1.0  0.70683  0.09274  0.72498  1.0000
  C   C1698     1.0  0.71044  0.07122  0.71865  1.0000
  C   C1699     1.0  0.69981  0.05380  0.73217  1.0000
  C   C1700     1.0  0.58805  0.32114  0.86282  1.0000
  H   H1344     1.0  0.63535  0.20879  0.71067  1.0000
  H   H1345     1.0  0.56271  0.19798  0.84114  1.0000
  H   H1346     1.0  0.58173  0.13466  0.81546  1.0000
  C   C1701     1.0  0.64712  0.01146  0.74885  1.0000
  C   C1702     1.0  0.72906  0.33485  0.80164  1.0000
  C   C1703     1.0  0.53561  0.28816  0.82450  1.0000
  H   H1347     1.0  0.67079  0.19282  0.72483  1.0000
  C   C1704     1.0  0.52811  0.31134  0.82032  1.0000
  H   H1348     1.0  0.55231  0.16597  0.82646  1.0000
  H   H1349     1.0  0.71908  0.18063  0.53845  1.0000
  C   C1705     1.0  0.73368  0.32381  0.82304  1.0000
  H   H1350     1.0  0.58063  0.34315  0.88816  1.0000
  H   H1351     1.0  0.61573  0.23500  0.99448  1.0000
  H   H1352     1.0  0.52119  0.45759  0.83004  1.0000
  H   H1353     1.0  0.53944  0.32330  0.82024  1.0000
  H   H1354     1.0  0.67139  0.08288  0.77417  1.0000
  H   H1355     1.0  0.68992  0.11358  0.74978  1.0000
  H   H1356     1.0  0.71521  0.10619  0.71456  1.0000
  H   H1357     1.0  0.72990  0.30104  0.94393  1.0000
  H   H1358     1.0  0.70315  0.03731  0.72687  1.0000
  C   C1706     1.0  0.52147  0.27252  0.76013  1.0000
  H   H1359     1.0  0.50367  0.36655  0.77538  1.0000
  C   C1707     1.0  0.55803  0.16917  0.68178  1.0000
  H   H1360     1.0  0.66711  0.46149  0.83464  1.0000
  H   H1361     1.0  0.56428  0.21753  0.79931  1.0000
  H   H1362     1.0  0.60418  0.14732  0.72006  1.0000
  C   C1708     1.0  0.52502  0.39233  0.84498  1.0000
  C   C1709     1.0  0.52127  0.27265  0.82402  1.0000
  H   H1363     1.0  0.62444  0.20629  0.80261  1.0000
  C   C1710     1.0  0.60862  0.14891  0.82407  1.0000
  C   C1711     1.0  0.57265  0.36080  0.85575  1.0000
  C   C1712     1.0  0.72865  0.21412  0.72130  1.0000
  P   P57       1.0  0.58930  0.19615  0.72313  1.0000
  C   C1713     1.0  0.70695  0.34237  0.79789  1.0000
  C   C1714     1.0  0.50769  0.40629  0.85626  1.0000
  C   C1715     1.0  0.67533  0.24359  0.56419  1.0000
  C   C1716     1.0  0.73492  0.25012  0.72960  1.0000
  C   C1717     1.0  0.67933  0.26494  0.55265  1.0000
  S   S248      1.0  0.70801  0.32876  0.90347  1.0000
  P   P58       1.0  0.67112  0.03552  0.76974  1.0000
  C   C1718     1.0  0.67074  0.36263  0.94099  1.0000
  H   H1364     1.0  0.66066  0.21377  0.56401  1.0000
  H   H1365     1.0  0.68125  0.23744  0.58029  1.0000
  S   S249      1.0  0.72255  0.14339  0.83506  1.0000
  H   H1366     1.0  0.63207  0.02225  0.75475  1.0000
  H   H1367     1.0  0.56662  0.24335  0.72398  1.0000
  H   H1368     1.0  0.68817  0.27503  0.56025  1.0000
  C   C1719     1.0  0.66514  0.47979  0.83080  1.0000
  C   C1720     1.0  0.71265  0.19848  0.86647  1.0000
  H   H1369     1.0  0.71889  0.31169  0.85722  1.0000
  H   H1370     1.0  0.65653  0.31573  0.56178  1.0000
  C   C1721     1.0  0.53965  0.42545  0.82294  1.0000
  C   C1722     1.0  0.54131  0.40183  0.82843  1.0000
  P   P59       1.0  0.56325  0.38375  0.81340  1.0000
  C   C1723     1.0  0.55253  0.37497  0.79070  1.0000
  C   C1724     1.0  0.58693  0.39897  0.80273  1.0000
  C   C1725     1.0  0.58907  0.41128  0.78075  1.0000
  C   C1726     1.0  0.60740  0.42302  0.77260  1.0000
  C   C1727     1.0  0.62343  0.42300  0.78648  1.0000
  C   C1728     1.0  0.62113  0.41131  0.80853  1.0000
  C   C1729     1.0  0.60305  0.39925  0.81661  1.0000
  C   C1730     1.0  0.52942  0.37466  0.79167  1.0000
  C   C1731     1.0  0.52148  0.36670  0.77463  1.0000
  C   C1732     1.0  0.53655  0.35862  0.75673  1.0000
  C   C1733     1.0  0.55947  0.35917  0.75548  1.0000
  C   C1734     1.0  0.56738  0.36752  0.77223  1.0000
  C   C1735     1.0  0.57258  0.35916  0.83291  1.0000
  C   C1736     1.0  0.71214  0.17686  0.86145  1.0000
  H   H1371     1.0  0.69913  0.05284  0.79610  1.0000
  C   C1737     1.0  0.58059  0.33836  0.82524  1.0000
  C   C1738     1.0  0.69219  0.27257  0.99407  1.0000
  H   H1372     1.0  0.55175  0.43320  0.80997  1.0000
  H   H1373     1.0  0.57676  0.41167  0.76977  1.0000
  H   H1374     1.0  0.60940  0.43185  0.75540  1.0000
  H   H1375     1.0  0.63789  0.43168  0.78005  1.0000
  H   H1376     1.0  0.63381  0.41102  0.81914  1.0000
  H   H1377     1.0  0.60199  0.38997  0.83359  1.0000
  H   H1378     1.0  0.51746  0.38038  0.80554  1.0000
  S   S250      1.0  0.72451  0.39406  0.78806  1.0000
  H   H1379     1.0  0.68425  0.28057  0.97954  1.0000
  H   H1380     1.0  0.57120  0.35281  0.74165  1.0000
  H   H1381     1.0  0.58516  0.36787  0.77089  1.0000
  H   H1382     1.0  0.73597  0.28813  0.68316  1.0000
  C   C1739     1.0  0.64375  0.04812  0.78189  1.0000
  H   H1383     1.0  0.58143  0.33677  0.80767  1.0000
  C   C1740     1.0  0.69817  0.31113  0.52571  1.0000
  H   H1384     1.0  0.71780  0.20394  0.71651  1.0000
  C   C1741     1.0  0.60475  0.22149  0.68230  1.0000
  C   C1742     1.0  0.59326  0.26160  0.67173  1.0000
  C   C1743     1.0  0.57913  0.26215  0.69242  1.0000
  C   C1744     1.0  0.57541  0.18409  0.83655  1.0000
  C   C1745     1.0  0.65169  0.21537  0.77735  1.0000
  C   C1746     1.0  0.64841  0.31790  0.52799  1.0000
  C   C1747     1.0  0.50634  0.42980  0.85094  1.0000
  H   H1385     1.0  0.53424  0.27089  0.77087  1.0000
  H   H1386     1.0  0.51202  0.20592  0.76542  1.0000
  H   H1387     1.0  0.59426  0.30651  0.87429  1.0000
  H   H1388     1.0  0.70358  0.35089  0.78134  1.0000
  H   H1389     1.0  0.59445  0.27700  0.65973  1.0000
  H   H1390     1.0  0.56916  0.27792  0.69632  1.0000
  H   H1391     1.0  0.73095  0.31988  0.75039  1.0000
  C   C1748     1.0  0.72865  0.16035  0.69803  1.0000
  C   C1749     1.0  0.71911  0.29743  0.52400  1.0000
  H   H1392     1.0  0.56720  0.37679  0.86200  1.0000
  S   S251      1.0  0.71407  0.49650  0.75311  1.0000
  C   C1750     1.0  0.64349  0.11854  0.60720  1.0000
  C   C1751     1.0  0.65007  0.10775  0.58805  1.0000
  C   C1752     1.0  0.67232  0.10634  0.57733  1.0000
  C   C1753     1.0  0.68798  0.11578  0.58570  1.0000
  C   C1754     1.0  0.68146  0.12689  0.60479  1.0000
  C   C1755     1.0  0.65912  0.12801  0.61562  1.0000
  P   P60       1.0  0.70193  0.13872  0.61568  1.0000
  C   C1756     1.0  0.68763  0.15989  0.63288  1.0000
  C   C1757     1.0  0.71848  0.11654  0.63242  1.0000
  C   C1758     1.0  0.66355  0.23036  0.55512  1.0000
  C   C1759     1.0  0.57788  0.24244  0.70817  1.0000
  C   C1760     1.0  0.52974  0.20563  0.76596  1.0000
  H   H1393     1.0  0.69791  0.31810  0.97255  1.0000
  C   C1761     1.0  0.73788  0.30492  0.52894  1.0000
  C   C1762     1.0  0.68404  0.18280  0.62333  1.0000
  C   C1763     1.0  0.67276  0.19906  0.63662  1.0000
  C   C1764     1.0  0.66504  0.19265  0.65953  1.0000
  C   C1765     1.0  0.66836  0.16989  0.66916  1.0000
  C   C1766     1.0  0.67956  0.15354  0.65590  1.0000
  C   C1767     1.0  0.71994  0.15239  0.59226  1.0000
  C   C1768     1.0  0.71171  0.16211  0.57195  1.0000
  C   C1769     1.0  0.57511  0.20688  0.76667  1.0000
  C   C1770     1.0  0.74233  0.10486  0.66185  1.0000
  H   H1394     1.0  0.68072  0.34414  0.53211  1.0000
  C   C1771     1.0  0.62348  0.33375  0.55893  1.0000
  H   H1395     1.0  0.62625  0.11957  0.61553  1.0000
  H   H1396     1.0  0.63794  0.10045  0.58153  1.0000
  H   H1397     1.0  0.67744  0.09793  0.56251  1.0000
  H   H1398     1.0  0.70521  0.11442  0.57727  1.0000
  H   H1399     1.0  0.65365  0.13623  0.63049  1.0000
  C   C1772     1.0  0.68781  0.37620  0.93474  1.0000
  C   C1773     1.0  0.59101  0.22202  0.70337  1.0000
  C   C1774     1.0  0.56857  0.20097  0.74762  1.0000
  H   H1400     1.0  0.67206  0.16073  0.75617  1.0000
  C   C1775     1.0  0.72172  0.17114  0.84012  1.0000
  H   H1401     1.0  0.69010  0.18830  0.60572  1.0000
  H   H1402     1.0  0.67038  0.21675  0.62921  1.0000
  H   H1403     1.0  0.65693  0.20543  0.66989  1.0000
  H   H1404     1.0  0.66285  0.16501  0.68707  1.0000
  H   H1405     1.0  0.68213  0.13601  0.66368  1.0000
  H   H1406     1.0  0.69461  0.16138  0.56991  1.0000
  H   H1407     1.0  0.60152  0.15981  0.75913  1.0000
  H   H1408     1.0  0.55267  0.28220  0.82782  1.0000
  C   C1776     1.0  0.70701  0.38568  0.85754  1.0000
  C   C1777     1.0  0.56796  0.14656  0.68377  1.0000
  C   C1778     1.0  0.61457  0.16688  0.83250  1.0000
  P   P61       1.0  0.64356  0.16844  0.83418  1.0000
  C   C1779     1.0  0.65555  0.18435  0.80825  1.0000
  C   C1780     1.0  0.64376  0.18338  0.85742  1.0000
  C   C1781     1.0  0.62972  0.17838  0.87802  1.0000
  C   C1782     1.0  0.62862  0.19083  0.89561  1.0000
  C   C1783     1.0  0.64161  0.20824  0.89281  1.0000
  C   C1784     1.0  0.65588  0.21310  0.87250  1.0000
  C   C1785     1.0  0.65703  0.20071  0.85485  1.0000
  C   C1786     1.0  0.67864  0.18016  0.80037  1.0000
  C   C1787     1.0  0.68816  0.19359  0.78113  1.0000
  C   C1788     1.0  0.67468  0.21122  0.76965  1.0000
  C   C1789     1.0  0.65931  0.14038  0.83882  1.0000
  C   C1790     1.0  0.66524  0.12742  0.82106  1.0000
  C   C1791     1.0  0.67692  0.10550  0.82464  1.0000
  C   C1792     1.0  0.68352  0.09666  0.84571  1.0000
  C   C1793     1.0  0.67812  0.10959  0.86334  1.0000
  C   C1794     1.0  0.66602  0.13134  0.85997  1.0000
  H   H1409     1.0  0.62111  0.13514  0.81912  1.0000
  H   H1410     1.0  0.60193  0.19902  0.84437  1.0000
  H   H1411     1.0  0.61934  0.16510  0.88032  1.0000
  H   H1412     1.0  0.61744  0.18730  0.91131  1.0000
  H   H1413     1.0  0.64032  0.21824  0.90626  1.0000
  H   H1414     1.0  0.66583  0.22674  0.87028  1.0000
  H   H1415     1.0  0.66813  0.20491  0.83926  1.0000
  H   H1416     1.0  0.68939  0.16685  0.80929  1.0000
  H   H1417     1.0  0.70600  0.19045  0.77520  1.0000
  H   H1418     1.0  0.66110  0.13438  0.80437  1.0000
  H   H1419     1.0  0.68154  0.09558  0.81091  1.0000
  H   H1420     1.0  0.69331  0.08001  0.84820  1.0000
  H   H1421     1.0  0.68382  0.10301  0.87948  1.0000
  H   H1422     1.0  0.66254  0.14115  0.87376  1.0000
  P   P62       1.0  0.73975  0.33791  0.96460  1.0000
  C   C1795     1.0  0.61319  0.04999  0.81333  1.0000
  H   H1423     1.0  0.56280  0.13504  0.67451  1.0000
  C   C1796     1.0  0.67439  0.34181  0.95488  1.0000
  C   C1797     1.0  0.69525  0.33437  0.96218  1.0000
  C   C1798     1.0  0.63685  0.15809  0.75941  1.0000
  H   H1424     1.0  0.63736  0.14432  0.77337  1.0000
  H   H1425     1.0  0.71882  0.39690  0.84888  1.0000
  C   C1799     1.0  0.60604  0.24126  0.66664  1.0000
  C   C1800     1.0  0.54568  0.20066  0.74730  1.0000
  H   H1426     1.0  0.53993  0.19702  0.73263  1.0000
  H   H1427     1.0  0.59954  0.08719  0.76722  1.0000
  S   S252      1.0  0.72978  0.44347  0.80067  1.0000
  H   H1428     1.0  0.64120  0.22894  0.76842  1.0000
  H   H1429     1.0  0.52409  0.21545  0.79917  1.0000
  H   H1430     1.0  0.60627  0.04401  0.83062  1.0000
  H   H1431     1.0  0.71369  0.35667  0.54191  1.0000
  H   H1432     1.0  0.64398  0.02722  0.81478  1.0000
  H   H1433     1.0  0.52573  0.37413  0.84913  1.0000
  C   C1801     1.0  0.58623  0.14856  0.82196  1.0000
  S   S253      1.0  0.72126  0.11489  0.78386  1.0000
  C   C1802     1.0  0.60942  0.07432  0.77762  1.0000
  C   C1803     1.0  0.59114  0.15370  0.70969  1.0000
  C   C1804     1.0  0.67155  0.27317  0.53185  1.0000
  C   C1805     1.0  0.50317  0.26034  0.76705  1.0000
  C   C1806     1.0  0.65548  0.23857  0.53460  1.0000
  H   H1434     1.0  0.61718  0.24094  0.65067  1.0000
  C   C1807     1.0  0.71519  0.34016  0.53686  1.0000
  C   C1808     1.0  0.58104  0.17642  0.70801  1.0000
  C   C1809     1.0  0.74487  0.27018  0.96214  1.0000
  H   H1435     1.0  0.70461  0.16443  0.87425  1.0000
  C   C1810     1.0  0.67517  0.49019  0.81001  1.0000
  H   H1436     1.0  0.55678  0.20159  0.69188  1.0000
  C   C1811     1.0  0.52300  0.28700  0.73946  1.0000
  H   H1437     1.0  0.65279  0.24455  0.99775  1.0000
  H   H1438     1.0  0.52737  0.25470  0.82681  1.0000
  C   C1812     1.0  0.73404  0.07696  0.64166  1.0000
  H   H1439     1.0  0.59236  0.12134  0.69903  1.0000
  C   C1813     1.0  0.72267  0.21444  0.85011  1.0000
  C   C1814     1.0  0.56460  0.18406  0.69374  1.0000
  C   C1815     1.0  0.73143  0.18722  0.82363  1.0000
  C   C1816     1.0  0.70940  0.02509  0.82090  1.0000
  H   H1440     1.0  0.72174  0.37946  0.93697  1.0000
  H   H1441     1.0  0.59460  0.30353  0.83391  1.0000
  C   C1817     1.0  0.68930  0.33936  0.81558  1.0000
  C   C1818     1.0  0.68721  0.99936  0.74590  1.0000
  C   C1819     1.0  0.69373  0.32812  0.83679  1.0000
  H   H1442     1.0  0.71889  0.03493  0.82806  1.0000
  H   H1443     1.0  0.68504  0.47999  0.79780  1.0000
  H   H1444     1.0  0.73095  0.36378  0.87661  1.0000
  S   S254      1.0  0.72552  0.24082  0.85656  1.0000
  C   C1820     1.0  0.74195  0.15443  0.59452  1.0000
  C   C1821     1.0  0.74314  0.23766  0.51116  1.0000
  H   H1445     1.0  0.73962  0.22116  0.81588  1.0000
  H   H1446     1.0  0.71299  0.08921  0.61612  1.0000
  C   C1822     1.0  0.63465  0.04052  0.80428  1.0000
  C   C1823     1.0  0.72927  0.12183  0.64905  1.0000
  C   C1824     1.0  0.73849  0.35056  0.98969  1.0000
  C   C1825     1.0  0.73588  0.32614  0.53566  1.0000
  C   C1826     1.0  0.74478  0.08245  0.65811  1.0000
  H   H1447     1.0  0.73596  0.05955  0.63878  1.0000
  H   H1448     1.0  0.74465  0.48993  0.78636  1.0000
  H   H1449     1.0  0.70353  0.00065  0.74982  1.0000
  C   C1827     1.0  0.50620  0.31902  0.81589  1.0000
  C   C1828     1.0  0.60694  0.34124  0.54495  1.0000
  H   H1450     1.0  0.73896  0.18290  0.80720  1.0000
  H   H1451     1.0  0.74393  0.34497  0.91510  1.0000
  H   H1452     1.0  0.50196  0.24933  0.78310  1.0000
  H   H1453     1.0  0.73936  0.25945  0.95232  1.0000
  C   C1829     1.0  0.49927  0.28029  0.81969  1.0000
  C   C1830     1.0  0.63148  0.32489  0.51424  1.0000
  H   H1454     1.0  0.59092  0.35024  0.55151  1.0000
  H   H1455     1.0  0.74256  0.33796  0.78786  1.0000
  C   C1831     1.0  0.74530  0.31540  0.73803  1.0000
  H   H1456     1.0  0.74403  0.36301  0.83032  1.0000
  C   C1832     1.0  0.74600  0.37146  0.98830  1.0000
  C   C1833     1.0  0.74564  0.30748  0.97112  1.0000
  H   H1457     1.0  0.59788  0.34209  0.51199  1.0000
  C   C1834     1.0  0.74699  0.29627  0.72732  1.0000
  C   C1835     1.0  0.61445  0.86299  0.16875  1.0000
  S   S255      1.0  0.69808  0.61265  0.27420  1.0000
  C   C1836     1.0  0.50747  0.72914  0.08753  1.0000
  S   S256      1.0  0.67967  0.90075  0.26404  1.0000
  C   C1837     1.0  0.50426  0.74603  0.10142  1.0000
  S   S257      1.0  0.69683  0.85197  0.31387  1.0000
  S   S258      1.0  0.71045  0.89540  0.21441  1.0000
  Fe  Fe126     1.0  0.71158  0.91214  0.24440  1.0000
  H   H1458     1.0  0.74258  0.87094  0.17983  1.0000
  Fe  Fe127     1.0  0.68022  0.88179  0.23516  1.0000
  S   S259      1.0  0.64851  0.88370  0.22035  1.0000
  S   S260      1.0  0.69970  0.84988  0.25038  1.0000
  Fe  Fe128     1.0  0.59610  0.72872  0.20433  1.0000
  S   S261      1.0  0.61077  0.73206  0.23519  1.0000
  S   S262      1.0  0.57079  0.70613  0.20136  1.0000
  Fe  Fe129     1.0  0.62723  0.75845  0.17248  1.0000
  S   S263      1.0  0.64405  0.76458  0.20018  1.0000
  S   S264      1.0  0.63891  0.77306  0.13653  1.0000
  Fe  Fe130     1.0  0.64434  0.72761  0.21306  1.0000
  S   S265      1.0  0.67865  0.71176  0.22155  1.0000
  Fe  Fe131     1.0  0.60968  0.76883  0.21990  1.0000
  S   S266      1.0  0.59767  0.79765  0.24000  1.0000
  S   S267      1.0  0.63007  0.72113  0.18355  1.0000
  S   S268      1.0  0.59232  0.76586  0.19093  1.0000
  C   C1838     1.0  0.71090  0.74056  0.11591  1.0000
  C   C1839     1.0  0.69980  0.73501  0.13786  1.0000
  C   C1840     1.0  0.67790  0.74533  0.14432  1.0000
  C   C1841     1.0  0.66683  0.76114  0.12875  1.0000
  C   C1842     1.0  0.67803  0.76707  0.10687  1.0000
  C   C1843     1.0  0.70013  0.75690  0.10048  1.0000
  H   H1459     1.0  0.66963  0.74090  0.16136  1.0000
  H   H1460     1.0  0.66951  0.77928  0.09480  1.0000
  H   H1461     1.0  0.70864  0.76123  0.08346  1.0000
  C   C1844     1.0  0.72534  0.96470  0.25334  1.0000
  C   C1845     1.0  0.68271  0.70659  0.29288  1.0000
  C   C1846     1.0  0.74011  0.75109  0.27169  1.0000
  H   H1462     1.0  0.58431  0.75816  0.35973  1.0000
  C   C1847     1.0  0.69924  0.79503  0.15716  1.0000
  H   H1463     1.0  0.72694  0.64590  0.25302  1.0000
  C   C1848     1.0  0.63543  0.85909  0.22620  1.0000
  C   C1849     1.0  0.61227  0.86122  0.23348  1.0000
  C   C1850     1.0  0.60113  0.84217  0.23803  1.0000
  C   C1851     1.0  0.61282  0.82088  0.23450  1.0000
  C   C1852     1.0  0.63604  0.81865  0.22708  1.0000
  C   C1853     1.0  0.64741  0.83770  0.22317  1.0000
  H   H1464     1.0  0.60292  0.87766  0.23581  1.0000
  H   H1465     1.0  0.58325  0.84403  0.24385  1.0000
  H   H1466     1.0  0.64522  0.80230  0.22441  1.0000
  H   H1467     1.0  0.66529  0.83591  0.21739  1.0000
  C   C1854     1.0  0.70563  0.81828  0.08355  1.0000
  H   H1468     1.0  0.70400  0.82268  0.35546  1.0000
  C   C1855     1.0  0.69228  0.64090  0.26134  1.0000
  C   C1856     1.0  0.67006  0.65080  0.25960  1.0000
  C   C1857     1.0  0.66544  0.67274  0.24766  1.0000
  C   C1858     1.0  0.68308  0.68495  0.23797  1.0000
  C   C1859     1.0  0.70514  0.67534  0.24060  1.0000
  C   C1860     1.0  0.70976  0.65337  0.25205  1.0000
  H   H1469     1.0  0.65648  0.64137  0.26727  1.0000
  H   H1470     1.0  0.64833  0.68009  0.24579  1.0000
  H   H1471     1.0  0.71883  0.68467  0.23333  1.0000
  C   C1861     1.0  0.73690  0.87852  0.35883  1.0000
  P   P63       1.0  0.74656  0.72105  0.27144  1.0000
  H   H1472     1.0  0.72671  0.96583  0.30904  1.0000
  C   C1862     1.0  0.53242  0.73313  0.21844  1.0000
  C   C1863     1.0  0.54138  0.71419  0.20786  1.0000
  C   C1864     1.0  0.52665  0.70110  0.20248  1.0000
  C   C1865     1.0  0.71855  0.80541  0.19188  1.0000
  H   H1473     1.0  0.73290  0.67235  0.12326  1.0000
  H   H1474     1.0  0.54356  0.74336  0.22265  1.0000
  H   H1475     1.0  0.53340  0.68643  0.19427  1.0000
  H   H1476     1.0  0.65161  0.80479  0.16571  1.0000
  Fe  Fe132     1.0  0.73462  0.60150  0.27805  1.0000
  C   C1866     1.0  0.68947  0.86634  0.14314  1.0000
  C   C1867     1.0  0.69589  0.81745  0.16155  1.0000
  C   C1868     1.0  0.64149  0.82115  0.16657  1.0000
  C   C1869     1.0  0.65887  0.78242  0.28128  1.0000
  C   C1870     1.0  0.74674  0.76642  0.25250  1.0000
  H   H1477     1.0  0.74318  0.67421  0.29206  1.0000
  H   H1478     1.0  0.70164  0.88042  0.35712  1.0000
  C   C1871     1.0  0.72638  0.68354  0.29275  1.0000
  H   H1479     1.0  0.74263  0.68572  0.15591  1.0000
  C   C1872     1.0  0.72011  0.82331  0.34485  1.0000
  C   C1873     1.0  0.73370  0.99320  0.28215  1.0000
  C   C1874     1.0  0.72142  0.83669  0.32346  1.0000
  C   C1875     1.0  0.73817  0.66499  0.34934  1.0000
  H   H1480     1.0  0.71540  0.76101  0.16580  1.0000
  H   H1481     1.0  0.68384  0.80506  0.27422  1.0000
  S   S269      1.0  0.73742  0.72568  0.10750  1.0000
  H   H1482     1.0  0.67202  0.67406  0.30579  1.0000
  C   C1876     1.0  0.55140  0.73931  0.14653  1.0000
  C   C1877     1.0  0.56495  0.77570  0.11501  1.0000
  C   C1878     1.0  0.54488  0.76787  0.11413  1.0000
  C   C1879     1.0  0.57148  0.74705  0.14722  1.0000
  C   C1880     1.0  0.73110  0.58449  0.20552  1.0000
  H   H1483     1.0  0.70095  0.79253  0.23775  1.0000
  H   H1484     1.0  0.52166  0.64471  0.16044  1.0000
  H   H1485     1.0  0.74363  0.84784  0.29358  1.0000
  C   C1881     1.0  0.73308  0.79765  0.27360  1.0000
  H   H1486     1.0  0.70225  0.60256  0.22398  1.0000
  H   H1487     1.0  0.70473  0.89915  0.31727  1.0000
  H   H1488     1.0  0.50225  0.75295  0.23273  1.0000
  P   P64       1.0  0.67966  0.83953  0.14447  1.0000
  H   H1489     1.0  0.54838  0.70284  0.12106  1.0000
  H   H1490     1.0  0.66582  0.71530  0.29210  1.0000
  H   H1491     1.0  0.73024  0.72778  0.19332  1.0000
  H   H1492     1.0  0.71808  0.82091  0.11384  1.0000
  H   H1493     1.0  0.57021  0.78992  0.10297  1.0000
  H   H1494     1.0  0.53483  0.77629  0.10128  1.0000
  H   H1495     1.0  0.59368  0.77145  0.13238  1.0000
  H   H1496     1.0  0.70809  0.86669  0.10925  1.0000
  C   C1882     1.0  0.58204  0.78462  0.30570  1.0000
  C   C1883     1.0  0.60376  0.79027  0.30033  1.0000
  C   C1884     1.0  0.61888  0.78376  0.31603  1.0000
  C   C1885     1.0  0.68196  0.73831  0.34539  1.0000
  P   P65       1.0  0.64689  0.79096  0.30830  1.0000
  C   C1886     1.0  0.64378  0.82119  0.30749  1.0000
  C   C1887     1.0  0.64267  0.83578  0.28689  1.0000
  C   C1888     1.0  0.63961  0.85921  0.28639  1.0000
  C   C1889     1.0  0.63730  0.86827  0.30645  1.0000
  C   C1890     1.0  0.63753  0.85388  0.32713  1.0000
  C   C1891     1.0  0.67956  0.78545  0.33690  1.0000
  H   H1497     1.0  0.62349  0.95039  0.21882  1.0000
  C   C1892     1.0  0.57506  0.77292  0.32706  1.0000
  H   H1498     1.0  0.57077  0.78922  0.29311  1.0000
  H   H1499     1.0  0.60891  0.79945  0.28374  1.0000
  H   H1500     1.0  0.64393  0.82917  0.27121  1.0000
  H   H1501     1.0  0.63910  0.87035  0.27038  1.0000
  H   H1502     1.0  0.63538  0.88641  0.30593  1.0000
  C   C1893     1.0  0.71778  0.88436  0.34814  1.0000
  H   H1503     1.0  0.70679  0.73907  0.36641  1.0000
  H   H1504     1.0  0.63716  0.75699  0.28346  1.0000
  H   H1505     1.0  0.54629  0.72547  0.15921  1.0000
  H   H1506     1.0  0.65487  0.74433  0.24762  1.0000
  C   C1894     1.0  0.67915  0.76752  0.24032  1.0000
  C   C1895     1.0  0.71254  0.77810  0.16971  1.0000
  C   C1896     1.0  0.72690  0.67925  0.15753  1.0000
  H   H1507     1.0  0.64292  0.87765  0.15027  1.0000
  H   H1508     1.0  0.68669  0.76190  0.22433  1.0000
  C   C1897     1.0  0.69059  0.89920  0.16065  1.0000
  C   C1898     1.0  0.61163  0.77258  0.33769  1.0000
  C   C1899     1.0  0.68689  0.82146  0.07245  1.0000
  H   H1509     1.0  0.73551  0.87037  0.37629  1.0000
  Fe  Fe133     1.0  0.73005  0.86519  0.23233  1.0000
  C   C1900     1.0  0.67726  0.79196  0.26840  1.0000
  C   C1901     1.0  0.70395  0.90830  0.14124  1.0000
  H   H1510     1.0  0.67981  0.80353  0.33295  1.0000
  H   H1511     1.0  0.70316  0.83939  0.18325  1.0000
  C   C1902     1.0  0.66544  0.77492  0.32737  1.0000
  S   S270      1.0  0.71993  0.94788  0.23444  1.0000
  C   C1903     1.0  0.61917  0.82220  0.17706  1.0000
  C   C1904     1.0  0.71007  0.89652  0.12273  1.0000
  C   C1905     1.0  0.66351  0.83538  0.10513  1.0000
  C   C1906     1.0  0.65101  0.76504  0.27371  1.0000
  C   C1907     1.0  0.72346  0.95746  0.27668  1.0000
  C   C1908     1.0  0.68617  0.68336  0.30053  1.0000
  C   C1909     1.0  0.49721  0.69967  0.15336  1.0000
  H   H1512     1.0  0.67626  0.57379  0.12412  1.0000
  C   C1910     1.0  0.58979  0.76706  0.34311  1.0000
  C   C1911     1.0  0.66704  0.75121  0.33142  1.0000
  H   H1513     1.0  0.72362  0.67504  0.34290  1.0000
  H   H1514     1.0  0.72191  0.81145  0.07532  1.0000
  H   H1515     1.0  0.65120  0.83206  0.07483  1.0000
  C   C1912     1.0  0.67283  0.58949  0.13112  1.0000
  C   C1913     1.0  0.68229  0.83214  0.11641  1.0000
  C   C1914     1.0  0.71953  0.89485  0.32562  1.0000
  H   H1516     1.0  0.62275  0.76807  0.35036  1.0000
  C   C1915     1.0  0.66513  0.97790  0.31428  1.0000
  C   C1916     1.0  0.72305  0.70690  0.28518  1.0000
  C   C1917     1.0  0.63595  0.71461  0.12152  1.0000
  C   C1918     1.0  0.61351  0.71267  0.12154  1.0000
  C   C1919     1.0  0.60450  0.69374  0.13388  1.0000
  C   C1920     1.0  0.61806  0.67652  0.14584  1.0000
  C   C1921     1.0  0.64074  0.67819  0.14579  1.0000
  C   C1922     1.0  0.64953  0.69752  0.13358  1.0000
  P   P66       1.0  0.65813  0.65604  0.16175  1.0000
  C   C1923     1.0  0.64537  0.64973  0.19101  1.0000
  C   C1924     1.0  0.66371  0.63010  0.14953  1.0000
  C   C1925     1.0  0.64976  0.62562  0.13519  1.0000
  C   C1926     1.0  0.65431  0.60539  0.12606  1.0000
  C   C1927     1.0  0.53796  0.74956  0.12991  1.0000
  C   C1928     1.0  0.68693  0.59387  0.14519  1.0000
  C   C1929     1.0  0.68246  0.61409  0.15429  1.0000
  C   C1930     1.0  0.62541  0.66262  0.19972  1.0000
  C   C1931     1.0  0.61558  0.65724  0.22219  1.0000
  C   C1932     1.0  0.62560  0.63901  0.23626  1.0000
  C   C1933     1.0  0.64563  0.62630  0.22792  1.0000
  C   C1934     1.0  0.65553  0.63170  0.20545  1.0000
  C   C1935     1.0  0.68515  0.66476  0.16054  1.0000
  C   C1936     1.0  0.70066  0.66432  0.14054  1.0000
  C   C1937     1.0  0.72140  0.67165  0.13904  1.0000
  H   H1517     1.0  0.72474  0.73896  0.23136  1.0000
  C   C1938     1.0  0.71152  0.67985  0.17744  1.0000
  C   C1939     1.0  0.69063  0.67276  0.17894  1.0000
  H   H1518     1.0  0.64275  0.72968  0.11261  1.0000
  H   H1519     1.0  0.60303  0.72610  0.11237  1.0000
  H   H1520     1.0  0.58689  0.69266  0.13465  1.0000
  H   H1521     1.0  0.61068  0.66217  0.15566  1.0000
  H   H1522     1.0  0.66665  0.69995  0.13368  1.0000
  H   H1523     1.0  0.63541  0.63763  0.13090  1.0000
  H   H1524     1.0  0.64343  0.60204  0.11508  1.0000
  C   C1940     1.0  0.72743  0.78244  0.29303  1.0000
  H   H1525     1.0  0.72079  0.78871  0.30885  1.0000
  H   H1526     1.0  0.69376  0.61722  0.16498  1.0000
  H   H1527     1.0  0.61726  0.67698  0.18948  1.0000
  H   H1528     1.0  0.60022  0.66742  0.22869  1.0000
  H   H1529     1.0  0.61811  0.63505  0.25377  1.0000
  H   H1530     1.0  0.65379  0.61262  0.23908  1.0000
  H   H1531     1.0  0.67124  0.62194  0.19957  1.0000
  H   H1532     1.0  0.69643  0.65899  0.12586  1.0000
  C   C1941     1.0  0.50091  0.73416  0.06601  1.0000
  H   H1533     1.0  0.72660  0.74756  0.30741  1.0000
  H   H1534     1.0  0.71541  0.68648  0.19153  1.0000
  H   H1535     1.0  0.67869  0.67398  0.19427  1.0000
  C   C1942     1.0  0.50899  0.73853  0.22413  1.0000
  H   H1536     1.0  0.64033  0.81951  0.34386  1.0000
  C   C1943     1.0  0.72236  0.78333  0.18695  1.0000
  C   C1944     1.0  0.68717  0.78471  0.24784  1.0000
  H   H1537     1.0  0.72071  0.90339  0.10779  1.0000
  H   H1538     1.0  0.67340  0.87136  0.17703  1.0000
  C   C1945     1.0  0.66113  0.75768  0.25333  1.0000
  C   C1946     1.0  0.74631  0.64364  0.34280  1.0000
  C   C1947     1.0  0.73154  0.98610  0.24452  1.0000
  H   H1539     1.0  0.58872  0.84372  0.18732  1.0000
  H   H1540     1.0  0.55824  0.76846  0.33115  1.0000
  H   H1541     1.0  0.60408  0.87919  0.16993  1.0000
  C   C1948     1.0  0.72568  0.62476  0.20628  1.0000
  C   C1949     1.0  0.70285  0.87563  0.12363  1.0000
  C   C1950     1.0  0.64047  0.83042  0.32769  1.0000
  C   C1951     1.0  0.68357  0.87824  0.16171  1.0000
  C   C1952     1.0  0.63668  0.86202  0.15793  1.0000
  C   C1953     1.0  0.71803  0.60383  0.21278  1.0000
  C   C1954     1.0  0.66583  0.82998  0.08325  1.0000
  C   C1955     1.0  0.70339  0.82361  0.10542  1.0000
  H   H1542     1.0  0.51217  0.75939  0.17071  1.0000
  H   H1543     1.0  0.58182  0.73882  0.15997  1.0000
  H   H1544     1.0  0.60141  0.98864  0.22016  1.0000
  C   C1956     1.0  0.69419  0.77249  0.35116  1.0000
  C   C1957     1.0  0.65977  0.98578  0.29250  1.0000
  C   C1958     1.0  0.65059  0.84107  0.15738  1.0000
  H   H1545     1.0  0.69807  0.73614  0.27853  1.0000
  H   H1546     1.0  0.68337  0.72000  0.34835  1.0000
  C   C1959     1.0  0.60576  0.84307  0.17845  1.0000
  C   C1960     1.0  0.70542  0.82241  0.17927  1.0000
  H   H1547     1.0  0.72289  0.82942  0.49353  1.0000
  H   H1548     1.0  0.55279  0.66172  0.13486  1.0000
  H   H1549     1.0  0.73308  0.77037  0.19633  1.0000
  H   H1550     1.0  0.70815  0.72285  0.15000  1.0000
  H   H1551     1.0  0.61242  0.80683  0.18468  1.0000
  C   C1961     1.0  0.70107  0.71835  0.28522  1.0000
  H   H1552     1.0  0.72538  0.56817  0.21096  1.0000
  C   C1962     1.0  0.70798  0.67187  0.30055  1.0000
  H   H1553     1.0  0.71790  0.87147  0.05486  1.0000
  H   H1554     1.0  0.65688  0.74267  0.32362  1.0000
  Fe  Fe134     1.0  0.70186  0.86959  0.27772  1.0000
  C   C1963     1.0  0.51474  0.70947  0.13910  1.0000
  C   C1964     1.0  0.62996  0.96320  0.22530  1.0000
  C   C1965     1.0  0.65084  0.95814  0.23281  1.0000
  H   H1555     1.0  0.71839  0.94114  0.28365  1.0000
  C   C1966     1.0  0.50320  0.70671  0.20787  1.0000
  H   H1556     1.0  0.68568  0.90829  0.17502  1.0000
  H   H1557     1.0  0.69179  0.79061  0.14387  1.0000
  H   H1558     1.0  0.70969  0.92437  0.14063  1.0000
  H   H1559     1.0  0.63577  0.86090  0.34267  1.0000
  C   C1967     1.0  0.69532  0.74900  0.35546  1.0000
  H   H1560     1.0  0.68865  0.81695  0.05565  1.0000
  S   S271      1.0  0.73364  0.88279  0.26070  1.0000
  C   C1968     1.0  0.53472  0.69560  0.13223  1.0000
  H   H1561     1.0  0.72620  0.80959  0.20515  1.0000
  H   H1562     1.0  0.67550  0.97031  0.24701  1.0000
  H   H1563     1.0  0.66060  0.94154  0.23195  1.0000
  H   H1564     1.0  0.64703  0.84174  0.11327  1.0000
  C   C1969     1.0  0.57820  0.76533  0.13159  1.0000
  H   H1565     1.0  0.71060  0.65372  0.30580  1.0000
  H   H1566     1.0  0.70503  0.78052  0.35863  1.0000
  C   C1970     1.0  0.73328  0.50712  0.32623  1.0000
  H   H1567     1.0  0.73792  0.63713  0.33156  1.0000
  C   C1971     1.0  0.72802  0.97154  0.29101  1.0000
  C   C1972     1.0  0.73080  0.75922  0.29210  1.0000
  H   H1568     1.0  0.70131  0.58158  0.14913  1.0000
  S   S272      1.0  0.74454  0.57396  0.30613  1.0000
  H   H1569     1.0  0.65008  0.97605  0.28556  1.0000
  C   C1973     1.0  0.61756  0.98473  0.22608  1.0000
  C   C1974     1.0  0.73788  0.72535  0.22714  1.0000
  H   H1570     1.0  0.73055  0.81561  0.27441  1.0000
  C   C1975     1.0  0.73623  0.85870  0.02488  1.0000
  H   H1571     1.0  0.73159  0.52537  0.32184  1.0000
  H   H1572     1.0  0.74146  0.90681  0.29608  1.0000
  C   C1976     1.0  0.64692  0.99615  0.24221  1.0000
  C   C1977     1.0  0.74081  0.71894  0.20565  1.0000
  H   H1573     1.0  0.71547  0.63970  0.21185  1.0000
  H   H1574     1.0  0.72344  0.86679  0.01464  1.0000
  C   C1978     1.0  0.73299  0.86145  0.04770  1.0000
  C   C1979     1.0  0.65925  0.97449  0.24128  1.0000
  H   H1575     1.0  0.50318  0.72099  0.05549  1.0000
  H   H1576     1.0  0.73358  0.99152  0.22646  1.0000
  H   H1577     1.0  0.66024  0.96205  0.32339  1.0000
  C   C1980     1.0  0.51974  0.66271  0.15430  1.0000
  C   C1981     1.0  0.73957  0.81057  0.35246  1.0000
  P   P67       1.0  0.51176  0.73961  0.12965  1.0000
  H   H1578     1.0  0.74441  0.86431  0.14038  1.0000
  C   C1982     1.0  0.74675  0.62636  0.19326  1.0000
  H   H1579     1.0  0.69775  0.50604  0.33109  1.0000
  H   H1580     1.0  0.51471  0.71202  0.09333  1.0000
  H   H1581     1.0  0.73844  0.80011  0.36887  1.0000
  C   C1983     1.0  0.53724  0.67231  0.13991  1.0000
  S   S273      1.0  0.73921  0.70097  0.37067  1.0000
  C   C1984     1.0  0.73915  0.82093  0.49736  1.0000
  C   C1985     1.0  0.74270  0.78963  0.25335  1.0000
  H   H1582     1.0  0.74020  0.52742  0.26881  1.0000
  H   H1583     1.0  0.68123  0.98428  0.34104  1.0000
  C   C1986     1.0  0.74233  0.83776  0.31004  1.0000
  C   C1987     1.0  0.67681  0.99043  0.32428  1.0000
  H   H1584     1.0  0.74657  0.85309  0.07912  1.0000
  C   C1988     1.0  0.49970  0.67637  0.16091  1.0000
  C   C1989     1.0  0.74045  0.89887  0.31354  1.0000
  H   H1585     1.0  0.73017  0.76042  0.54701  1.0000
  S   S274      1.0  0.66709  0.92003  0.75214  1.0000
  S   S275      1.0  0.70894  0.94802  0.77736  1.0000
  Fe  Fe135     1.0  0.70438  0.64067  0.78570  1.0000
  H   H1586     1.0  0.68496  0.82483  0.72619  1.0000
  S   S276      1.0  0.66787  0.64563  0.78218  1.0000
  C   C1990     1.0  0.51315  0.82069  0.85913  1.0000
  C   C1991     1.0  0.74144  0.81017  0.51934  1.0000
  C   C1992     1.0  0.73892  0.87752  0.84442  1.0000
  C   C1993     1.0  0.72020  0.81918  0.71264  1.0000
  C   C1994     1.0  0.55219  0.81794  0.78619  1.0000
  S   S277      1.0  0.73912  0.83319  0.90307  1.0000
  H   H1587     1.0  0.70634  0.54388  0.81488  1.0000
  S   S278      1.0  0.71475  0.61676  0.81596  1.0000
  C   C1995     1.0  0.72782  0.58098  0.68441  1.0000
  Fe  Fe136     1.0  0.62618  0.81092  0.73265  1.0000
  S   S279      1.0  0.61149  0.83281  0.70361  1.0000
  S   S280      1.0  0.63961  0.82239  0.76055  1.0000
  Fe  Fe137     1.0  0.61966  0.76763  0.71822  1.0000
  S   S281      1.0  0.60485  0.78597  0.68749  1.0000
  S   S282      1.0  0.61790  0.73016  0.72469  1.0000
  Fe  Fe138     1.0  0.63215  0.80735  0.68286  1.0000
  S   S283      1.0  0.64489  0.82219  0.64736  1.0000
  Fe  Fe139     1.0  0.58507  0.80983  0.71020  1.0000
  S   S284      1.0  0.54949  0.82598  0.70559  1.0000
  S   S285      1.0  0.64908  0.78685  0.71141  1.0000
  S   S286      1.0  0.59777  0.79011  0.74146  1.0000
  H   H1588     1.0  0.68586  0.86419  0.73136  1.0000
  C   C1996     1.0  0.72611  0.51556  0.76475  1.0000
  C   C1997     1.0  0.52664  0.81082  0.70829  1.0000
  C   C1998     1.0  0.64516  0.99416  0.73706  1.0000
  C   C1999     1.0  0.68525  0.98239  0.73377  1.0000
  H   H1589     1.0  0.74088  0.75765  0.79241  1.0000
  H   H1590     1.0  0.49897  0.80303  0.89100  1.0000
  C   C2000     1.0  0.52819  0.78783  0.71714  1.0000
  H   H1591     1.0  0.52694  0.83419  0.82548  1.0000
  C   C2001     1.0  0.74517  0.54674  0.78250  1.0000
  C   C2002     1.0  0.52189  0.81923  0.83645  1.0000
  H   H1592     1.0  0.54399  0.77873  0.72158  1.0000
  C   C2003     1.0  0.66991  0.81268  0.63044  1.0000
  C   C2004     1.0  0.68526  0.79398  0.63769  1.0000
  H   H1593     1.0  0.55742  0.77160  0.68067  1.0000
  C   C2005     1.0  0.67407  0.82444  0.60852  1.0000
  H   H1594     1.0  0.68210  0.78480  0.65462  1.0000
  H   H1595     1.0  0.72126  0.88027  0.72281  1.0000
  H   H1596     1.0  0.66232  0.83890  0.60286  1.0000
  C   C2006     1.0  0.56716  0.75485  0.65105  1.0000
  H   H1597     1.0  0.52405  0.85420  0.65022  1.0000
  H   H1598     1.0  0.68155  0.52131  0.78916  1.0000
  H   H1599     1.0  0.71297  0.84637  0.97814  1.0000
  P   P68       1.0  0.53422  0.79689  0.79865  1.0000
  H   H1600     1.0  0.68050  0.70181  0.57679  1.0000
  H   H1601     1.0  0.58053  0.73396  0.62488  1.0000
  H   H1602     1.0  0.70946  0.54507  0.74567  1.0000
  H   H1603     1.0  0.71951  0.80224  0.70965  1.0000
  C   C2007     1.0  0.50615  0.82239  0.70215  1.0000
  C   C2008     1.0  0.65511  0.67034  0.76679  1.0000
  C   C2009     1.0  0.63334  0.67031  0.76265  1.0000
  C   C2010     1.0  0.62235  0.68901  0.74998  1.0000
  C   C2011     1.0  0.63275  0.70823  0.74162  1.0000
  C   C2012     1.0  0.65461  0.70854  0.74571  1.0000
  C   C2013     1.0  0.66587  0.68947  0.75831  1.0000
  H   H1604     1.0  0.62503  0.65557  0.76900  1.0000
  H   H1605     1.0  0.60562  0.68854  0.74661  1.0000
  H   H1606     1.0  0.66296  0.72313  0.73872  1.0000
  H   H1607     1.0  0.68280  0.68952  0.76131  1.0000
  C   C2014     1.0  0.57458  0.78637  0.59094  1.0000
  C   C2015     1.0  0.65787  0.89347  0.75561  1.0000
  C   C2016     1.0  0.66413  0.87625  0.77287  1.0000
  C   C2017     1.0  0.65765  0.85479  0.77465  1.0000
  C   C2018     1.0  0.64558  0.85014  0.75872  1.0000
  C   C2019     1.0  0.63898  0.86743  0.74164  1.0000
  C   C2020     1.0  0.64474  0.88919  0.74038  1.0000
  H   H1608     1.0  0.67397  0.87947  0.78487  1.0000
  H   H1609     1.0  0.66248  0.84163  0.78813  1.0000
  H   H1610     1.0  0.62971  0.86402  0.72926  1.0000
  H   H1611     1.0  0.63988  0.90245  0.72697  1.0000
  C   C2021     1.0  0.70869  0.79919  0.60080  1.0000
  H   H1612     1.0  0.71690  0.77312  0.62837  1.0000
  Fe  Fe140     1.0  0.70142  0.91983  0.76157  1.0000
  H   H1613     1.0  0.62884  0.99166  0.73407  1.0000
  C   C2022     1.0  0.73421  0.89841  0.85235  1.0000
  C   C2023     1.0  0.70831  0.57115  0.85874  1.0000
  C   C2024     1.0  0.50932  0.80042  0.78538  1.0000
  C   C2025     1.0  0.71482  0.89862  0.94726  1.0000
  C   C2026     1.0  0.73198  0.89900  0.87560  1.0000
  C   C2027     1.0  0.74190  0.77189  0.98030  1.0000
  H   H1614     1.0  0.72705  0.81025  0.53261  1.0000
  C   C2028     1.0  0.68580  0.73610  0.57778  1.0000
  C   C2029     1.0  0.70015  0.75239  0.56932  1.0000
  P   P69       1.0  0.66139  0.74253  0.59842  1.0000
  C   C2030     1.0  0.64151  0.72344  0.59890  1.0000
  C   C2031     1.0  0.66911  0.73842  0.62650  1.0000
  C   C2032     1.0  0.65229  0.73820  0.64550  1.0000
  C   C2033     1.0  0.65801  0.73399  0.66734  1.0000
  C   C2034     1.0  0.68054  0.72966  0.67045  1.0000
  C   C2035     1.0  0.74634  0.81052  0.96398  1.0000
  C   C2036     1.0  0.69176  0.73405  0.62975  1.0000
  C   C2037     1.0  0.62356  0.72978  0.58637  1.0000
  C   C2038     1.0  0.60871  0.71454  0.58644  1.0000
  C   C2039     1.0  0.61164  0.69292  0.59901  1.0000
  C   C2040     1.0  0.62946  0.68648  0.61153  1.0000
  C   C2041     1.0  0.64431  0.70168  0.61154  1.0000
  C   C2042     1.0  0.64853  0.77124  0.58991  1.0000
  C   C2043     1.0  0.64892  0.77976  0.56675  1.0000
  C   C2044     1.0  0.63931  0.80196  0.55984  1.0000
  C   C2045     1.0  0.62894  0.81575  0.57596  1.0000
  C   C2046     1.0  0.62816  0.80732  0.59898  1.0000
  C   C2047     1.0  0.63802  0.78523  0.60598  1.0000
  H   H1615     1.0  0.69674  0.76870  0.57512  1.0000
  H   H1616     1.0  0.63472  0.74137  0.64348  1.0000
  H   H1617     1.0  0.64495  0.73423  0.68189  1.0000
  H   H1618     1.0  0.69609  0.82684  0.57679  1.0000
  C   C2048     1.0  0.72347  0.71609  0.74160  1.0000
  C   C2049     1.0  0.55870  0.77352  0.60436  1.0000
  H   H1619     1.0  0.62103  0.74636  0.57639  1.0000
  H   H1620     1.0  0.59502  0.71945  0.57659  1.0000
  H   H1621     1.0  0.60019  0.68110  0.59893  1.0000
  H   H1622     1.0  0.63184  0.66965  0.62115  1.0000
  H   H1623     1.0  0.65694  0.76935  0.55398  1.0000
  H   H1624     1.0  0.64023  0.80859  0.54196  1.0000
  H   H1625     1.0  0.62188  0.83311  0.57069  1.0000
  H   H1626     1.0  0.62071  0.81825  0.61147  1.0000
  H   H1627     1.0  0.63795  0.77961  0.62391  1.0000
  H   H1628     1.0  0.57758  0.76715  0.54082  1.0000
  H   H1629     1.0  0.60165  0.70901  0.68972  1.0000
  C   C2050     1.0  0.71908  0.74778  0.55332  1.0000
  H   H1630     1.0  0.70519  0.73407  0.61551  1.0000
  C   C2051     1.0  0.66422  0.97962  0.72955  1.0000
  P   P70       1.0  0.55011  0.77594  0.63401  1.0000
  C   C2052     1.0  0.60599  0.60825  0.82385  1.0000
  C   C2053     1.0  0.58736  0.59674  0.82988  1.0000
  C   C2054     1.0  0.59025  0.57317  0.83153  1.0000
  C   C2055     1.0  0.61179  0.56106  0.82736  1.0000
  C   C2056     1.0  0.63065  0.57247  0.82202  1.0000
  C   C2057     1.0  0.62752  0.59621  0.81976  1.0000
  P   P71       1.0  0.65854  0.55760  0.81523  1.0000
  C   C2058     1.0  0.67779  0.56368  0.83207  1.0000
  C   C2059     1.0  0.66018  0.52718  0.82074  1.0000
  H   H1631     1.0  0.56926  0.81421  0.81540  1.0000
  C   C2060     1.0  0.51331  0.76024  0.66327  1.0000
  C   C2061     1.0  0.70042  0.55419  0.82819  1.0000
  C   C2062     1.0  0.55477  0.76253  0.77396  1.0000
  H   H1632     1.0  0.58164  0.79836  0.59790  1.0000
  C   C2063     1.0  0.68573  0.58050  0.86288  1.0000
  C   C2064     1.0  0.67044  0.57664  0.84974  1.0000
  C   C2065     1.0  0.66627  0.56791  0.78567  1.0000
  C   C2066     1.0  0.65780  0.55961  0.76912  1.0000
  C   C2067     1.0  0.66165  0.56937  0.74638  1.0000
  C   C2068     1.0  0.67337  0.58793  0.74015  1.0000
  C   C2069     1.0  0.68148  0.59648  0.75661  1.0000
  C   C2070     1.0  0.67811  0.58646  0.77925  1.0000
  H   H1633     1.0  0.60382  0.62656  0.82208  1.0000
  H   H1634     1.0  0.57067  0.60612  0.83297  1.0000
  H   H1635     1.0  0.73712  0.78661  0.94614  1.0000
  C   C2071     1.0  0.69695  0.55894  0.69079  1.0000
  H   H1636     1.0  0.64176  0.60548  0.81463  1.0000
  C   C2072     1.0  0.70204  0.80293  0.77810  1.0000
  H   H1637     1.0  0.70798  0.64103  0.64997  1.0000
  H   H1638     1.0  0.70003  0.97094  0.72819  1.0000
  H   H1639     1.0  0.59374  0.86030  0.75801  1.0000
  C   C2073     1.0  0.55693  0.75565  0.57191  1.0000
  H   H1640     1.0  0.68014  0.59092  0.87615  1.0000
  H   H1641     1.0  0.65303  0.58375  0.85353  1.0000
  H   H1642     1.0  0.64797  0.54578  0.77382  1.0000
  H   H1643     1.0  0.65522  0.56277  0.73370  1.0000
  H   H1644     1.0  0.67585  0.59598  0.72271  1.0000
  H   H1645     1.0  0.68988  0.61128  0.75205  1.0000
  H   H1646     1.0  0.68411  0.59374  0.79176  1.0000
  H   H1647     1.0  0.68488  0.72635  0.68741  1.0000
  H   H1648     1.0  0.72215  0.72104  0.70579  1.0000
  C   C2074     1.0  0.70484  0.78731  0.62283  1.0000
  C   C2075     1.0  0.56647  0.84389  0.75370  1.0000
  C   C2076     1.0  0.58290  0.83799  0.78817  1.0000
  S   S287      1.0  0.72016  0.89259  0.78416  1.0000
  H   H1649     1.0  0.59473  0.83160  0.64791  1.0000
  H   H1650     1.0  0.73394  0.69984  0.74164  1.0000
  C   C2077     1.0  0.52374  0.79873  0.82805  1.0000
  C   C2078     1.0  0.51582  0.78003  0.84239  1.0000
  C   C2079     1.0  0.55120  0.76999  0.79509  1.0000
  H   H1651     1.0  0.73865  0.75532  0.97852  1.0000
  C   C2080     1.0  0.70098  0.85409  0.72487  1.0000
  H   H1652     1.0  0.51075  0.79049  0.61054  1.0000
  H   H1653     1.0  0.71405  0.69390  0.54874  1.0000
  C   C2081     1.0  0.55982  0.84545  0.64887  1.0000
  H   H1654     1.0  0.56206  0.86137  0.65336  1.0000
  H   H1655     1.0  0.73164  0.87933  0.90881  1.0000
  H   H1656     1.0  0.59559  0.84121  0.79722  1.0000
  H   H1657     1.0  0.68438  0.71153  0.80119  1.0000
  H   H1658     1.0  0.51846  0.81753  0.64179  1.0000
  H   H1659     1.0  0.68728  0.68421  0.83626  1.0000
  C   C2082     1.0  0.72090  0.53894  0.75785  1.0000
  C   C2083     1.0  0.73380  0.87883  0.89087  1.0000
  H   H1660     1.0  0.66516  0.78981  0.81501  1.0000
  C   C2084     1.0  0.53839  0.84137  0.64714  1.0000
  C   C2085     1.0  0.56703  0.75702  0.67370  1.0000
  H   H1661     1.0  0.54681  0.77247  0.76012  1.0000
  H   H1662     1.0  0.64191  0.52660  0.85472  1.0000
  H   H1663     1.0  0.58966  0.79466  0.63933  1.0000
  H   H1664     1.0  0.68930  0.87678  0.95684  1.0000
  C   C2086     1.0  0.58200  0.84870  0.76594  1.0000
  H   H1665     1.0  0.73003  0.67404  0.68289  1.0000
  H   H1666     1.0  0.59338  0.79423  0.55778  1.0000
  C   C2087     1.0  0.71089  0.78037  0.78501  1.0000
  C   C2088     1.0  0.74123  0.78942  0.96202  1.0000
  H   H1667     1.0  0.62399  0.80033  0.82157  1.0000
  H   H1668     1.0  0.61355  0.54294  0.82795  1.0000
  H   H1669     1.0  0.61700  0.75517  0.77669  1.0000
  C   C2089     1.0  0.71718  0.72528  0.76172  1.0000
  H   H1670     1.0  0.58641  0.72814  0.82198  1.0000
  C   C2090     1.0  0.56804  0.82267  0.79831  1.0000
  C   C2091     1.0  0.55181  0.82836  0.76368  1.0000
  C   C2092     1.0  0.74140  0.85725  0.85974  1.0000
  C   C2093     1.0  0.53531  0.82042  0.64243  1.0000
  H   H1671     1.0  0.52440  0.75366  0.67565  1.0000
  C   C2094     1.0  0.71002  0.71026  0.55445  1.0000
  H   H1672     1.0  0.73885  0.72309  0.53365  1.0000
  C   C2095     1.0  0.50914  0.77673  0.72059  1.0000
  C   C2096     1.0  0.74574  0.67683  0.68703  1.0000
  H   H1673     1.0  0.71492  0.72644  0.65401  1.0000
  H   H1674     1.0  0.70879  0.83744  0.76953  1.0000
  C   C2097     1.0  0.70057  0.83193  0.72177  1.0000
  C   C2098     1.0  0.57823  0.82861  0.64587  1.0000
  H   H1675     1.0  0.70094  0.69478  0.86859  1.0000
  C   C2099     1.0  0.73735  0.82424  0.65515  1.0000
  H   H1676     1.0  0.71236  0.73270  0.86561  1.0000
  H   H1677     1.0  0.56619  0.85171  0.73623  1.0000
  H   H1678     1.0  0.54059  0.82417  0.75355  1.0000
  H   H1679     1.0  0.51188  0.83652  0.86555  1.0000
  H   H1680     1.0  0.71027  0.75993  0.83062  1.0000
  C   C2100     1.0  0.57902  0.74030  0.68763  1.0000
  H   H1681     1.0  0.71885  0.99401  0.84266  1.0000
  H   H1682     1.0  0.53828  0.74743  0.60492  1.0000
  H   H1683     1.0  0.68680  0.77485  0.74152  1.0000
  C   C2101     1.0  0.74057  0.85073  0.71035  1.0000
  H   H1684     1.0  0.57576  0.56429  0.83577  1.0000
  C   C2102     1.0  0.71519  0.63000  0.68432  1.0000
  C   C2103     1.0  0.70366  0.64362  0.66748  1.0000
  C   C2104     1.0  0.68661  0.66115  0.67314  1.0000
  C   C2105     1.0  0.68054  0.66483  0.69567  1.0000
  C   C2106     1.0  0.69143  0.65087  0.71254  1.0000
  C   C2107     1.0  0.70861  0.63354  0.70687  1.0000
  H   H1685     1.0  0.74590  0.82378  0.94953  1.0000
  H   H1686     1.0  0.69892  0.75892  0.70573  1.0000
  C   C2108     1.0  0.71559  0.55788  0.84151  1.0000
  S   S288      1.0  0.73045  0.92251  0.73343  1.0000
  H   H1687     1.0  0.66270  0.96583  0.72092  1.0000
  H   H1688     1.0  0.72606  0.57244  0.76159  1.0000
  C   C2109     1.0  0.59257  0.71956  0.65618  1.0000
  H   H1689     1.0  0.65779  0.74454  0.77010  1.0000
  C   C2110     1.0  0.69740  0.72968  0.65166  1.0000
  S   S289      1.0  0.72326  0.66774  0.78985  1.0000
  H   H1690     1.0  0.59984  0.78321  0.80221  1.0000
  H   H1691     1.0  0.67935  0.55805  0.69109  1.0000
  H   H1692     1.0  0.69365  0.59474  0.67943  1.0000
  C   C2111     1.0  0.69100  0.71486  0.57039  1.0000
  H   H1693     1.0  0.59186  0.71481  0.78470  1.0000
  H   H1694     1.0  0.67832  0.67214  0.66002  1.0000
  H   H1695     1.0  0.66749  0.67852  0.70010  1.0000
  H   H1696     1.0  0.68677  0.65368  0.73002  1.0000
  C   C2112     1.0  0.55022  0.75784  0.59477  1.0000
  H   H1697     1.0  0.72337  0.71621  0.77692  1.0000
  C   C2113     1.0  0.71987  0.86155  0.96989  1.0000
  C   C2114     1.0  0.57523  0.80766  0.64114  1.0000
  S   S290      1.0  0.73978  0.65201  0.85166  1.0000
  C   C2115     1.0  0.69319  0.81761  0.59374  1.0000
  C   C2116     1.0  0.56916  0.74256  0.77034  1.0000
  C   C2117     1.0  0.55375  0.80340  0.63934  1.0000
  H   H1698     1.0  0.65819  0.69637  0.62114  1.0000
  C   C2118     1.0  0.63142  0.78798  0.81052  1.0000
  C   C2119     1.0  0.61780  0.77834  0.79967  1.0000
  C   C2120     1.0  0.62745  0.76270  0.78513  1.0000
  C   C2121     1.0  0.65072  0.75699  0.78108  1.0000
  C   C2122     1.0  0.66457  0.76720  0.79123  1.0000
  C   C2123     1.0  0.65476  0.78228  0.80647  1.0000
  P   P72       1.0  0.69432  0.75787  0.78796  1.0000
  C   C2124     1.0  0.69791  0.73745  0.81295  1.0000
  C   C2125     1.0  0.70324  0.74609  0.76203  1.0000
  H   H1699     1.0  0.68480  0.80738  0.77508  1.0000
  C   C2126     1.0  0.52091  0.77206  0.64198  1.0000
  Fe  Fe141     1.0  0.73943  0.94878  0.75093  1.0000
  C   C2127     1.0  0.70374  0.74935  0.72142  1.0000
  C   C2128     1.0  0.69695  0.75835  0.74167  1.0000
  C   C2129     1.0  0.70529  0.74345  0.83148  1.0000
  C   C2130     1.0  0.70615  0.72817  0.85155  1.0000
  C   C2131     1.0  0.69961  0.70687  0.85327  1.0000
  C   C2132     1.0  0.69203  0.70087  0.83499  1.0000
  C   C2133     1.0  0.69084  0.71622  0.81501  1.0000
  H   H1700     1.0  0.69854  0.97117  0.82521  1.0000
  C   C2134     1.0  0.71568  0.81996  0.77454  1.0000
  H   H1701     1.0  0.71697  0.62304  0.72005  1.0000
  H   H1702     1.0  0.72836  0.91507  0.88182  1.0000
  H   H1703     1.0  0.70442  0.91182  0.93769  1.0000
  H   H1704     1.0  0.60260  0.70509  0.64946  1.0000
  H   H1705     1.0  0.54996  0.74385  0.56451  1.0000
  Fe  Fe142     1.0  0.73613  0.64269  0.81818  1.0000
  H   H1706     1.0  0.71731  0.83205  0.62811  1.0000
  C   C2135     1.0  0.57248  0.76876  0.55857  1.0000
  C   C2136     1.0  0.58031  0.73001  0.78774  1.0000
  C   C2137     1.0  0.70513  0.57970  0.68424  1.0000
  C   C2138     1.0  0.65075  0.51659  0.84190  1.0000
  H   H1707     1.0  0.57218  0.73713  0.75382  1.0000
  H   H1708     1.0  0.57846  0.74204  0.70520  1.0000
  C   C2139     1.0  0.67290  0.51376  0.80505  1.0000
  C   C2140     1.0  0.59199  0.72167  0.67887  1.0000
  H   H1709     1.0  0.72023  0.57442  0.86865  1.0000
  C   C2141     1.0  0.74018  0.82881  0.70616  1.0000
  C   C2142     1.0  0.73412  0.82756  0.63247  1.0000
  C   C2143     1.0  0.58009  0.73602  0.64229  1.0000
  C   C2144     1.0  0.58136  0.78403  0.56812  1.0000
  C   C2145     1.0  0.56289  0.75760  0.81235  1.0000
  C   C2146     1.0  0.72402  0.72673  0.54588  1.0000
  S   S291      1.0  0.73069  0.92408  0.83382  1.0000
  C   C2147     1.0  0.71140  0.53934  0.69737  1.0000
  C   C2148     1.0  0.71677  0.72806  0.72144  1.0000
  C   C2149     1.0  0.57723  0.73755  0.80873  1.0000
  C   C2150     1.0  0.73695  0.90105  0.94827  1.0000
  H   H1710     1.0  0.74307  0.60931  0.93291  1.0000
  S   S292      1.0  0.73242  0.79195  0.58115  1.0000
  H   H1711     1.0  0.50507  0.83706  0.78044  1.0000
  C   C2151     1.0  0.72098  0.86329  0.71973  1.0000
  C   C2152     1.0  0.73843  0.85794  0.88305  1.0000
  C   C2153     1.0  0.73365  0.77500  0.78752  1.0000
  C   C2154     1.0  0.70631  0.87886  0.95802  1.0000
  Fe  Fe143     1.0  0.73051  0.92101  0.79738  1.0000
  H   H1712     1.0  0.51027  0.75911  0.72805  1.0000
  S   S293      1.0  0.73148  0.62484  0.76083  1.0000
  C   C2155     1.0  0.50707  0.78154  0.86505  1.0000
  H   H1713     1.0  0.50485  0.84018  0.69528  1.0000
  C   C2156     1.0  0.73025  0.55449  0.76684  1.0000
  C   C2157     1.0  0.73836  0.81447  0.77695  1.0000
  H   H1714     1.0  0.72275  0.82633  0.66787  1.0000
  H   H1715     1.0  0.51628  0.76433  0.83600  1.0000
  H   H1716     1.0  0.74479  0.84115  0.85356  1.0000
  H   H1717     1.0  0.56139  0.76360  0.82841  1.0000
  H   H1718     1.0  0.70498  0.52336  0.70320  1.0000
  C   C2158     1.0  0.50548  0.78090  0.62684  1.0000
  H   H1719     1.0  0.74361  0.91624  0.93962  1.0000
  C   C2159     1.0  0.74219  0.86377  0.97082  1.0000
  H   H1720     1.0  0.74031  0.87701  0.82655  1.0000
  C   C2160     1.0  0.74246  0.56099  0.68989  1.0000
  H   H1721     1.0  0.73312  0.55073  0.83816  1.0000
  H   H1722     1.0  0.73815  0.66339  0.72238  1.0000
  C   C2161     1.0  0.69809  0.98916  0.81916  1.0000
  H   H1723     1.0  0.67749  0.98902  0.79404  1.0000
  H   H1724     1.0  0.50105  0.76704  0.87607  1.0000
  P   P73       1.0  0.73815  0.60798  0.67750  1.0000
  C   C2162     1.0  0.50583  0.80183  0.87345  1.0000
  H   H1725     1.0  0.50764  0.76453  0.78880  1.0000
  C   C2163     1.0  0.49848  0.82220  0.77830  1.0000
  Fe  Fe144     1.0  0.74338  0.60288  0.79139  1.0000
  C   C2164     1.0  0.74073  0.50785  0.78071  1.0000
  C   C2165     1.0  0.73417  0.54034  0.69671  1.0000
  C   C2166     1.0  0.49995  0.78149  0.78304  1.0000
  H   H1726     1.0  0.74527  0.52514  0.70199  1.0000
  H   H1727     1.0  0.74552  0.58491  0.72323  1.0000
  H   H1728     1.0  0.77468  0.36056  0.13596  1.0000
  C   C2167     1.0  0.76433  0.10406  0.20037  1.0000
  H   H1729     1.0  0.85554  0.29532  0.09396  1.0000
  H   H1730     1.0  0.81257  0.18369  0.18720  1.0000
  C   C2168     1.0  0.76694  0.26900  0.40528  1.0000
  H   H1731     1.0  0.79406  0.29412  0.07063  1.0000
  H   H1732     1.0  0.76415  0.11424  0.21337  1.0000
  S   S294      1.0  0.79143  0.10170  0.25501  1.0000
  H   H1733     1.0  0.86459  0.11596  0.41972  1.0000
  Fe  Fe145     1.0  0.89950  0.20412  0.23367  1.0000
  S   S295      1.0  0.87376  0.22450  0.25620  1.0000
  S   S296      1.0  0.93278  0.18765  0.24470  1.0000
  Fe  Fe146     1.0  0.86765  0.20876  0.19838  1.0000
  S   S297      1.0  0.84002  0.22927  0.21837  1.0000
  S   S298      1.0  0.86420  0.19905  0.16504  1.0000
  Fe  Fe147     1.0  0.86729  0.24728  0.22389  1.0000
  S   S299      1.0  0.86497  0.28492  0.21333  1.0000
  Fe  Fe148     1.0  0.84932  0.20406  0.24836  1.0000
  S   S300      1.0  0.82296  0.18954  0.27558  1.0000
  S   S301      1.0  0.89473  0.22815  0.20193  1.0000
  S   S302      1.0  0.87539  0.18229  0.22784  1.0000
  H   H1734     1.0  0.95088  0.33532  0.26394  1.0000
  C   C2169     1.0  0.81285  0.32235  0.10593  1.0000
  Fe  Fe149     1.0  0.78507  0.37654  0.25672  1.0000
  C   C2170     1.0  0.77979  0.18707  0.12303  1.0000
  S   S303      1.0  0.81528  0.35932  0.27280  1.0000
  S   S304      1.0  0.78311  0.40598  0.22858  1.0000
  H   H1735     1.0  0.83980  0.17808  0.31930  1.0000
  S   S305      1.0  0.79438  0.24823  0.09955  1.0000
  C   C2171     1.0  0.77419  0.27591  0.38234  1.0000
  C   C2172     1.0  0.84375  0.21334  0.14818  1.0000
  C   C2173     1.0  0.84626  0.20882  0.12599  1.0000
  C   C2174     1.0  0.83097  0.21976  0.11152  1.0000
  C   C2175     1.0  0.81248  0.23489  0.11920  1.0000
  C   C2176     1.0  0.80959  0.23942  0.14152  1.0000
  C   C2177     1.0  0.82546  0.22887  0.15594  1.0000
  H   H1736     1.0  0.86036  0.19698  0.11982  1.0000
  H   H1737     1.0  0.83343  0.21631  0.09428  1.0000
  H   H1738     1.0  0.79546  0.25125  0.14755  1.0000
  H   H1739     1.0  0.82348  0.23265  0.17300  1.0000
  C   C2178     1.0  0.85080  0.30460  0.23084  1.0000
  C   C2179     1.0  0.84790  0.29962  0.25452  1.0000
  C   C2180     1.0  0.83723  0.31652  0.26762  1.0000
  C   C2181     1.0  0.82878  0.33799  0.25697  1.0000
  C   C2182     1.0  0.83123  0.34260  0.23338  1.0000
  C   C2183     1.0  0.84274  0.32617  0.22041  1.0000
  H   H1740     1.0  0.85428  0.28302  0.26264  1.0000
  H   H1741     1.0  0.83527  0.31293  0.28589  1.0000
  H   H1742     1.0  0.82484  0.35914  0.22509  1.0000
  H   H1743     1.0  0.84548  0.33024  0.20217  1.0000
  C   C2184     1.0  0.79991  0.12563  0.26210  1.0000
  C   C2185     1.0  0.78627  0.13901  0.27725  1.0000
  C   C2186     1.0  0.79373  0.15821  0.28200  1.0000
  C   C2187     1.0  0.81469  0.16416  0.27147  1.0000
  C   C2188     1.0  0.82848  0.15027  0.25702  1.0000
  C   C2189     1.0  0.82107  0.13124  0.25221  1.0000
  H   H1744     1.0  0.77003  0.13461  0.28523  1.0000
  H   H1745     1.0  0.78315  0.16862  0.29358  1.0000
  H   H1746     1.0  0.84482  0.15423  0.24926  1.0000
  H   H1747     1.0  0.83180  0.12084  0.24070  1.0000
  C   C2190     1.0  0.81139  0.15356  0.36843  1.0000
  H   H1748     1.0  0.78210  0.09821  0.32755  1.0000
  C   C2191     1.0  0.78271  0.48341  0.26639  1.0000
  C   C2192     1.0  0.77140  0.46730  0.26067  1.0000
  C   C2193     1.0  0.75278  0.27718  0.26005  1.0000
  H   H1749     1.0  0.96359  0.31879  0.19814  1.0000
  C   C2194     1.0  0.87882  0.35018  0.26513  1.0000
  H   H1750     1.0  0.80022  0.47904  0.26844  1.0000
  H   H1751     1.0  0.78025  0.45075  0.25809  1.0000
  H   H1752     1.0  0.78829  0.20991  0.24944  1.0000
  C   C2195     1.0  0.91439  0.24421  0.28026  1.0000
  C   C2196     1.0  0.95620  0.20244  0.23786  1.0000
  C   C2197     1.0  0.97651  0.19240  0.24556  1.0000
  H   H1753     1.0  0.77268  0.26618  0.00691  1.0000
  C   C2198     1.0  0.97343  0.23591  0.22098  1.0000
  C   C2199     1.0  0.95480  0.22415  0.22533  1.0000
  H   H1754     1.0  0.97774  0.17557  0.25518  1.0000
  H   H1755     1.0  0.97210  0.25279  0.21151  1.0000
  H   H1756     1.0  0.93928  0.23199  0.21929  1.0000
  C   C2200     1.0  0.91108  0.15253  0.29749  1.0000
  C   C2201     1.0  0.86206  0.10843  0.40558  1.0000
  C   C2202     1.0  0.83524  0.08892  0.29962  1.0000
  H   H1757     1.0  0.85547  0.14043  0.38450  1.0000
  C   C2203     1.0  0.79721  0.19335  0.35992  1.0000
  H   H1758     1.0  0.79296  0.32353  0.20958  1.0000
  P   P74       1.0  0.82669  0.31680  0.13079  1.0000
  H   H1759     1.0  0.97321  0.26275  0.26161  1.0000
  H   H1760     1.0  0.89226  0.13066  0.35146  1.0000
  H   H1761     1.0  0.92619  0.15767  0.28704  1.0000
  H   H1762     1.0  0.81994  0.39275  0.34295  1.0000
  C   C2204     1.0  0.85550  0.08896  0.36909  1.0000
  C   C2205     1.0  0.87196  0.14777  0.30128  1.0000
  C   C2206     1.0  0.86387  0.33954  0.12623  1.0000
  H   H1763     1.0  0.89153  0.16115  0.27019  1.0000
  H   H1764     1.0  0.88254  0.26008  0.09409  1.0000
  C   C2207     1.0  0.77111  0.29845  0.17406  1.0000
  H   H1765     1.0  0.77376  0.46155  0.33075  1.0000
  Fe  Fe150     1.0  0.76480  0.38467  0.21321  1.0000
  C   C2208     1.0  0.75559  0.36338  0.16899  1.0000
  C   C2209     1.0  0.87420  0.26542  0.10994  1.0000
  H   H1766     1.0  0.80450  0.07678  0.29804  1.0000
  H   H1767     1.0  0.77896  0.13146  0.14368  1.0000
  C   C2210     1.0  0.80706  0.40026  0.33258  1.0000
  H   H1768     1.0  0.78572  0.29483  0.13990  1.0000
  C   C2211     1.0  0.89169  0.13728  0.33381  1.0000
  C   C2212     1.0  0.84051  0.34056  0.13226  1.0000
  H   H1769     1.0  0.75224  0.22835  0.32653  1.0000
  C   C2213     1.0  0.85683  0.12224  0.38563  1.0000
  C   C2214     1.0  0.80850  0.30426  0.09652  1.0000
  C   C2215     1.0  0.76264  0.26200  0.24484  1.0000
  C   C2216     1.0  0.79981  0.09942  0.32268  1.0000
  C   C2217     1.0  0.80991  0.11336  0.33274  1.0000
  H   H1770     1.0  0.86331  0.10314  0.30497  1.0000
  C   C2218     1.0  0.81182  0.40123  0.30908  1.0000
  H   H1771     1.0  0.82227  0.32728  0.17684  1.0000
  C   C2219     1.0  0.78755  0.30114  0.15500  1.0000
  H   H1772     1.0  0.79927  0.41242  0.27736  1.0000
  H   H1773     1.0  0.75674  0.21460  0.13542  1.0000
  H   H1774     1.0  0.76857  0.15711  0.20189  1.0000
  C   C2220     1.0  0.81246  0.08721  0.30616  1.0000
  H   H1775     1.0  0.81145  0.22950  0.41732  1.0000
  H   H1776     1.0  0.76434  0.25278  0.34920  1.0000
  C   C2221     1.0  0.99515  0.20420  0.24125  1.0000
  H   H1777     1.0  0.84484  0.07981  0.28641  1.0000
  C   C2222     1.0  0.78472  0.26355  0.23387  1.0000
  C   C2223     1.0  0.79689  0.27921  0.23874  1.0000
  C   C2224     1.0  0.78692  0.29408  0.25395  1.0000
  H   H1778     1.0  0.87396  0.32473  0.12020  1.0000
  H   H1779     1.0  0.87060  0.24839  0.16665  1.0000
  H   H1780     1.0  0.90776  0.33197  0.21711  1.0000
  H   H1781     1.0  0.91900  0.31031  0.28648  1.0000
  H   H1782     1.0  0.91204  0.27067  0.18197  1.0000
  C   C2225     1.0  0.77281  0.30695  0.19359  1.0000
  H   H1783     1.0  0.87509  0.35882  0.22990  1.0000
  C   C2226     1.0  0.79967  0.19383  0.19734  1.0000
  H   H1784     1.0  0.79268  0.25292  0.22134  1.0000
  H   H1785     1.0  0.81394  0.28015  0.23027  1.0000
  C   C2227     1.0  0.98640  0.29794  0.23372  1.0000
  C   C2228     1.0  0.87454  0.35760  0.12835  1.0000
  H   H1786     1.0  0.92645  0.14243  0.32769  1.0000
  H   H1787     1.0  0.89006  0.23646  0.13054  1.0000
  H   H1788     1.0  0.86420  0.36187  0.27058  1.0000
  H   H1789     1.0  0.81640  0.18565  0.22651  1.0000
  C   C2229     1.0  0.77961  0.23249  0.29920  1.0000
  C   C2230     1.0  0.95656  0.25820  0.26690  1.0000
  C   C2231     1.0  0.76481  0.29322  0.26441  1.0000
  H   H1790     1.0  0.82889  0.39261  0.14913  1.0000
  H   H1791     1.0  0.93643  0.29054  0.15051  1.0000
  H   H1792     1.0  0.98687  0.34642  0.26757  1.0000
  C   C2232     1.0  0.86399  0.08492  0.40731  1.0000
  C   C2233     1.0  0.81298  0.19511  0.34031  1.0000
  C   C2234     1.0  0.80555  0.34460  0.09629  1.0000
  C   C2235     1.0  0.79418  0.34861  0.07750  1.0000
  H   H1793     1.0  0.81305  0.21089  0.32887  1.0000
  P   P75       1.0  0.84657  0.13054  0.34159  1.0000
  H   H1794     1.0  0.80834  0.35889  0.10335  1.0000
  H   H1795     1.0  0.93210  0.21307  0.29554  1.0000
  C   C2236     1.0  0.93747  0.27254  0.26025  1.0000
  C   C2237     1.0  0.79010  0.33046  0.06815  1.0000
  C   C2238     1.0  0.82811  0.17623  0.33481  1.0000
  C   C2239     1.0  0.85339  0.11260  0.36728  1.0000
  C   C2240     1.0  0.86198  0.37677  0.13651  1.0000
  H   H1796     1.0  0.75980  0.30575  0.20809  1.0000
  P   P76       1.0  0.93994  0.29924  0.24190  1.0000
  C   C2241     1.0  0.84714  0.29163  0.13052  1.0000
  C   C2242     1.0  0.85202  0.27852  0.15100  1.0000
  C   C2243     1.0  0.87188  0.13912  0.32435  1.0000
  C   C2244     1.0  0.79640  0.17256  0.37396  1.0000
  H   H1797     1.0  0.87026  0.39062  0.13847  1.0000
  S   S306      1.0  0.77281  0.38060  0.17625  1.0000
  H   H1798     1.0  0.84369  0.28317  0.16715  1.0000
  C   C2245     1.0  0.80176  0.19484  0.21962  1.0000
  H   H1799     1.0  0.78933  0.19804  0.11026  1.0000
  H   H1800     1.0  0.78527  0.05099  0.18887  1.0000
  H   H1801     1.0  0.78500  0.20782  0.36385  1.0000
  C   C2246     1.0  0.75460  0.49449  0.32633  1.0000
  C   C2247     1.0  0.79547  0.41149  0.29562  1.0000
  C   C2248     1.0  0.92371  0.28069  0.18558  1.0000
  C   C2249     1.0  0.98670  0.33286  0.25813  1.0000
  C   C2250     1.0  0.91631  0.26539  0.26719  1.0000
  Fe  Fe151     1.0  0.74915  0.41668  0.24781  1.0000
  H   H1802     1.0  0.75606  0.19488  0.26690  1.0000
  C   C2251     1.0  0.87859  0.25220  0.13041  1.0000
  C   C2252     1.0  0.79138  0.31719  0.19442  1.0000
  C   C2253     1.0  0.82805  0.36001  0.14022  1.0000
  H   H1803     1.0  0.86800  0.07423  0.42279  1.0000
  C   C2254     1.0  0.84552  0.10253  0.30990  1.0000
  H   H1804     1.0  0.88617  0.33775  0.29883  1.0000
  H   H1805     1.0  0.80054  0.15644  0.11474  1.0000
  C   C2255     1.0  0.79738  0.30831  0.07761  1.0000
  H   H1806     1.0  0.75671  0.29045  0.17343  1.0000
  C   C2256     1.0  0.75368  0.09817  0.16538  1.0000
  H   H1807     1.0  0.79620  0.30654  0.25733  1.0000
  H   H1808     1.0  0.81002  0.13746  0.37919  1.0000
  C   C2257     1.0  0.89113  0.33644  0.28104  1.0000
  H   H1809     1.0  0.82817  0.39410  0.30119  1.0000
  C   C2258     1.0  0.80795  0.31954  0.17563  1.0000
  H   H1810     1.0  0.91396  0.27361  0.22140  1.0000
  H   H1811     1.0  0.96222  0.31461  0.15880  1.0000
  H   H1812     1.0  0.78840  0.36580  0.07033  1.0000
  C   C2259     1.0  0.93730  0.29209  0.16786  1.0000
  H   H1813     1.0  0.86224  0.05697  0.39040  1.0000
  H   H1814     1.0  0.79971  0.12262  0.34549  1.0000
  H   H1815     1.0  0.81349  0.28695  0.10397  1.0000
  C   C2260     1.0  0.77418  0.25013  0.33298  1.0000
  H   H1816     1.0  0.78348  0.17106  0.38863  1.0000
  C   C2261     1.0  0.95178  0.30563  0.17254  1.0000
  C   C2262     1.0  0.80573  0.31242  0.15544  1.0000
  S   S307      1.0  0.76985  0.35439  0.23965  1.0000
  C   C2263     1.0  0.85869  0.28522  0.10996  1.0000
  H   H1817     1.0  0.85689  0.14947  0.29358  1.0000
  C   C2264     1.0  0.78166  0.20687  0.18776  1.0000
  C   C2265     1.0  0.90965  0.32098  0.27398  1.0000
  C   C2266     1.0  0.96627  0.32644  0.25607  1.0000
  C   C2267     1.0  0.95268  0.30774  0.19496  1.0000
  H   H1818     1.0  0.96949  0.22568  0.28399  1.0000
  C   C2268     1.0  0.93949  0.29584  0.21294  1.0000
  H   H1819     1.0  0.76273  0.24927  0.47944  1.0000
  H   H1820     1.0  0.89813  0.23864  0.28528  1.0000
  C   C2269     1.0  0.91610  0.31935  0.25086  1.0000
  C   C2270     1.0  0.89149  0.15445  0.28796  1.0000
  H   H1821     1.0  0.85308  0.08107  0.35517  1.0000
  H   H1822     1.0  0.87907  0.23019  0.32845  1.0000
  C   C2271     1.0  0.90354  0.33316  0.23499  1.0000
  C   C2272     1.0  0.78572  0.20858  0.23254  1.0000
  C   C2273     1.0  0.86075  0.07520  0.38906  1.0000
  H   H1823     1.0  0.89259  0.35659  0.12395  1.0000
  C   C2274     1.0  0.83873  0.37796  0.14243  1.0000
  C   C2275     1.0  0.86764  0.25889  0.15086  1.0000
  H   H1824     1.0  0.81009  0.36111  0.14530  1.0000
  C   C2276     1.0  0.96598  0.30871  0.24402  1.0000
  C   C2277     1.0  0.95454  0.23698  0.27983  1.0000
  S   S308      1.0  0.75254  0.38883  0.27743  1.0000
  Fe  Fe152     1.0  0.75779  0.26114  0.10886  1.0000
  C   C2278     1.0  0.93350  0.22989  0.28634  1.0000
  H   H1825     1.0  0.90131  0.27594  0.26210  1.0000
  C   C2279     1.0  0.79868  0.24290  0.29078  1.0000
  C   C2280     1.0  0.80576  0.25668  0.30355  1.0000
  C   C2281     1.0  0.79405  0.25966  0.32515  1.0000
  C   C2282     1.0  0.78041  0.25234  0.41789  1.0000
  P   P77       1.0  0.80438  0.27601  0.34225  1.0000
  C   C2283     1.0  0.79519  0.26650  0.37187  1.0000
  C   C2284     1.0  0.83474  0.27202  0.33626  1.0000
  C   C2285     1.0  0.84662  0.25027  0.33458  1.0000
  C   C2286     1.0  0.87005  0.24703  0.32971  1.0000
  C   C2287     1.0  0.88182  0.26548  0.32632  1.0000
  C   C2288     1.0  0.87014  0.28720  0.32764  1.0000
  C   C2289     1.0  0.84670  0.29051  0.33255  1.0000
  C   C2290     1.0  0.92484  0.28246  0.20803  1.0000
  C   C2291     1.0  0.80116  0.24260  0.40755  1.0000
  C   C2292     1.0  0.80857  0.24964  0.38463  1.0000
  C   C2293     1.0  0.79339  0.30547  0.33558  1.0000
  C   C2294     1.0  0.78486  0.31358  0.31523  1.0000
  C   C2295     1.0  0.77660  0.33644  0.31005  1.0000
  C   C2296     1.0  0.77691  0.35145  0.32502  1.0000
  C   C2297     1.0  0.78538  0.34351  0.34535  1.0000
  C   C2298     1.0  0.79361  0.32057  0.35066  1.0000
  C   C2299     1.0  0.76139  0.19642  0.13722  1.0000
  C   C2300     1.0  0.76710  0.23643  0.32007  1.0000
  H   H1826     1.0  0.80826  0.23985  0.27453  1.0000
  H   H1827     1.0  0.82060  0.26461  0.29668  1.0000
  C   C2301     1.0  0.91118  0.14396  0.32039  1.0000
  H   H1828     1.0  0.83776  0.23581  0.33697  1.0000
  H   H1829     1.0  0.89999  0.26298  0.32253  1.0000
  H   H1830     1.0  0.87926  0.30151  0.32479  1.0000
  H   H1831     1.0  0.83807  0.30754  0.33316  1.0000
  C   C2302     1.0  0.76711  0.22127  0.22334  1.0000
  H   H1832     1.0  0.82465  0.24179  0.37707  1.0000
  H   H1833     1.0  0.78466  0.30243  0.30323  1.0000
  C   C2303     1.0  0.77591  0.08205  0.20287  1.0000
  C   C2304     1.0  0.76558  0.22069  0.20052  1.0000
  H   H1834     1.0  0.78574  0.35515  0.35687  1.0000
  H   H1835     1.0  0.80025  0.31461  0.36642  1.0000
  C   C2305     1.0  0.82749  0.15527  0.34884  1.0000
  C   C2306     1.0  0.77372  0.14952  0.14206  1.0000
  H   H1836     1.0  0.78113  0.33350  0.05374  1.0000
  C   C2307     1.0  0.88500  0.34850  0.24214  1.0000
  H   H1837     1.0  0.98660  0.28431  0.22427  1.0000
  C   C2308     1.0  0.78603  0.16363  0.12554  1.0000
  H   H1838     1.0  0.76108  0.15600  0.33420  1.0000
  C   C2309     1.0  0.83287  0.11505  0.32640  1.0000
  Fe  Fe153     1.0  0.75876  0.09061  0.27284  1.0000
  H   H1839     1.0  0.77029  0.34252  0.29416  1.0000
  H   H1840     1.0  0.75689  0.30508  0.27586  1.0000
  C   C2310     1.0  0.76028  0.35592  0.14778  1.0000
  H   H1841     1.0  0.76327  0.16816  0.23980  1.0000
  H   H1842     1.0  0.74989  0.33675  0.12548  1.0000
  H   H1843     1.0  0.77080  0.36923  0.32067  1.0000
  H   H1844     1.0  0.77465  0.24678  0.43560  1.0000
  C   C2311     1.0  0.75324  0.11239  0.18148  1.0000
  H   H1845     1.0  0.77485  0.22107  0.28968  1.0000
  C   C2312     1.0  0.75517  0.15884  0.15641  1.0000
  H   H1846     1.0  0.74913  0.38437  0.36890  1.0000
  H   H1847     1.0  0.78078  0.20696  0.17011  1.0000
  C   C2313     1.0  0.77634  0.06806  0.18674  1.0000
  H   H1848     1.0  0.76563  0.06529  0.15545  1.0000
  H   H1849     1.0  0.78449  0.07590  0.21748  1.0000
  H   H1850     1.0  0.76326  0.28847  0.37274  1.0000
  C   C2314     1.0  0.99352  0.22615  0.22925  1.0000
  C   C2315     1.0  0.77416  0.42024  0.30563  1.0000
  C   C2316     1.0  0.76525  0.07613  0.16798  1.0000
  H   H1851     1.0  0.75257  0.23139  0.19207  1.0000
  C   C2317     1.0  0.75701  0.47090  0.33123  1.0000
  C   C2318     1.0  0.74934  0.18243  0.15407  1.0000
  C   C2319     1.0  0.75193  0.15852  0.21170  1.0000
  H   H1852     1.0  0.75060  0.27626  0.41310  1.0000
  S   S309      1.0  0.75459  0.06843  0.30662  1.0000
  H   H1853     1.0  0.75104  0.39703  0.00683  1.0000
  C   C2320     1.0  0.78573  0.40903  0.34266  1.0000
  H   H1854     1.0  0.78264  0.40861  0.36081  1.0000
  C   C2321     1.0  0.74875  0.47278  0.25805  1.0000
  H   H1855     1.0  0.76182  0.42838  0.29485  1.0000
  C   C2322     1.0  0.74894  0.16496  0.23318  1.0000
  C   C2323     1.0  0.76886  0.41841  0.32925  1.0000
  C   C2324     1.0  0.74802  0.24160  0.48740  1.0000
  P   P78       1.0  0.74745  0.24057  0.23960  1.0000
  H   H1856     1.0  0.88469  0.16866  0.63033  1.0000
  S   S310      1.0  0.78647  0.40284  0.78684  1.0000
  Fe  Fe154     1.0  0.85797  0.30632  0.72081  1.0000
  S   S311      1.0  0.88935  0.29562  0.69734  1.0000
  S   S312      1.0  0.83998  0.34204  0.71526  1.0000
  Fe  Fe155     1.0  0.85265  0.25814  0.74228  1.0000
  S   S313      1.0  0.88321  0.24343  0.72063  1.0000
  S   S314      1.0  0.82911  0.23873  0.76816  1.0000
  Fe  Fe156     1.0  0.89948  0.27162  0.72773  1.0000
  S   S315      1.0  0.93456  0.26026  0.73705  1.0000
  Fe  Fe157     1.0  0.87060  0.26859  0.69228  1.0000
  S   S316      1.0  0.87065  0.25778  0.65860  1.0000
  S   S317      1.0  0.86949  0.28461  0.75182  1.0000
  S   S318      1.0  0.83872  0.28086  0.71337  1.0000
  H   H1857     1.0  0.77579  0.47065  0.69163  1.0000
  H   H1858     1.0  0.75152  0.02984  0.71999  1.0000
  H   H1859     1.0  0.89434  0.43486  0.66192  1.0000
  H   H1860     1.0  0.84662  0.07189  0.90274  1.0000
  Fe  Fe158     1.0  0.78001  0.13261  0.76438  1.0000
  C   C2325     1.0  0.99665  0.23813  0.62015  1.0000
  S   S319      1.0  0.81304  0.14450  0.74907  1.0000
  H   H1861     1.0  0.87522  0.02395  0.85745  1.0000
  H   H1862     1.0  0.76741  0.27717  0.70222  1.0000
  P   P79       1.0  0.92339  0.29897  0.61888  1.0000
  H   H1863     1.0  0.87451  0.26720  0.57940  1.0000
  S   S320      1.0  0.77155  0.11151  0.79810  1.0000
  H   H1864     1.0  0.80823  0.44192  0.76247  1.0000
  C   C2326     1.0  0.91907  0.25326  0.62016  1.0000
  H   H1865     1.0  0.92664  0.33216  0.64733  1.0000
  C   C2327     1.0  0.85863  0.43431  0.67021  1.0000
  C   C2328     1.0  0.93487  0.31486  0.59259  1.0000
  C   C2329     1.0  0.95641  0.27730  0.72977  1.0000
  C   C2330     1.0  0.97786  0.26827  0.73534  1.0000
  Fe  Fe159     1.0  0.75421  0.09228  0.77948  1.0000
  C   C2331     1.0  0.80042  0.46576  0.61892  1.0000
  C   C2332     1.0  0.97067  0.31249  0.71298  1.0000
  C   C2333     1.0  0.95294  0.29943  0.71836  1.0000
  C   C2334     1.0  0.79764  0.35560  0.90792  1.0000
  H   H1866     1.0  0.90618  0.21523  0.67304  1.0000
  H   H1867     1.0  0.96778  0.32969  0.70441  1.0000
  H   H1868     1.0  0.93656  0.30655  0.71387  1.0000
  C   C2335     1.0  0.84513  0.26599  0.64758  1.0000
  C   C2336     1.0  0.83040  0.28493  0.65369  1.0000
  C   C2337     1.0  0.81040  0.29170  0.64436  1.0000
  C   C2338     1.0  0.80465  0.27917  0.62939  1.0000
  C   C2339     1.0  0.81916  0.25993  0.62358  1.0000
  C   C2340     1.0  0.83953  0.25358  0.63238  1.0000
  H   H1869     1.0  0.83463  0.29463  0.66528  1.0000
  H   H1870     1.0  0.79928  0.30665  0.64877  1.0000
  H   H1871     1.0  0.81485  0.25024  0.61199  1.0000
  H   H1872     1.0  0.85073  0.23882  0.62772  1.0000
  C   C2341     1.0  0.82226  0.21437  0.76065  1.0000
  C   C2342     1.0  0.80584  0.20287  0.77491  1.0000
  C   C2343     1.0  0.80210  0.18183  0.77082  1.0000
  C   C2344     1.0  0.81504  0.17212  0.75268  1.0000
  C   C2345     1.0  0.83070  0.18410  0.73787  1.0000
  C   C2346     1.0  0.83414  0.20533  0.74165  1.0000
  H   H1873     1.0  0.79626  0.21005  0.78934  1.0000
  H   H1874     1.0  0.78968  0.17283  0.78202  1.0000
  H   H1875     1.0  0.84039  0.17682  0.72364  1.0000
  H   H1876     1.0  0.84665  0.21420  0.73043  1.0000
  C   C2347     1.0  0.79989  0.38339  0.76869  1.0000
  C   C2348     1.0  0.79154  0.38289  0.74882  1.0000
  C   C2349     1.0  0.80356  0.36928  0.73313  1.0000
  C   C2350     1.0  0.82358  0.35537  0.73743  1.0000
  C   C2351     1.0  0.83146  0.35495  0.75785  1.0000
  C   C2352     1.0  0.81975  0.36922  0.77335  1.0000
  C   C2353     1.0  0.80939  0.45461  0.65719  1.0000
  H   H1877     1.0  0.79766  0.37021  0.71722  1.0000
  H   H1878     1.0  0.84715  0.34464  0.76112  1.0000
  H   H1879     1.0  0.82635  0.36971  0.78866  1.0000
  C   C2354     1.0  0.76217  0.32930  0.73254  1.0000
  H   H1880     1.0  0.76884  0.25823  0.77731  1.0000
  C   C2355     1.0  0.76694  0.28274  0.79949  1.0000
  C   C2356     1.0  0.76360  0.27388  0.99301  1.0000
  C   C2357     1.0  0.78356  0.46466  0.70672  1.0000
  C   C2358     1.0  0.86151  0.04611  0.88217  1.0000
  H   H1881     1.0  0.85476  0.45052  0.65999  1.0000
  C   C2359     1.0  0.76577  0.29146  0.71104  1.0000
  H   H1882     1.0  0.80519  0.05700  0.75993  1.0000
  H   H1883     1.0  0.90428  0.39784  0.68544  1.0000
  H   H1884     1.0  0.81698  0.15903  0.70102  1.0000
  Fe  Fe160     1.0  0.75553  0.21454  0.61128  1.0000
  H   H1885     1.0  0.86664  0.03390  0.89632  1.0000
  H   H1886     1.0  0.77923  0.14712  0.66604  1.0000
  C   C2360     1.0  0.78253  0.30535  0.70559  1.0000
  C   C2361     1.0  0.80254  0.44932  0.63802  1.0000
  C   C2362     1.0  0.80058  0.35330  0.93062  1.0000
  C   C2363     1.0  0.75959  0.30582  0.87395  1.0000
  C   C2364     1.0  0.77532  0.30178  0.80314  1.0000
  C   C2365     1.0  0.77498  0.33953  0.82961  1.0000
  C   C2366     1.0  0.79774  0.33672  0.83200  1.0000
  C   C2367     1.0  0.80715  0.35465  0.83648  1.0000
  C   C2368     1.0  0.79373  0.37538  0.83900  1.0000
  H   H1887     1.0  0.76012  0.24200  0.98385  1.0000
  H   H1888     1.0  0.76961  0.24757  0.68268  1.0000
  C   C2369     1.0  0.79153  0.31141  0.78665  1.0000
  C   C2370     1.0  0.79961  0.30173  0.76699  1.0000
  C   C2371     1.0  0.79124  0.28274  0.76353  1.0000
  C   C2372     1.0  0.77507  0.27313  0.77985  1.0000
  H   H1889     1.0  0.77222  0.16811  0.57899  1.0000
  C   C2373     1.0  0.76619  0.29691  0.85358  1.0000
  C   C2374     1.0  0.77821  0.27498  0.85397  1.0000
  C   C2375     1.0  0.78299  0.26209  0.87451  1.0000
  C   C2376     1.0  0.77611  0.27104  0.89473  1.0000
  C   C2377     1.0  0.76454  0.29297  0.89440  1.0000
  H   H1890     1.0  0.75502  0.06932  0.66794  1.0000
  C   C2378     1.0  0.78295  0.34820  0.94788  1.0000
  H   H1891     1.0  0.94638  0.28527  0.57598  1.0000
  H   H1892     1.0  0.89090  0.29805  0.58917  1.0000
  S   S321      1.0  0.77992  0.23420  0.58708  1.0000
  H   H1893     1.0  0.80805  0.32057  0.83045  1.0000
  H   H1894     1.0  0.82486  0.35264  0.83765  1.0000
  H   H1895     1.0  0.80105  0.38957  0.84173  1.0000
  H   H1896     1.0  0.78075  0.20999  0.73548  1.0000
  C   C2379     1.0  0.79393  0.37541  0.66930  1.0000
  H   H1897     1.0  0.79749  0.32670  0.78852  1.0000
  H   H1898     1.0  0.81208  0.30917  0.75421  1.0000
  H   H1899     1.0  0.79743  0.27533  0.74824  1.0000
  C   C2380     1.0  0.91202  0.27594  0.61155  1.0000
  H   H1900     1.0  0.76072  0.39444  0.83825  1.0000
  S   S322      1.0  0.77979  0.28872  0.61746  1.0000
  H   H1901     1.0  0.79199  0.24513  0.87475  1.0000
  H   H1902     1.0  0.77948  0.26093  0.91068  1.0000
  H   H1903     1.0  0.79505  0.46159  0.60420  1.0000
  H   H1904     1.0  0.78417  0.26782  0.83854  1.0000
  H   H1905     1.0  0.91487  0.21845  0.62148  1.0000
  P   P80       1.0  0.76254  0.31531  0.82728  1.0000
  H   H1906     1.0  0.85781  0.35760  0.66864  1.0000
  H   H1907     1.0  0.87326  0.30516  0.62716  1.0000
  C   C2381     1.0  0.87019  0.34655  0.65903  1.0000
  C   C2382     1.0  0.89178  0.20910  0.77406  1.0000
  C   C2383     1.0  0.88279  0.19214  0.76720  1.0000
  C   C2384     1.0  0.86502  0.18254  0.78109  1.0000
  C   C2385     1.0  0.85582  0.19029  0.80160  1.0000
  C   C2386     1.0  0.86441  0.20770  0.80835  1.0000
  C   C2387     1.0  0.88282  0.21666  0.79470  1.0000
  P   P81       1.0  0.85439  0.21595  0.83588  1.0000
  C   C2388     1.0  0.82592  0.21050  0.84567  1.0000
  C   C2389     1.0  0.87417  0.19947  0.85339  1.0000
  C   C2390     1.0  0.89171  0.20911  0.85846  1.0000
  C   C2391     1.0  0.90775  0.19585  0.87092  1.0000
  C   C2392     1.0  0.90665  0.17282  0.87803  1.0000
  C   C2393     1.0  0.88964  0.16296  0.87247  1.0000
  C   C2394     1.0  0.87358  0.17618  0.85999  1.0000
  C   C2395     1.0  0.80932  0.21963  0.83196  1.0000
  C   C2396     1.0  0.78690  0.21688  0.83973  1.0000
  C   C2397     1.0  0.78089  0.20490  0.86118  1.0000
  C   C2398     1.0  0.79725  0.19594  0.87505  1.0000
  C   C2399     1.0  0.81966  0.19900  0.86749  1.0000
  C   C2400     1.0  0.85284  0.24603  0.83527  1.0000
  C   C2401     1.0  0.85216  0.25469  0.85543  1.0000
  C   C2402     1.0  0.85077  0.27800  0.85516  1.0000
  C   C2403     1.0  0.84961  0.29281  0.83484  1.0000
  C   C2404     1.0  0.84918  0.28441  0.81491  1.0000
  C   C2405     1.0  0.85068  0.26111  0.81512  1.0000
  H   H1908     1.0  0.90552  0.21667  0.76328  1.0000
  H   H1909     1.0  0.88932  0.18670  0.75095  1.0000
  H   H1910     1.0  0.85791  0.16955  0.77564  1.0000
  H   H1911     1.0  0.84185  0.18291  0.81196  1.0000
  H   H1912     1.0  0.89016  0.22966  0.79984  1.0000
  H   H1913     1.0  0.89335  0.22673  0.85242  1.0000
  H   H1914     1.0  0.92124  0.20340  0.87481  1.0000
  H   H1915     1.0  0.91917  0.16256  0.88759  1.0000
  H   H1916     1.0  0.88902  0.14502  0.87766  1.0000
  H   H1917     1.0  0.86080  0.16822  0.85533  1.0000
  H   H1918     1.0  0.81363  0.22930  0.81543  1.0000
  H   H1919     1.0  0.77409  0.22443  0.82927  1.0000
  H   H1920     1.0  0.76345  0.20301  0.86726  1.0000
  H   H1921     1.0  0.79239  0.18708  0.89186  1.0000
  H   H1922     1.0  0.83181  0.19283  0.87894  1.0000
  H   H1923     1.0  0.85277  0.24343  0.87134  1.0000
  H   H1924     1.0  0.85057  0.28458  0.87070  1.0000
  H   H1925     1.0  0.84883  0.31083  0.83453  1.0000
  H   H1926     1.0  0.84769  0.29592  0.79923  1.0000
  H   H1927     1.0  0.85005  0.25500  0.79954  1.0000
  C   C2406     1.0  0.89399  0.24086  0.59948  1.0000
  H   H1928     1.0  0.92575  0.34776  0.60368  1.0000
  C   C2407     1.0  0.97732  0.27656  0.66605  1.0000
  H   H1929     1.0  0.80454  0.12163  0.71170  1.0000
  H   H1930     1.0  0.81659  0.35527  0.93485  1.0000
  H   H1931     1.0  0.84821  0.14109  0.63587  1.0000
  H   H1932     1.0  0.89489  0.17528  0.58873  1.0000
  C   C2408     1.0  0.89304  0.34661  0.65896  1.0000
  C   C2409     1.0  0.82309  0.08356  0.76383  1.0000
  C   C2410     1.0  0.81264  0.06427  0.77148  1.0000
  C   C2411     1.0  0.81094  0.05481  0.79432  1.0000
  C   C2412     1.0  0.81949  0.06470  0.80957  1.0000
  C   C2413     1.0  0.83049  0.08378  0.80191  1.0000
  C   C2414     1.0  0.83187  0.09334  0.77901  1.0000
  P   P82       1.0  0.83972  0.09780  0.82184  1.0000
  C   C2415     1.0  0.81627  0.11835  0.83061  1.0000
  C   C2416     1.0  0.84783  0.07752  0.84557  1.0000
  C   C2417     1.0  0.84352  0.08325  0.86753  1.0000
  C   C2418     1.0  0.76399  0.21746  0.73232  1.0000
  H   H1933     1.0  0.76206  0.36295  0.67948  1.0000
  C   C2419     1.0  0.86632  0.04049  0.86028  1.0000
  C   C2420     1.0  0.85965  0.05618  0.84201  1.0000
  C   C2421     1.0  0.81530  0.14123  0.82094  1.0000
  C   C2422     1.0  0.79733  0.15708  0.82833  1.0000
  C   C2423     1.0  0.77976  0.15008  0.84461  1.0000
  C   C2424     1.0  0.78000  0.12720  0.85340  1.0000
  C   C2425     1.0  0.79818  0.11135  0.84645  1.0000
  C   C2426     1.0  0.86464  0.11069  0.81018  1.0000
  C   C2427     1.0  0.87969  0.10267  0.79209  1.0000
  C   C2428     1.0  0.89914  0.11252  0.78351  1.0000
  C   C2429     1.0  0.90396  0.13009  0.79322  1.0000
  C   C2430     1.0  0.88948  0.13762  0.81174  1.0000
  C   C2431     1.0  0.86995  0.12788  0.82029  1.0000
  H   H1934     1.0  0.82377  0.09140  0.74629  1.0000
  C   C2432     1.0  0.95595  0.27015  0.67258  1.0000
  H   H1935     1.0  0.76560  0.16230  0.84995  1.0000
  H   H1936     1.0  0.81700  0.05771  0.82735  1.0000
  H   H1937     1.0  0.83923  0.10871  0.77295  1.0000
  H   H1938     1.0  0.83505  0.09983  0.87062  1.0000
  C   C2433     1.0  0.95325  0.33900  0.55164  1.0000
  C   C2434     1.0  0.77526  0.47482  0.72610  1.0000
  C   C2435     1.0  0.75628  0.24010  0.73472  1.0000
  H   H1939     1.0  0.86368  0.05164  0.82511  1.0000
  H   H1940     1.0  0.82810  0.14680  0.80740  1.0000
  H   H1941     1.0  0.79663  0.17473  0.82098  1.0000
  H   H1942     1.0  0.76122  0.48839  0.72598  1.0000
  H   H1943     1.0  0.76574  0.12175  0.86515  1.0000
  H   H1944     1.0  0.79791  0.09361  0.85311  1.0000
  H   H1945     1.0  0.87654  0.08873  0.78466  1.0000
  H   H1946     1.0  0.91056  0.10642  0.76938  1.0000
  H   H1947     1.0  0.91900  0.13776  0.78651  1.0000
  H   H1948     1.0  0.89333  0.15116  0.81931  1.0000
  H   H1949     1.0  0.85899  0.13376  0.83476  1.0000
  H   H1950     1.0  0.78564  0.34589  0.96538  1.0000
  H   H1951     1.0  0.83949  0.22174  0.68191  1.0000
  H   H1952     1.0  0.77486  0.35402  0.88491  1.0000
  C   C2436     1.0  0.78441  0.46686  0.74606  1.0000
  C   C2437     1.0  0.78361  0.23444  0.67964  1.0000
  H   H1953     1.0  0.79550  0.18442  0.65957  1.0000
  C   C2438     1.0  0.94517  0.28894  0.63646  1.0000
  C   C2439     1.0  0.96680  0.29512  0.62987  1.0000
  C   C2440     1.0  0.76164  0.39464  0.69104  1.0000
  H   H1954     1.0  0.75393  0.29403  0.52791  1.0000
  C   C2441     1.0  0.81413  0.47655  0.65691  1.0000
  C   C2442     1.0  0.93985  0.27654  0.65800  1.0000
  C   C2443     1.0  0.94536  0.30346  0.57443  1.0000
  H   H1955     1.0  0.93116  0.24888  0.63181  1.0000
  H   H1956     1.0  0.97130  0.30510  0.61360  1.0000
  H   H1957     1.0  0.76360  0.21366  0.66861  1.0000
  C   C2444     1.0  0.78020  0.21539  0.67147  1.0000
  C   C2445     1.0  0.80515  0.48754  0.61879  1.0000
  H   H1958     1.0  0.92310  0.27210  0.66366  1.0000
  C   C2446     1.0  0.77162  0.37639  0.67983  1.0000
  S   S323      1.0  0.76116  0.24523  0.52759  1.0000
  H   H1959     1.0  0.88641  0.22747  0.59543  1.0000
  H   H1960     1.0  0.83510  0.10394  0.64663  1.0000
  C   C2447     1.0  0.88683  0.40461  0.68445  1.0000
  H   H1961     1.0  0.77634  0.39377  0.74501  1.0000
  H   H1962     1.0  0.86435  0.14959  0.69712  1.0000
  C   C2448     1.0  0.91000  0.23582  0.61418  1.0000
  H   H1963     1.0  0.81327  0.09395  0.68459  1.0000
  C   C2449     1.0  0.90226  0.31718  0.63484  1.0000
  C   C2450     1.0  0.88120  0.42546  0.67123  1.0000
  H   H1964     1.0  0.96233  0.30666  0.53999  1.0000
  H   H1965     1.0  0.87516  0.21205  0.65322  1.0000
  H   H1966     1.0  0.81814  0.20425  0.62347  1.0000
  C   C2451     1.0  0.93373  0.33847  0.59005  1.0000
  H   H1967     1.0  0.79686  0.30156  0.69291  1.0000
  C   C2452     1.0  0.75550  0.16600  0.57679  1.0000
  H   H1968     1.0  0.75762  0.18477  0.54300  1.0000
  C   C2453     1.0  0.94290  0.35046  0.56964  1.0000
  C   C2454     1.0  0.85020  0.06751  0.88578  1.0000
  H   H1969     1.0  0.98070  0.25116  0.74414  1.0000
  C   C2455     1.0  0.86329  0.33170  0.64730  1.0000
  C   C2456     1.0  0.75951  0.34764  0.91967  1.0000
  H   H1970     1.0  0.91674  0.18550  0.70467  1.0000
  H   H1971     1.0  0.89582  0.15254  0.71633  1.0000
  C   C2457     1.0  0.87920  0.31693  0.63540  1.0000
  C   C2458     1.0  0.80495  0.23635  0.68387  1.0000
  H   H1972     1.0  0.80214  0.04029  0.80031  1.0000
  C   C2459     1.0  0.77391  0.41191  0.69183  1.0000
  C   C2460     1.0  0.98277  0.28897  0.64467  1.0000
  C   C2461     1.0  0.75055  0.14977  0.69220  1.0000
  C   C2462     1.0  0.90901  0.33199  0.64697  1.0000
  H   H1973     1.0  0.76578  0.42582  0.70065  1.0000
  C   C2463     1.0  0.89640  0.28073  0.59625  1.0000
  H   H1974     1.0  0.75390  0.27551  0.81175  1.0000
  H   H1975     1.0  0.81129  0.35948  0.89453  1.0000
  C   C2464     1.0  0.80142  0.44668  0.70707  1.0000
  C   C2465     1.0  0.81007  0.43841  0.72743  1.0000
  P   P83       1.0  0.81214  0.43355  0.68200  1.0000
  C   C2466     1.0  0.79637  0.41101  0.68144  1.0000
  H   H1976     1.0  0.86695  0.19640  0.56459  1.0000
  C   C2467     1.0  0.80625  0.39270  0.66999  1.0000
  H   H1977     1.0  0.89834  0.35765  0.66860  1.0000
  H   H1978     1.0  0.95162  0.26077  0.68927  1.0000
  Fe  Fe161     1.0  0.76346  0.26332  0.60511  1.0000
  H   H1979     1.0  0.76077  0.34410  0.74076  1.0000
  C   C2468     1.0  0.84150  0.42230  0.68241  1.0000
  C   C2469     1.0  0.84740  0.40135  0.69549  1.0000
  C   C2470     1.0  0.86989  0.39254  0.69655  1.0000
  H   H1980     1.0  0.75037  0.33164  0.53998  1.0000
  H   H1981     1.0  0.82301  0.42391  0.72871  1.0000
  H   H1982     1.0  0.79875  0.43259  0.63773  1.0000
  H   H1983     1.0  0.82348  0.39169  0.66169  1.0000
  H   H1984     1.0  0.94189  0.36869  0.56775  1.0000
  H   H1985     1.0  0.96967  0.24791  0.60020  1.0000
  H   H1986     1.0  0.82874  0.21087  0.58228  1.0000
  H   H1987     1.0  0.96022  0.34835  0.53580  1.0000
  H   H1988     1.0  0.83453  0.39192  0.70512  1.0000
  H   H1989     1.0  0.87407  0.37637  0.70692  1.0000
  C   C2471     1.0  0.81409  0.12585  0.69515  1.0000
  C   C2472     1.0  0.81906  0.11030  0.67989  1.0000
  C   C2473     1.0  0.83139  0.11593  0.65855  1.0000
  C   C2474     1.0  0.83881  0.13707  0.65251  1.0000
  C   C2475     1.0  0.83374  0.15282  0.66778  1.0000
  C   C2476     1.0  0.82128  0.14705  0.68910  1.0000
  P   P84       1.0  0.84315  0.18020  0.66055  1.0000
  C   C2477     1.0  0.86727  0.18082  0.67384  1.0000
  C   C2478     1.0  0.85079  0.18624  0.63017  1.0000
  C   C2479     1.0  0.87244  0.17815  0.62003  1.0000
  C   C2480     1.0  0.87826  0.18180  0.59646  1.0000
  C   C2481     1.0  0.86255  0.19365  0.58285  1.0000
  C   C2482     1.0  0.84101  0.20181  0.59280  1.0000
  C   C2483     1.0  0.83507  0.19804  0.61633  1.0000
  C   C2484     1.0  0.87970  0.19888  0.66684  1.0000
  C   C2485     1.0  0.89742  0.20060  0.67795  1.0000
  C   C2486     1.0  0.90324  0.18394  0.69582  1.0000
  C   C2487     1.0  0.89143  0.16543  0.70241  1.0000
  C   C2488     1.0  0.87356  0.16379  0.69140  1.0000
  C   C2489     1.0  0.81993  0.20095  0.66962  1.0000
  C   C2490     1.0  0.82310  0.21961  0.67895  1.0000
  H   H1990     1.0  0.80762  0.25105  0.69039  1.0000
  H   H1991     1.0  0.80170  0.36113  0.66079  1.0000
  H   H1992     1.0  0.84555  0.33133  0.64780  1.0000
  C   C2491     1.0  0.79826  0.19874  0.66653  1.0000
  C   C2492     1.0  0.88725  0.26329  0.59046  1.0000
  C   C2493     1.0  0.77714  0.35264  0.90246  1.0000
  C   C2494     1.0  0.78079  0.32418  0.71638  1.0000
  C   C2495     1.0  0.77095  0.37815  0.83703  1.0000
  Fe  Fe162     1.0  0.75204  0.24366  0.56575  1.0000
  H   H1993     1.0  0.79398  0.33468  0.71213  1.0000
  C   C2496     1.0  0.76213  0.34579  0.94250  1.0000
  S   S324      1.0  0.76597  0.11091  0.74532  1.0000
  H   H1994     1.0  0.75243  0.38047  0.97206  1.0000
  H   H1995     1.0  0.76713  0.24976  0.74020  1.0000
  C   C2497     1.0  0.75851  0.29742  0.98833  1.0000
  C   C2498     1.0  0.75027  0.20454  0.72539  1.0000
  H   H1996     1.0  0.77768  0.47439  0.76119  1.0000
  S   S325      1.0  0.76821  0.17994  0.62823  1.0000
  C   C2499     1.0  0.76245  0.15567  0.67062  1.0000
  C   C2500     1.0  0.75047  0.00249  0.74791  1.0000
  H   H1997     1.0  0.75069  0.32284  0.87398  1.0000
  C   C2501     1.0  0.76163  0.36039  0.83209  1.0000
  C   C2502     1.0  0.75669  0.26027  0.97996  1.0000
  H   H1998     1.0  0.76445  0.30762  0.99837  1.0000
  H   H1999     1.0  0.74860  0.14763  0.61012  1.0000
  C   C2503     1.0  0.95446  0.31551  0.55403  1.0000
  C   C2504     1.0  0.75320  0.01244  0.78425  1.0000
  C   C2505     1.0  0.80171  0.44861  0.74673  1.0000
  H   H2000     1.0  0.75900  0.29997  0.90999  1.0000
  Fe  Fe163     1.0  0.75090  0.41690  0.78123  1.0000
  H   H2001     1.0  0.75381  0.05886  0.74370  1.0000
  C   C2506     1.0  0.99203  0.30361  0.71888  1.0000
  C   C2507     1.0  0.74726  0.17542  0.55658  1.0000
  H   H2002     1.0  0.81953  0.48095  0.67150  1.0000
  C   C2508     1.0  0.81202  0.49293  0.63778  1.0000
  H   H2003     1.0  0.75637  0.18709  0.72318  1.0000
  C   C2509     1.0  0.75388  0.03511  0.77454  1.0000
  S   S326      1.0  0.74911  0.15805  0.76865  1.0000
  H   H2004     1.0  0.75406  0.00736  0.80211  1.0000
  S   S327      1.0  0.75523  0.05490  0.79220  1.0000
  H   H2005     1.0  0.75821  0.13670  0.70406  1.0000
  C   C2510     1.0  0.98666  0.24986  0.60161  1.0000
  H   H2006     1.0  0.98944  0.27235  0.67782  1.0000
  H   H2007     1.0  0.98731  0.22729  0.63323  1.0000
  H   H2008     1.0  0.99064  0.27379  0.57095  1.0000
  H   H2009     1.0  0.75068  0.10915  0.67458  1.0000
  C   C2511     1.0  0.99562  0.28133  0.72991  1.0000
  C   C2512     1.0  0.75282  0.17272  0.65502  1.0000
  C   C2513     1.0  0.75184  0.02504  0.73797  1.0000
  C   C2514     1.0  0.75323  0.04143  0.75132  1.0000
  Fe  Fe164     1.0  0.78281  0.60886  0.25975  1.0000
  S   S328      1.0  0.79645  0.58228  0.28637  1.0000
  S   S329      1.0  0.80309  0.63080  0.23248  1.0000
  C   C2515     1.0  0.75282  0.79660  0.00258  1.0000
  H   H2010     1.0  0.81654  0.96965  0.27623  1.0000
  Fe  Fe165     1.0  0.76799  0.59720  0.31045  1.0000
  S   S330      1.0  0.77495  0.60326  0.34408  1.0000
  Fe  Fe166     1.0  0.77196  0.56136  0.27950  1.0000
  H   H2011     1.0  0.87174  0.84583  0.45968  1.0000
  C   C2516     1.0  0.84292  0.86392  0.47801  1.0000
  Fe  Fe167     1.0  0.77538  0.73984  0.42057  1.0000
  H   H2012     1.0  0.83721  0.73629  0.44086  1.0000
  S   S331      1.0  0.76243  0.74922  0.45558  1.0000
  Fe  Fe168     1.0  0.81197  0.72033  0.38590  1.0000
  S   S332      1.0  0.79154  0.73143  0.35763  1.0000
  S   S333      1.0  0.84693  0.70220  0.37764  1.0000
  Fe  Fe169     1.0  0.78216  0.76396  0.37182  1.0000
  S   S334      1.0  0.78531  0.79670  0.34794  1.0000
  Fe  Fe170     1.0  0.76341  0.71887  0.38284  1.0000
  H   H2013     1.0  0.85062  0.81758  0.45159  1.0000
  S   S335      1.0  0.80486  0.75385  0.39835  1.0000
  S   S336      1.0  0.78448  0.70506  0.41045  1.0000
  Fe  Fe171     1.0  0.91685  0.66220  0.23520  1.0000
  S   S337      1.0  0.89445  0.69396  0.22476  1.0000
  S   S338      1.0  0.90613  0.62777  0.23900  1.0000
  Fe  Fe172     1.0  0.95364  0.68753  0.24183  1.0000
  S   S339      1.0  0.93424  0.72151  0.23148  1.0000
  Fe  Fe173     1.0  0.90461  0.70721  0.25295  1.0000
  S   S340      1.0  0.87760  0.72913  0.27265  1.0000
  Fe  Fe174     1.0  0.92544  0.70560  0.20397  1.0000
  S   S341      1.0  0.92322  0.72587  0.16922  1.0000
  S   S342      1.0  0.92448  0.67444  0.26550  1.0000
  S   S343      1.0  0.94759  0.67260  0.21227  1.0000
  C   C2517     1.0  0.84915  0.75687  0.48540  1.0000
  H   H2014     1.0  0.98613  0.72566  0.22971  1.0000
  Fe  Fe175     1.0  0.80084  0.76964  0.06851  1.0000
  S   S344      1.0  0.79976  0.73450  0.08763  1.0000
  S   S345      1.0  0.81491  0.78106  0.03196  1.0000
  Fe  Fe176     1.0  0.77717  0.79192  0.10888  1.0000
  S   S346      1.0  0.77360  0.75904  0.13157  1.0000
  H   H2015     1.0  0.77230  0.87874  0.35563  1.0000
  Fe  Fe177     1.0  0.80917  0.74805  0.11645  1.0000
  S   S347      1.0  0.82841  0.72351  0.14123  1.0000
  H   H2016     1.0  0.79041  0.99196  0.30299  1.0000
  C   C2518     1.0  0.76908  0.68792  0.21686  1.0000
  S   S348      1.0  0.81365  0.78220  0.09615  1.0000
  C   C2519     1.0  0.80955  0.59752  0.18562  1.0000
  H   H2017     1.0  0.92858  0.63435  0.34820  1.0000
  C   C2520     1.0  0.82282  0.76871  0.45061  1.0000
  P   P85       1.0  0.85860  0.62026  0.32536  1.0000
  C   C2521     1.0  0.75127  0.71368  0.24331  1.0000
  H   H2018     1.0  0.77244  0.79363  0.44143  1.0000
  C   C2522     1.0  0.82705  0.56427  0.33448  1.0000
  C   C2523     1.0  0.80513  0.96127  0.28948  1.0000
  C   C2524     1.0  0.77115  0.81752  0.18376  1.0000
  C   C2525     1.0  0.77144  0.81346  0.16159  1.0000
  C   C2526     1.0  0.77156  0.83473  0.02967  1.0000
  C   C2527     1.0  0.81991  0.86510  0.48582  1.0000
  C   C2528     1.0  0.77964  0.90736  0.24076  1.0000
  H   H2019     1.0  0.77887  0.80458  0.19580  1.0000
  H   H2020     1.0  0.77947  0.79746  0.15654  1.0000
  C   C2529     1.0  0.74895  0.51073  0.26654  1.0000
  C   C2530     1.0  0.89727  0.72533  0.16041  1.0000
  C   C2531     1.0  0.88587  0.70671  0.16824  1.0000
  C   C2532     1.0  0.86490  0.70650  0.16199  1.0000
  C   C2533     1.0  0.85510  0.72484  0.14774  1.0000
  C   C2534     1.0  0.86661  0.74339  0.13942  1.0000
  C   C2535     1.0  0.88777  0.74356  0.14568  1.0000
  H   H2021     1.0  0.89341  0.69218  0.17877  1.0000
  H   H2022     1.0  0.85623  0.69197  0.16822  1.0000
  H   H2023     1.0  0.85920  0.75754  0.12829  1.0000
  H   H2024     1.0  0.89662  0.75793  0.13937  1.0000
  C   C2536     1.0  0.76046  0.81178  0.33893  1.0000
  C   C2537     1.0  0.76179  0.82571  0.31790  1.0000
  C   C2538     1.0  0.77008  0.70296  0.30759  1.0000
  C   C2539     1.0  0.85318  0.59186  0.32505  1.0000
  H   H2025     1.0  0.79362  0.72564  0.25516  1.0000
  C   C2540     1.0  0.78171  0.64724  0.13603  1.0000
  H   H2026     1.0  0.77787  0.82679  0.30738  1.0000
  C   C2541     1.0  0.84821  0.59558  0.19176  1.0000
  C   C2542     1.0  0.79915  0.67458  0.15929  1.0000
  C   C2543     1.0  0.85624  0.70946  0.34857  1.0000
  C   C2544     1.0  0.84802  0.73049  0.33718  1.0000
  C   C2545     1.0  0.85474  0.73613  0.31390  1.0000
  C   C2546     1.0  0.86984  0.72090  0.30182  1.0000
  C   C2547     1.0  0.87856  0.70003  0.31322  1.0000
  C   C2548     1.0  0.87176  0.69432  0.33664  1.0000
  H   H2027     1.0  0.83668  0.74258  0.34640  1.0000
  H   H2028     1.0  0.84835  0.75243  0.30522  1.0000
  H   H2029     1.0  0.89038  0.68826  0.30405  1.0000
  H   H2030     1.0  0.87823  0.67806  0.34542  1.0000
  C   C2549     1.0  0.76488  0.63042  0.35139  1.0000
  C   C2550     1.0  0.77524  0.63866  0.36657  1.0000
  C   C2551     1.0  0.76746  0.66028  0.37265  1.0000
  Fe  Fe178     1.0  0.76452  0.74773  0.10160  1.0000
  C   C2552     1.0  0.77054  0.59161  0.13632  1.0000
  C   C2553     1.0  0.83712  0.74811  0.45238  1.0000
  H   H2031     1.0  0.78937  0.62832  0.37354  1.0000
  C   C2554     1.0  0.87149  0.74518  0.39080  1.0000
  C   C2555     1.0  0.75154  0.85111  0.15255  1.0000
  H   H2032     1.0  0.82779  0.55790  0.11489  1.0000
  C   C2556     1.0  0.83202  0.62899  0.23365  1.0000
  C   C2557     1.0  0.84442  0.64469  0.21924  1.0000
  C   C2558     1.0  0.86712  0.64457  0.22088  1.0000
  C   C2559     1.0  0.87772  0.62830  0.23649  1.0000
  C   C2560     1.0  0.86560  0.61197  0.25013  1.0000
  C   C2561     1.0  0.84275  0.61253  0.24898  1.0000
  H   H2033     1.0  0.83642  0.65714  0.20700  1.0000
  H   H2034     1.0  0.87650  0.65683  0.20981  1.0000
  H   H2035     1.0  0.87374  0.59913  0.26196  1.0000
  H   H2036     1.0  0.83351  0.60020  0.25995  1.0000
  C   C2562     1.0  0.84557  0.63849  0.30293  1.0000
  H   H2037     1.0  0.88307  0.58218  0.30178  1.0000
  H   H2038     1.0  0.81434  0.62421  0.31135  1.0000
  C   C2563     1.0  0.80808  0.76944  0.00971  1.0000
  C   C2564     1.0  0.79979  0.74875  0.01350  1.0000
  H   H2039     1.0  0.74767  0.80137  0.23846  1.0000
  S   S349      1.0  0.78656  0.52479  0.27651  1.0000
  H   H2040     1.0  0.79713  0.73962  0.03052  1.0000
  C   C2565     1.0  0.84715  0.61412  0.37237  1.0000
  C   C2566     1.0  0.95979  0.76173  0.29436  1.0000
  C   C2567     1.0  0.95438  0.74466  0.28433  1.0000
  C   C2568     1.0  0.93196  0.74169  0.28591  1.0000
  C   C2569     1.0  0.91498  0.75580  0.29735  1.0000
  C   C2570     1.0  0.92022  0.77263  0.30788  1.0000
  C   C2571     1.0  0.94280  0.77562  0.30625  1.0000
  P   P86       1.0  0.89784  0.78890  0.32442  1.0000
  C   C2572     1.0  0.87584  0.79905  0.30711  1.0000
  C   C2573     1.0  0.88771  0.77158  0.35039  1.0000
  C   C2574     1.0  0.89526  0.74824  0.35437  1.0000
  C   C2575     1.0  0.88724  0.73519  0.37455  1.0000
  H   H2041     1.0  0.83356  0.77631  0.16719  1.0000
  C   C2576     1.0  0.87228  0.78161  0.36708  1.0000
  C   C2577     1.0  0.85344  0.79602  0.31540  1.0000
  C   C2578     1.0  0.83666  0.80429  0.30185  1.0000
  C   C2579     1.0  0.84204  0.81542  0.27987  1.0000
  C   C2580     1.0  0.86432  0.81811  0.27131  1.0000
  C   C2581     1.0  0.88120  0.80972  0.28476  1.0000
  C   C2582     1.0  0.90804  0.81222  0.33245  1.0000
  C   C2583     1.0  0.90378  0.83439  0.32102  1.0000
  C   C2584     1.0  0.91211  0.85206  0.32745  1.0000
  C   C2585     1.0  0.92464  0.84778  0.34535  1.0000
  C   C2586     1.0  0.92883  0.82581  0.35688  1.0000
  C   C2587     1.0  0.92057  0.80809  0.35048  1.0000
  C   C2588     1.0  0.80445  0.93811  0.29098  1.0000
  H   H2042     1.0  0.96754  0.73358  0.27552  1.0000
  H   H2043     1.0  0.79031  0.57481  0.21007  1.0000
  H   H2044     1.0  0.89772  0.75319  0.29856  1.0000
  H   H2045     1.0  0.94745  0.78844  0.31417  1.0000
  H   H2046     1.0  0.90703  0.73982  0.34196  1.0000
  H   H2047     1.0  0.89250  0.71706  0.37722  1.0000
  H   H2048     1.0  0.86623  0.79953  0.36439  1.0000
  H   H2049     1.0  0.84873  0.78697  0.33211  1.0000
  H   H2050     1.0  0.81946  0.80177  0.30839  1.0000
  H   H2051     1.0  0.82900  0.82150  0.26936  1.0000
  H   H2052     1.0  0.89847  0.81156  0.27775  1.0000
  H   H2053     1.0  0.89412  0.83822  0.30717  1.0000
  H   H2054     1.0  0.85227  0.87619  0.48169  1.0000
  H   H2055     1.0  0.86190  0.87960  0.33248  1.0000
  H   H2056     1.0  0.93866  0.82244  0.37068  1.0000
  H   H2057     1.0  0.92416  0.79110  0.35946  1.0000
  H   H2058     1.0  0.79412  0.55678  0.09759  1.0000
  H   H2059     1.0  0.93418  0.62000  0.28034  1.0000
  C   C2589     1.0  0.79746  0.65206  0.16862  1.0000
  C   C2590     1.0  0.77683  0.73952  0.47911  1.0000
  H   H2060     1.0  0.96612  0.73190  0.18296  1.0000
  C   C2591     1.0  0.99451  0.75009  0.17702  1.0000
  C   C2592     1.0  0.92435  0.62164  0.29683  1.0000
  C   C2593     1.0  0.89834  0.62734  0.33870  1.0000
  C   C2594     1.0  0.77549  0.96321  0.32146  1.0000
  H   H2061     1.0  0.79203  0.85016  0.32837  1.0000
  C   C2595     1.0  0.80998  0.70278  0.30603  1.0000
  H   H2062     1.0  0.82487  0.69906  0.31423  1.0000
  H   H2063     1.0  0.81551  0.92871  0.27878  1.0000
  H   H2064     1.0  0.81467  0.67466  0.37372  1.0000
  C   C2596     1.0  0.77147  0.71259  0.28471  1.0000
  C   C2597     1.0  0.77471  0.94008  0.32302  1.0000
  C   C2598     1.0  0.75195  0.58608  0.19199  1.0000
  H   H2065     1.0  0.98902  0.69469  0.18178  1.0000
  H   H2066     1.0  0.82121  0.59597  0.34690  1.0000
  C   C2599     1.0  0.86754  0.57743  0.31128  1.0000
  C   C2600     1.0  0.79570  0.72288  0.47835  1.0000
  C   C2601     1.0  0.84551  0.62907  0.35204  1.0000
  C   C2602     1.0  0.80628  0.58082  0.20463  1.0000
  C   C2603     1.0  0.75983  0.89254  0.32391  1.0000
  H   H2067     1.0  0.78822  0.69005  0.33567  1.0000
  H   H2068     1.0  0.83638  0.53445  0.31834  1.0000
  C   C2604     1.0  0.88837  0.62198  0.32143  1.0000
  H   H2069     1.0  0.98248  0.62705  0.18629  1.0000
  C   C2605     1.0  0.90158  0.61937  0.30044  1.0000
  H   H2070     1.0  0.81095  0.55965  0.34292  1.0000
  C   C2606     1.0  0.81141  0.71278  0.28338  1.0000
  C   C2607     1.0  0.79282  0.56669  0.11112  1.0000
  C   C2608     1.0  0.81880  0.83173  0.46915  1.0000
  H   H2071     1.0  0.77404  0.81721  0.26501  1.0000
  C   C2609     1.0  0.77159  0.50521  0.26924  1.0000
  H   H2072     1.0  0.81694  0.84428  0.42415  1.0000
  C   C2610     1.0  0.93411  0.62697  0.31404  1.0000
  H   H2073     1.0  0.95163  0.62935  0.31097  1.0000
  H   H2074     1.0  0.88857  0.63012  0.35488  1.0000
  C   C2611     1.0  0.78905  0.92737  0.30761  1.0000
  H   H2075     1.0  0.86468  0.73469  0.40593  1.0000
  H   H2076     1.0  0.92767  0.72821  0.27859  1.0000
  S   S350      1.0  0.98662  0.68043  0.25579  1.0000
  S   S351      1.0  0.75195  0.75267  0.39471  1.0000
  C   C2612     1.0  0.76187  0.83041  0.14588  1.0000
  S   S352      1.0  0.75620  0.62552  0.28441  1.0000
  C   C2613     1.0  0.82172  0.78372  0.46610  1.0000
  C   C2614     1.0  0.75782  0.88293  0.34689  1.0000
  C   C2615     1.0  0.85678  0.65515  0.28851  1.0000
  C   C2616     1.0  0.84683  0.66851  0.27070  1.0000
  C   C2617     1.0  0.82542  0.66575  0.26749  1.0000
  C   C2618     1.0  0.81369  0.65007  0.28246  1.0000
  C   C2619     1.0  0.82370  0.63642  0.30010  1.0000
  H   H2077     1.0  0.87324  0.65787  0.29072  1.0000
  H   H2078     1.0  0.85581  0.68094  0.25938  1.0000
  H   H2079     1.0  0.81791  0.67573  0.25338  1.0000
  H   H2080     1.0  0.79705  0.64805  0.28001  1.0000
  C   C2620     1.0  0.83705  0.62101  0.39306  1.0000
  C   C2621     1.0  0.92111  0.62982  0.33497  1.0000
  C   C2622     1.0  0.84460  0.57935  0.21091  1.0000
  H   H2081     1.0  0.77268  0.92092  0.22862  1.0000
  C   C2623     1.0  0.86163  0.55668  0.30911  1.0000
  C   C2624     1.0  0.76064  0.83820  0.19041  1.0000
  H   H2082     1.0  0.89411  0.61633  0.28653  1.0000
  H   H2083     1.0  0.86858  0.82627  0.25407  1.0000
  C   C2625     1.0  0.83294  0.58497  0.33669  1.0000
  H   H2084     1.0  0.83822  0.60943  0.40870  1.0000
  H   H2085     1.0  0.80623  0.68519  0.16802  1.0000
  H   H2086     1.0  0.79304  0.70105  0.13147  1.0000
  C   C2626     1.0  0.79053  0.97384  0.30461  1.0000
  C   C2627     1.0  0.84659  0.87325  0.33156  1.0000
  C   C2628     1.0  0.80785  0.84912  0.48137  1.0000
  C   C2629     1.0  0.85020  0.74213  0.46983  1.0000
  C   C2630     1.0  0.84413  0.85075  0.34027  1.0000
  C   C2631     1.0  0.78937  0.69769  0.31806  1.0000
  H   H2087     1.0  0.85619  0.59717  0.37217  1.0000
  H   H2088     1.0  0.85159  0.77602  0.39966  1.0000
  H   H2089     1.0  0.77911  0.78771  0.29866  1.0000
  C   C2632     1.0  0.81179  0.56731  0.12086  1.0000
  C   C2633     1.0  0.79545  0.86823  0.25059  1.0000
  C   C2634     1.0  0.78763  0.88599  0.23458  1.0000
  P   P87       1.0  0.80354  0.81063  0.46378  1.0000
  H   H2090     1.0  0.85749  0.83968  0.34794  1.0000
  C   C2635     1.0  0.84132  0.55017  0.32058  1.0000
  C   C2636     1.0  0.79186  0.68352  0.13855  1.0000
  C   C2637     1.0  0.99438  0.63374  0.19374  1.0000
  C   C2638     1.0  0.83388  0.65098  0.35272  1.0000
  C   C2639     1.0  0.82375  0.65774  0.37338  1.0000
  C   C2640     1.0  0.83085  0.60447  0.17902  1.0000
  H   H2091     1.0  0.81749  0.64831  0.40951  1.0000
  H   H2092     1.0  0.81143  0.87829  0.49553  1.0000
  H   H2093     1.0  0.80121  0.85774  0.28494  1.0000
  C   C2641     1.0  0.82439  0.84258  0.33909  1.0000
  H   H2094     1.0  0.76380  0.97321  0.33275  1.0000
  S   S353      1.0  0.76018  0.58708  0.25100  1.0000
  C   C2642     1.0  0.80485  0.83520  0.41990  1.0000
  H   H2095     1.0  0.86429  0.60172  0.18719  1.0000
  H   H2096     1.0  0.80086  0.85154  0.24585  1.0000
  H   H2097     1.0  0.78693  0.88294  0.21762  1.0000
  S   S354      1.0  0.76308  0.82660  0.11763  1.0000
  H   H2098     1.0  0.75410  0.69991  0.31751  1.0000
  H   H2099     1.0  0.81231  0.77247  0.43749  1.0000
  C   C2643     1.0  0.82367  0.57193  0.21731  1.0000
  C   C2644     1.0  0.82535  0.64284  0.39355  1.0000
  H   H2100     1.0  0.77547  0.66656  0.38435  1.0000
  C   C2645     1.0  0.79541  0.81826  0.43578  1.0000
  C   C2646     1.0  0.80453  0.73027  0.19921  1.0000
  C   C2647     1.0  0.81839  0.71022  0.20560  1.0000
  C   C2648     1.0  0.83752  0.71082  0.21499  1.0000
  C   C2649     1.0  0.84319  0.73154  0.21753  1.0000
  C   C2650     1.0  0.82967  0.75178  0.21057  1.0000
  C   C2651     1.0  0.80988  0.75096  0.20212  1.0000
  P   P88       1.0  0.83604  0.77847  0.21498  1.0000
  C   C2652     1.0  0.81922  0.78313  0.24182  1.0000
  C   C2653     1.0  0.86576  0.77659  0.21556  1.0000
  C   C2654     1.0  0.87410  0.77826  0.23529  1.0000
  C   C2655     1.0  0.89715  0.77749  0.23499  1.0000
  C   C2656     1.0  0.91199  0.77549  0.21493  1.0000
  C   C2657     1.0  0.90383  0.77377  0.19526  1.0000
  C   C2658     1.0  0.88085  0.77412  0.19560  1.0000
  C   C2659     1.0  0.82231  0.76707  0.26112  1.0000
  C   C2660     1.0  0.80798  0.76888  0.28155  1.0000
  C   C2661     1.0  0.79052  0.78682  0.28294  1.0000
  C   C2662     1.0  0.78764  0.80324  0.26401  1.0000
  C   C2663     1.0  0.80150  0.80103  0.24338  1.0000
  C   C2664     1.0  0.83054  0.79998  0.19106  1.0000
  C   C2665     1.0  0.82807  0.82302  0.19309  1.0000
  C   C2666     1.0  0.82357  0.83961  0.17465  1.0000
  C   C2667     1.0  0.82246  0.83334  0.15381  1.0000
  C   C2668     1.0  0.82629  0.81050  0.15126  1.0000
  C   C2669     1.0  0.83043  0.79388  0.16974  1.0000
  H   H2101     1.0  0.78995  0.72985  0.19146  1.0000
  H   H2102     1.0  0.81455  0.69421  0.20296  1.0000
  H   H2103     1.0  0.84822  0.69520  0.21973  1.0000
  H   H2104     1.0  0.85810  0.73177  0.22482  1.0000
  H   H2105     1.0  0.79885  0.76631  0.19724  1.0000
  H   H2106     1.0  0.86309  0.77960  0.25108  1.0000
  H   H2107     1.0  0.90355  0.77781  0.25049  1.0000
  H   H2108     1.0  0.92988  0.77453  0.21477  1.0000
  H   H2109     1.0  0.91536  0.77157  0.17982  1.0000
  H   H2110     1.0  0.87491  0.77230  0.18028  1.0000
  H   H2111     1.0  0.83563  0.75290  0.26023  1.0000
  H   H2112     1.0  0.81017  0.75620  0.29630  1.0000
  C   C2670     1.0  0.78756  0.89329  0.27912  1.0000
  H   H2113     1.0  0.98427  0.76642  0.17789  1.0000
  H   H2114     1.0  0.79782  0.81289  0.22864  1.0000
  H   H2115     1.0  0.82939  0.82818  0.20895  1.0000
  H   H2116     1.0  0.82068  0.85732  0.17657  1.0000
  H   H2117     1.0  0.81849  0.84612  0.13964  1.0000
  H   H2118     1.0  0.82556  0.80563  0.13505  1.0000
  H   H2119     1.0  0.75887  0.69539  0.18387  1.0000
  C   C2671     1.0  0.77982  0.80684  0.42952  1.0000
  C   C2672     1.0  0.86405  0.76841  0.38713  1.0000
  C   C2673     1.0  0.79860  0.84067  0.39823  1.0000
  C   C2674     1.0  0.78907  0.63806  0.15689  1.0000
  H   H2120     1.0  0.80160  0.71530  0.46314  1.0000
  H   H2121     1.0  0.98510  0.61585  0.22714  1.0000
  H   H2122     1.0  0.82190  0.70359  0.49651  1.0000
  P   P89       1.0  0.78723  0.60879  0.16882  1.0000
  C   C2675     1.0  0.75573  0.84557  0.01558  1.0000
  H   H2123     1.0  0.87256  0.54591  0.29806  1.0000
  H   H2124     1.0  0.83263  0.66294  0.33738  1.0000
  H   H2125     1.0  0.85786  0.57297  0.22113  1.0000
  H   H2126     1.0  0.78067  0.67300  0.21312  1.0000
  H   H2127     1.0  0.82752  0.71638  0.27409  1.0000
  C   C2676     1.0  0.84188  0.83080  0.46114  1.0000
  H   H2128     1.0  0.90902  0.86909  0.31841  1.0000
  C   C2677     1.0  0.76009  0.60700  0.18601  1.0000
  H   H2129     1.0  0.77599  0.68434  0.25086  1.0000
  C   C2678     1.0  0.79225  0.71768  0.27269  1.0000
  H   H2130     1.0  0.75537  0.76058  0.23699  1.0000
  C   C2679     1.0  0.77896  0.80955  0.48518  1.0000
  C   C2680     1.0  0.76651  0.69454  0.23822  1.0000
  C   C2681     1.0  0.82927  0.88763  0.32176  1.0000
  C   C2682     1.0  0.83518  0.77767  0.48342  1.0000
  H   H2131     1.0  0.76248  0.93244  0.33587  1.0000
  H   H2132     1.0  0.82231  0.82515  0.34588  1.0000
  C   C2683     1.0  0.78953  0.59227  0.14624  1.0000
  H   H2133     1.0  0.78635  0.82387  0.02311  1.0000
  H   H2134     1.0  0.75787  0.79862  0.01825  1.0000
  C   C2684     1.0  0.81019  0.58008  0.13833  1.0000
  H   H2135     1.0  0.82072  0.55962  0.23240  1.0000
  C   C2685     1.0  0.79547  0.87183  0.27277  1.0000
  H   H2136     1.0  0.77734  0.67709  0.11091  1.0000
  H   H2137     1.0  0.82511  0.58035  0.14559  1.0000
  H   H2138     1.0  0.83402  0.61704  0.16425  1.0000
  H   H2139     1.0  0.80288  0.64558  0.18490  1.0000
  H   H2140     1.0  0.77484  0.63706  0.12673  1.0000
  C   C2686     1.0  0.76834  0.83766  0.05243  1.0000
  H   H2141     1.0  0.80585  0.85377  0.38607  1.0000
  C   C2687     1.0  0.78310  0.66990  0.12694  1.0000
  H   H2142     1.0  0.77223  0.92746  0.26753  1.0000
  H   H2143     1.0  0.93124  0.86145  0.35020  1.0000
  S   S355      1.0  0.76460  0.78165  0.08007  1.0000
  H   H2144     1.0  0.97723  0.76393  0.29313  1.0000
  C   C2688     1.0  0.78309  0.82915  0.39219  1.0000
  H   H2145     1.0  0.79006  0.85031  0.48768  1.0000
  S   S356      1.0  0.76050  0.84293  0.21815  1.0000
  C   C2689     1.0  0.80928  0.87960  0.32066  1.0000
  H   H2146     1.0  0.78063  0.82922  0.06324  1.0000
  C   C2690     1.0  0.80716  0.85686  0.32915  1.0000
  P   P90       1.0  0.78672  0.89797  0.30797  1.0000
  H   H2147     1.0  0.83153  0.90499  0.31523  1.0000
  C   C2691     1.0  0.77940  0.91098  0.26296  1.0000
  C   C2692     1.0  0.85388  0.84681  0.46562  1.0000
  C   C2693     1.0  0.74911  0.85106  0.06142  1.0000
  C   C2694     1.0  0.75660  0.70038  0.20045  1.0000
  C   C2695     1.0  0.98429  0.73064  0.17997  1.0000
  H   H2148     1.0  0.86055  0.72575  0.47176  1.0000
  H   H2149     1.0  0.83469  0.78884  0.49566  1.0000
  H   H2150     1.0  0.75260  0.64267  0.18923  1.0000
  C   C2696     1.0  0.77378  0.81219  0.40780  1.0000
  C   C2697     1.0  0.77221  0.57886  0.11882  1.0000
  C   C2698     1.0  0.99583  0.62741  0.21678  1.0000
  H   H2151     1.0  0.77838  0.83315  0.37535  1.0000
  H   H2152     1.0  0.76202  0.57088  0.18675  1.0000
  C   C2699     1.0  0.75059  0.85490  0.17487  1.0000
  H   H2153     1.0  0.76934  0.50304  0.32200  1.0000
  H   H2154     1.0  0.76204  0.80296  0.40299  1.0000
  H   H2155     1.0  0.75574  0.82973  0.46364  1.0000
  C   C2700     1.0  0.75785  0.82083  0.48038  1.0000
  C   C2701     1.0  0.80714  0.71624  0.49727  1.0000
  H   H2156     1.0  0.75448  0.60106  0.14203  1.0000
  H   H2157     1.0  0.75752  0.57845  0.11122  1.0000
  C   C2702     1.0  0.74899  0.67355  0.36392  1.0000
  H   H2158     1.0  0.74848  0.76182  0.01466  1.0000
  C   C2703     1.0  0.76909  0.74891  0.49909  1.0000
  C   C2704     1.0  0.74748  0.77556  0.00063  1.0000
  H   H2159     1.0  0.85873  0.75190  0.49938  1.0000
  H   H2160     1.0  0.81633  0.87063  0.67004  1.0000
  S   S357      1.0  0.79494  0.79782  0.91004  1.0000
  C   C2705     1.0  0.86135  0.70241  0.82423  1.0000
  Fe  Fe179     1.0  0.77941  0.76314  0.86859  1.0000
  S   S358      1.0  0.81129  0.75361  0.88383  1.0000
  H   H2161     1.0  0.92841  0.80177  0.86194  1.0000
  Fe  Fe180     1.0  0.78993  0.76152  0.91642  1.0000
  S   S359      1.0  0.79308  0.73942  0.95029  1.0000
  Fe  Fe181     1.0  0.81349  0.79075  0.87633  1.0000
  S   S360      1.0  0.84482  0.80613  0.86178  1.0000
  C   C2706     1.0  0.80741  0.81042  0.70070  1.0000
  S   S361      1.0  0.78316  0.79997  0.85892  1.0000
  H   H2162     1.0  0.79696  0.79017  0.51180  1.0000
  H   H2163     1.0  0.78516  0.82696  0.94449  1.0000
  H   H2164     1.0  0.78842  0.81644  0.60794  1.0000
  H   H2165     1.0  0.86579  0.56990  0.90608  1.0000
  C   C2707     1.0  0.80298  0.85301  0.98215  1.0000
  H   H2166     1.0  0.80349  0.50024  0.60396  1.0000
  S   S362      1.0  0.77119  0.86517  0.74789  1.0000
  S   S363      1.0  0.76175  0.92369  0.77207  1.0000
  Fe  Fe182     1.0  0.91095  0.78380  0.74877  1.0000
  S   S364      1.0  0.92211  0.81741  0.74769  1.0000
  S   S365      1.0  0.90062  0.75991  0.78009  1.0000
  Fe  Fe183     1.0  0.91317  0.78816  0.69777  1.0000
  S   S366      1.0  0.92413  0.82251  0.69217  1.0000
  S   S367      1.0  0.91122  0.76690  0.67100  1.0000
  Fe  Fe184     1.0  0.94718  0.80785  0.71796  1.0000
  Fe  Fe185     1.0  0.89817  0.82938  0.72236  1.0000
  S   S368      1.0  0.87635  0.86322  0.72415  1.0000
  S   S369      1.0  0.93817  0.77297  0.72136  1.0000
  S   S370      1.0  0.88523  0.79629  0.72561  1.0000
  Fe  Fe186     1.0  0.80470  0.75653  0.61088  1.0000
  S   S371      1.0  0.81067  0.71968  0.60647  1.0000
  S   S372      1.0  0.82314  0.77917  0.62502  1.0000
  Fe  Fe187     1.0  0.76041  0.76551  0.59203  1.0000
  S   S373      1.0  0.76270  0.73001  0.58560  1.0000
  H   H2167     1.0  0.76970  0.74995  0.75240  1.0000
  Fe  Fe188     1.0  0.77380  0.72038  0.61972  1.0000
  C   C2708     1.0  0.81386  0.85376  0.67842  1.0000
  Fe  Fe189     1.0  0.79887  0.73232  0.57250  1.0000
  S   S374      1.0  0.81481  0.71830  0.54026  1.0000
  S   S375      1.0  0.76866  0.75594  0.62714  1.0000
  S   S376      1.0  0.79579  0.76896  0.57593  1.0000
  C   C2709     1.0  0.79969  0.72609  0.51706  1.0000
  C   C2710     1.0  0.79376  0.62836  0.92003  1.0000
  H   H2168     1.0  0.77398  0.58571  0.74701  1.0000
  H   H2169     1.0  0.74989  0.68525  0.81272  1.0000
  C   C2711     1.0  0.78045  0.74221  0.51800  1.0000
  H   H2170     1.0  0.83637  0.86144  0.97903  1.0000
  P   P91       1.0  0.75972  0.84144  0.98622  1.0000
  H   H2171     1.0  0.77447  0.74969  0.53324  1.0000
  C   C2712     1.0  0.84600  0.60144  0.89473  1.0000
  C   C2713     1.0  0.92571  0.70437  0.87597  1.0000
  C   C2714     1.0  0.92164  0.68179  0.88056  1.0000
  C   C2715     1.0  0.77040  0.67505  0.71477  1.0000
  C   C2716     1.0  0.78599  0.68487  0.69780  1.0000
  C   C2717     1.0  0.78148  0.69069  0.67544  1.0000
  C   C2718     1.0  0.82510  0.85397  0.97150  1.0000
  S   S377      1.0  0.76581  0.62680  0.79633  1.0000
  H   H2172     1.0  0.77681  0.63327  0.67152  1.0000
  H   H2173     1.0  0.79351  0.69833  0.66235  1.0000
  C   C2719     1.0  0.79192  0.62312  0.70156  1.0000
  H   H2174     1.0  0.91556  0.70212  0.83044  1.0000
  C   C2720     1.0  0.88628  0.76980  0.65908  1.0000
  C   C2721     1.0  0.88327  0.75332  0.64661  1.0000
  C   C2722     1.0  0.86393  0.75571  0.63618  1.0000
  C   C2723     1.0  0.84764  0.77476  0.63798  1.0000
  C   C2724     1.0  0.85069  0.79116  0.65048  1.0000
  C   C2725     1.0  0.86981  0.78860  0.66117  1.0000
  H   H2175     1.0  0.89600  0.73876  0.64489  1.0000
  H   H2176     1.0  0.86175  0.74302  0.62654  1.0000
  H   H2177     1.0  0.83821  0.80599  0.65186  1.0000
  H   H2178     1.0  0.87209  0.80148  0.67053  1.0000
  C   C2726     1.0  0.75803  0.61506  0.92277  1.0000
  C   C2727     1.0  0.80043  0.86499  0.74379  1.0000
  C   C2728     1.0  0.80973  0.88513  0.73770  1.0000
  C   C2729     1.0  0.83313  0.88442  0.73228  1.0000
  C   C2730     1.0  0.84730  0.86363  0.73325  1.0000
  C   C2731     1.0  0.83803  0.84359  0.74076  1.0000
  C   C2732     1.0  0.81463  0.84425  0.74566  1.0000
  H   H2179     1.0  0.79887  0.90119  0.73628  1.0000
  H   H2180     1.0  0.84021  0.90000  0.72673  1.0000
  H   H2181     1.0  0.84878  0.82756  0.74218  1.0000
  H   H2182     1.0  0.80750  0.82866  0.75055  1.0000
  C   C2733     1.0  0.79861  0.75144  0.97300  1.0000
  C   C2734     1.0  0.80668  0.77223  0.96932  1.0000
  H   H2183     1.0  0.80960  0.78132  0.95241  1.0000
  H   H2184     1.0  0.83244  0.71715  0.84544  1.0000
  C   C2735     1.0  0.85924  0.79431  0.83796  1.0000
  C   C2736     1.0  0.87717  0.80411  0.82452  1.0000
  C   C2737     1.0  0.88907  0.79447  0.80574  1.0000
  C   C2738     1.0  0.88377  0.77437  0.80108  1.0000
  C   C2739     1.0  0.86556  0.76490  0.81421  1.0000
  C   C2740     1.0  0.85305  0.77506  0.83237  1.0000
  H   H2185     1.0  0.88184  0.81915  0.82862  1.0000
  H   H2186     1.0  0.90301  0.80201  0.79556  1.0000
  H   H2187     1.0  0.86105  0.74981  0.81013  1.0000
  H   H2188     1.0  0.83881  0.76781  0.84217  1.0000
  H   H2189     1.0  0.76767  0.88595  0.96067  1.0000
  H   H2190     1.0  0.79434  0.81136  0.64779  1.0000
  C   C2741     1.0  0.77472  0.59578  0.73032  1.0000
  H   H2191     1.0  0.80148  0.68815  0.70200  1.0000
  C   C2742     1.0  0.83111  0.83985  0.68863  1.0000
  S   S378      1.0  0.77619  0.66877  0.74271  1.0000
  C   C2743     1.0  0.74968  0.67815  0.84871  1.0000
  C   C2744     1.0  0.86521  0.58521  0.89379  1.0000
  H   H2192     1.0  0.77632  0.62465  0.58449  1.0000
  H   H2193     1.0  0.83193  0.59837  0.90781  1.0000
  H   H2194     1.0  0.76423  0.79096  0.54132  1.0000
  C   C2745     1.0  0.79538  0.86178  0.88723  1.0000
  C   C2746     1.0  0.79955  0.87871  0.89822  1.0000
  C   C2747     1.0  0.81163  0.89574  0.88613  1.0000
  C   C2748     1.0  0.81927  0.89600  0.86296  1.0000
  C   C2749     1.0  0.81498  0.87914  0.85174  1.0000
  C   C2750     1.0  0.80317  0.86185  0.86415  1.0000
  P   P92       1.0  0.82330  0.88079  0.82143  1.0000
  C   C2751     1.0  0.81019  0.86053  0.81182  1.0000
  C   C2752     1.0  0.81328  0.90900  0.80832  1.0000
  C   C2753     1.0  0.82478  0.91892  0.78787  1.0000
  C   C2754     1.0  0.81721  0.94097  0.77823  1.0000
  C   C2755     1.0  0.79815  0.95331  0.78891  1.0000
  C   C2756     1.0  0.78636  0.94346  0.80904  1.0000
  C   C2757     1.0  0.79377  0.92134  0.81863  1.0000
  C   C2758     1.0  0.78813  0.86589  0.80701  1.0000
  C   C2759     1.0  0.77737  0.84918  0.80201  1.0000
  C   C2760     1.0  0.78865  0.82721  0.80148  1.0000
  C   C2761     1.0  0.81072  0.82187  0.80595  1.0000
  C   C2762     1.0  0.82136  0.83841  0.81126  1.0000
  C   C2763     1.0  0.85333  0.87384  0.81372  1.0000
  C   C2764     1.0  0.86210  0.86893  0.79183  1.0000
  C   C2765     1.0  0.89114  0.86601  0.82343  1.0000
  C   C2766     1.0  0.86802  0.87211  0.82957  1.0000
  H   H2195     1.0  0.76581  0.65620  0.60722  1.0000
  C   C2767     1.0  0.79537  0.73965  0.99514  1.0000
  H   H2196     1.0  0.81475  0.90894  0.89461  1.0000
  H   H2197     1.0  0.82815  0.90957  0.85363  1.0000
  H   H2198     1.0  0.79953  0.84858  0.85609  1.0000
  H   H2199     1.0  0.83943  0.90972  0.77909  1.0000
  H   H2200     1.0  0.82592  0.94834  0.76224  1.0000
  H   H2201     1.0  0.79215  0.97025  0.78119  1.0000
  H   H2202     1.0  0.77100  0.95262  0.81683  1.0000
  H   H2203     1.0  0.78394  0.91379  0.83385  1.0000
  H   H2204     1.0  0.77909  0.88278  0.80748  1.0000
  C   C2768     1.0  0.76046  0.61750  0.89918  1.0000
  H   H2205     1.0  0.78027  0.81435  0.79775  1.0000
  H   H2206     1.0  0.81952  0.80486  0.80586  1.0000
  H   H2207     1.0  0.83815  0.83377  0.81545  1.0000
  H   H2208     1.0  0.85107  0.86949  0.77946  1.0000
  H   H2209     1.0  0.86170  0.87501  0.84675  1.0000
  H   H2210     1.0  0.82406  0.82873  0.92587  1.0000
  H   H2211     1.0  0.91026  0.76953  0.88272  1.0000
  H   H2212     1.0  0.97346  0.65575  0.89115  1.0000
  C   C2769     1.0  0.96426  0.69173  0.88253  1.0000
  C   C2770     1.0  0.76538  0.59944  0.61218  1.0000
  Fe  Fe190     1.0  0.74994  0.89729  0.75715  1.0000
  C   C2771     1.0  0.75059  0.88374  0.96007  1.0000
  H   H2213     1.0  0.97913  0.80868  0.75792  1.0000
  H   H2214     1.0  0.90239  0.86453  0.83575  1.0000
  C   C2772     1.0  0.81252  0.64386  0.81363  1.0000
  C   C2773     1.0  0.80835  0.66697  0.80567  1.0000
  C   C2774     1.0  0.80830  0.68267  0.81999  1.0000
  C   C2775     1.0  0.81149  0.67534  0.84251  1.0000
  C   C2776     1.0  0.81579  0.65217  0.85061  1.0000
  C   C2777     1.0  0.81643  0.63645  0.83595  1.0000
  P   P93       1.0  0.82041  0.64234  0.87952  1.0000
  C   C2778     1.0  0.84509  0.62125  0.87879  1.0000
  C   C2779     1.0  0.82480  0.66553  0.89253  1.0000
  C   C2780     1.0  0.84637  0.66843  0.89555  1.0000
  C   C2781     1.0  0.84914  0.68593  0.90663  1.0000
  C   C2782     1.0  0.83049  0.70070  0.91462  1.0000
  C   C2783     1.0  0.80905  0.69804  0.91144  1.0000
  C   C2784     1.0  0.80619  0.68057  0.90045  1.0000
  C   C2785     1.0  0.78989  0.82432  0.69057  1.0000
  H   H2215     1.0  0.76033  0.85335  0.79829  1.0000
  H   H2216     1.0  0.86709  0.76340  0.87881  1.0000
  C   C2786     1.0  0.93883  0.66431  0.88598  1.0000
  C   C2787     1.0  0.86364  0.62457  0.86193  1.0000
  S   S379      1.0  0.77333  0.74721  0.83954  1.0000
  C   C2788     1.0  0.76127  0.68681  0.67011  1.0000
  H   H2217     1.0  0.91756  0.85650  0.79675  1.0000
  C   C2789     1.0  0.75030  0.67088  0.70935  1.0000
  H   H2218     1.0  0.81224  0.63167  0.80263  1.0000
  H   H2219     1.0  0.80459  0.67272  0.78860  1.0000
  H   H2220     1.0  0.80490  0.70060  0.81397  1.0000
  H   H2221     1.0  0.81011  0.68786  0.85353  1.0000
  H   H2222     1.0  0.81938  0.61846  0.84194  1.0000
  H   H2223     1.0  0.86104  0.65718  0.88962  1.0000
  H   H2224     1.0  0.86571  0.68803  0.90915  1.0000
  H   H2225     1.0  0.83252  0.71426  0.92330  1.0000
  H   H2226     1.0  0.79458  0.70954  0.91761  1.0000
  H   H2227     1.0  0.78940  0.67873  0.89827  1.0000
  C   C2790     1.0  0.97435  0.76317  0.65282  1.0000
  H   H2228     1.0  0.95060  0.72653  0.87397  1.0000
  H   H2229     1.0  0.89703  0.61091  0.84795  1.0000
  H   H2230     1.0  0.86325  0.63977  0.84948  1.0000
  C   C2791     1.0  0.89744  0.70533  0.83404  1.0000
  C   C2792     1.0  0.89971  0.86141  0.80152  1.0000
  C   C2793     1.0  0.76569  0.76794  0.68842  1.0000
  C   C2794     1.0  0.83615  0.71019  0.67489  1.0000
  C   C2795     1.0  0.82399  0.73157  0.66967  1.0000
  C   C2796     1.0  0.82222  0.74780  0.68387  1.0000
  C   C2797     1.0  0.83193  0.74248  0.70370  1.0000
  C   C2798     1.0  0.84334  0.72070  0.70960  1.0000
  C   C2799     1.0  0.84586  0.70475  0.69476  1.0000
  P   P94       1.0  0.85563  0.71357  0.73542  1.0000
  C   C2800     1.0  0.85260  0.68462  0.74775  1.0000
  C   C2801     1.0  0.88516  0.71629  0.72951  1.0000
  C   C2802     1.0  0.89667  0.71839  0.74702  1.0000
  C   C2803     1.0  0.91971  0.71952  0.74272  1.0000
  C   C2804     1.0  0.93146  0.71853  0.72092  1.0000
  C   C2805     1.0  0.92014  0.71656  0.70340  1.0000
  C   C2806     1.0  0.89707  0.71554  0.70760  1.0000
  C   C2807     1.0  0.83441  0.67485  0.74434  1.0000
  C   C2808     1.0  0.83301  0.65199  0.75238  1.0000
  C   C2809     1.0  0.84939  0.63884  0.76439  1.0000
  C   C2810     1.0  0.86713  0.64858  0.76854  1.0000
  C   C2811     1.0  0.86877  0.67135  0.76025  1.0000
  C   C2812     1.0  0.84065  0.73225  0.75493  1.0000
  C   C2813     1.0  0.84865  0.75232  0.75623  1.0000
  C   C2814     1.0  0.83665  0.76717  0.77074  1.0000
  C   C2815     1.0  0.81653  0.76215  0.78400  1.0000
  C   C2816     1.0  0.80818  0.74255  0.78236  1.0000
  C   C2817     1.0  0.82008  0.72766  0.76783  1.0000
  H   H2231     1.0  0.83803  0.69789  0.66346  1.0000
  H   H2232     1.0  0.81657  0.73589  0.65421  1.0000
  H   H2233     1.0  0.81375  0.76473  0.67909  1.0000
  H   H2234     1.0  0.83063  0.75547  0.71421  1.0000
  H   H2235     1.0  0.85534  0.68814  0.69850  1.0000
  H   H2236     1.0  0.88781  0.71955  0.76397  1.0000
  H   H2237     1.0  0.92827  0.72200  0.75613  1.0000
  H   H2238     1.0  0.94914  0.72020  0.71740  1.0000
  H   H2239     1.0  0.92900  0.71691  0.68627  1.0000
  H   H2240     1.0  0.88866  0.71475  0.69353  1.0000
  H   H2241     1.0  0.82135  0.68479  0.73532  1.0000
  H   H2242     1.0  0.81908  0.64452  0.74938  1.0000
  H   H2243     1.0  0.84820  0.62115  0.77059  1.0000
  H   H2244     1.0  0.87978  0.63841  0.77795  1.0000
  H   H2245     1.0  0.88284  0.67837  0.76340  1.0000
  H   H2246     1.0  0.86412  0.75660  0.74600  1.0000
  H   H2247     1.0  0.84315  0.78248  0.77183  1.0000
  H   H2248     1.0  0.80734  0.77336  0.79559  1.0000
  H   H2249     1.0  0.79243  0.73903  0.79246  1.0000
  H   H2250     1.0  0.81310  0.71277  0.76653  1.0000
  C   C2818     1.0  0.78106  0.79891  0.50736  1.0000
  C   C2819     1.0  0.79615  0.83437  0.95232  1.0000
  C   C2820     1.0  0.88516  0.86283  0.78576  1.0000
  H   H2251     1.0  0.89315  0.69036  0.80563  1.0000
  H   H2252     1.0  0.99366  0.75881  0.75176  1.0000
  H   H2253     1.0  0.97051  0.79720  0.66024  1.0000
  H   H2254     1.0  0.89168  0.85906  0.76881  1.0000
  C   C2821     1.0  0.88477  0.69833  0.82007  1.0000
  C   C2822     1.0  0.91592  0.75114  0.85406  1.0000
  C   C2823     1.0  0.75382  0.68626  0.86771  1.0000
  H   H2255     1.0  0.80437  0.63448  0.69600  1.0000
  C   C2824     1.0  0.77744  0.81585  0.64372  1.0000
  H   H2256     1.0  0.94540  0.80210  0.82165  1.0000
  H   H2257     1.0  0.84132  0.80739  0.70747  1.0000
  C   C2825     1.0  0.79121  0.60987  0.72288  1.0000
  C   C2826     1.0  0.76542  0.78444  0.70204  1.0000
  H   H2258     1.0  0.95778  0.76523  0.64790  1.0000
  P   P95       1.0  0.90332  0.72683  0.86942  1.0000
  C   C2827     1.0  0.75913  0.81852  0.66095  1.0000
  C   C2828     1.0  0.88677  0.71678  0.85213  1.0000
  H   H2259     1.0  0.98264  0.72846  0.64744  1.0000
  H   H2260     1.0  0.84991  0.84571  0.94313  1.0000
  H   H2261     1.0  0.80557  0.79354  0.70919  1.0000
  C   C2829     1.0  0.88971  0.72103  0.91656  1.0000
  C   C2830     1.0  0.94711  0.70924  0.87714  1.0000
  C   C2831     1.0  0.92788  0.78760  0.85346  1.0000
  C   C2832     1.0  0.81165  0.78104  0.98755  1.0000
  C   C2833     1.0  0.98155  0.78123  0.65964  1.0000
  C   C2834     1.0  0.75042  0.52338  0.78934  1.0000
  C   C2835     1.0  0.88642  0.73405  0.89551  1.0000
  C   C2836     1.0  0.85059  0.71319  0.84256  1.0000
  C   C2837     1.0  0.75930  0.60839  0.69503  1.0000
  C   C2838     1.0  0.79629  0.63091  0.89627  1.0000
  H   H2262     1.0  0.74893  0.82771  0.77355  1.0000
  C   C2839     1.0  0.86974  0.75303  0.89482  1.0000
  C   C2840     1.0  0.79345  0.84594  0.67910  1.0000
  S   S380      1.0  0.98355  0.81356  0.70842  1.0000
  H   H2263     1.0  0.90259  0.70647  0.91780  1.0000
  C   C2841     1.0  0.76765  0.74509  0.69779  1.0000
  C   C2842     1.0  0.86323  0.72015  0.85653  1.0000
  Fe  Fe191     1.0  0.76418  0.80374  0.89329  1.0000
  C   C2843     1.0  0.76096  0.70760  0.86531  1.0000
  H   H2264     1.0  0.84890  0.74986  0.95090  1.0000
  H   H2265     1.0  0.93561  0.64692  0.88953  1.0000
  C   C2844     1.0  0.75249  0.82480  0.61545  1.0000
  H   H2266     1.0  0.84689  0.84595  0.68826  1.0000
  C   C2845     1.0  0.77609  0.62239  0.68767  1.0000
  H   H2267     1.0  0.85156  0.69778  0.81291  1.0000
  H   H2268     1.0  0.89841  0.57595  0.87622  1.0000
  C   C2846     1.0  0.87619  0.72674  0.93645  1.0000
  C   C2847     1.0  0.76241  0.79929  0.52430  1.0000
  H   H2269     1.0  0.92484  0.73810  0.82207  1.0000
  H   H2270     1.0  0.76017  0.56142  0.68955  1.0000
  C   C2848     1.0  0.83274  0.84512  0.95130  1.0000
  C   C2849     1.0  0.93752  0.78778  0.83081  1.0000
  C   C2850     1.0  0.76863  0.75497  0.73455  1.0000
  C   C2851     1.0  0.77414  0.81891  0.62108  1.0000
  C   C2852     1.0  0.98837  0.74243  0.65268  1.0000
  C   C2853     1.0  0.92576  0.75149  0.83130  1.0000
  H   H2271     1.0  0.80316  0.61085  0.73383  1.0000
  H   H2272     1.0  0.74972  0.97900  0.77893  1.0000
  C   C2854     1.0  0.76955  0.73855  0.72074  1.0000
  C   C2855     1.0  0.85947  0.74554  0.93551  1.0000
  C   C2856     1.0  0.96014  0.66928  0.88693  1.0000
  C   C2857     1.0  0.77471  0.62044  0.93320  1.0000
  H   H2273     1.0  0.87860  0.71663  0.95268  1.0000
  H   H2274     1.0  0.84345  0.77341  0.91391  1.0000
  C   C2858     1.0  0.76638  0.77788  0.72527  1.0000
  H   H2275     1.0  0.81826  0.79692  0.98450  1.0000
  C   C2859     1.0  0.81822  0.83546  0.94164  1.0000
  C   C2860     1.0  0.82791  0.81815  0.69963  1.0000
  H   H2276     1.0  0.90515  0.67772  0.88007  1.0000
  H   H2277     1.0  0.85443  0.72869  0.87033  1.0000
  H   H2278     1.0  0.98076  0.69561  0.88334  1.0000
  H   H2279     1.0  0.78571  0.84877  0.89646  1.0000
  H   H2280     1.0  0.80635  0.63283  0.92837  1.0000
  H   H2281     1.0  0.79324  0.87866  0.91605  1.0000
  H   H2282     1.0  0.94344  0.77008  0.80202  1.0000
  C   C2861     1.0  0.78845  0.84274  0.97287  1.0000
  C   C2862     1.0  0.93658  0.76966  0.81980  1.0000
  H   H2283     1.0  0.77149  0.72078  0.72786  1.0000
  C   C2863     1.0  0.85633  0.75874  0.91470  1.0000
  C   C2864     1.0  0.91731  0.76931  0.86512  1.0000
  C   C2865     1.0  0.88359  0.58862  0.87696  1.0000
  C   C2866     1.0  0.88281  0.60830  0.86104  1.0000
  C   C2867     1.0  0.75865  0.59527  0.71664  1.0000
  H   H2284     1.0  0.76475  0.77262  0.67053  1.0000
  H   H2285     1.0  0.76584  0.79054  0.73603  1.0000
  C   C2868     1.0  0.76369  0.72085  0.84394  1.0000
  S   S381      1.0  0.74803  0.98230  0.73116  1.0000
  H   H2286     1.0  0.76419  0.71386  0.87991  1.0000
  C   C2869     1.0  0.77951  0.62535  0.88596  1.0000
  Fe  Fe192     1.0  0.75156  0.64996  0.76770  1.0000
  H   H2287     1.0  0.81570  0.50981  0.63768  1.0000
  H   H2288     1.0  0.78062  0.62758  0.86774  1.0000
  H   H2289     1.0  0.77270  0.61884  0.95149  1.0000
  H   H2290     1.0  0.75437  0.76162  0.49987  1.0000
  P   P96       1.0  0.76390  0.81391  0.69012  1.0000
  H   H2291     1.0  0.76798  0.73249  0.68710  1.0000
  H   H2292     1.0  0.75137  0.67613  0.88424  1.0000
  C   C2870     1.0  0.76891  0.62137  0.60212  1.0000
  S   S382      1.0  0.75508  0.69401  0.64241  1.0000
  C   C2871     1.0  0.75228  0.81430  0.98424  1.0000
  C   C2872     1.0  0.75269  0.69138  0.82746  1.0000
  H   H2293     1.0  0.78043  0.85676  0.67066  1.0000
  H   H2294     1.0  0.75575  0.85841  0.70630  1.0000
  H   H2295     1.0  0.76100  0.72289  0.80864  1.0000
  C   C2873     1.0  0.75924  0.71275  0.82515  1.0000
  H   H2296     1.0  0.74993  0.82700  0.59791  1.0000
  H   H2297     1.0  0.76186  0.51726  0.80156  1.0000
  S   S383      1.0  0.75755  0.76767  0.90184  1.0000
  S   S384      1.0  0.75752  0.56566  0.79395  1.0000
  C   C2874     1.0  0.99671  0.80802  0.75093  1.0000
  C   C2875     1.0  0.76298  0.63914  0.61485  1.0000
  C   C2876     1.0  0.75091  0.99631  0.77112  1.0000
  C   C2877     1.0  0.75598  0.59524  0.63501  1.0000
  H   H2298     1.0  0.76490  0.78753  0.78524  1.0000
  H   H2299     1.0  0.77003  0.58568  0.60228  1.0000
  H   H2300     1.0  0.79737  0.86027  0.99758  1.0000
  H   H2301     1.0  0.78920  0.72353  0.99816  1.0000
  C   C2878     1.0  0.74733  0.79196  0.78346  1.0000
  H   H2302     1.0  0.74732  0.61390  0.89095  1.0000
  H   H2303     1.0  0.75351  0.57813  0.64249  1.0000
  C   C2879     1.0  0.75353  0.63498  0.63759  1.0000
  C   C2880     1.0  0.74996  0.61304  0.64790  1.0000
  H   H2304     1.0  0.74908  0.64892  0.64721  1.0000
