data_image0
_chemical_formula_structural       C3H4CH2C2SC2HC2SFeC2H2CHCH3CHC2SHC4FeHPCHCHC2H2SC4HSCFePH2CHC2HC2HCHCSC2HC2SC4H3CHCSC4SCHC3HCH2C2HCHC3H4CHC2HCHCH3C2PC4H3C3SFeHCH2C2HCH2C4HCHCH2C3PHCHCSC2SFe2S2FeS2FeHCFeCFeS2H2CHS2CH2C4HCH4CH2C2HC3H2C4H5C2H3CH2CH2CSHCHC3HC9HC6H2CHPH2C2HC2HFeC4HSCH2PHC4HCH2C2HC2HC4HSH5CH3C5SC2HC2HCSC2HCSCHC2HC3H2CFeH2CHPHC2H3C6H2C2HCH3C2HFeCHCH2CH2C2HCHCH2C4FeCSHCHC3H3C4H2CHC2H2C2H6C3H5CHCH2SHS2HC3HCHFeC2HC2H2C2HC2H3C3SH2C8H4C2HC4H5SHC2HC4HPH2C2H2CHCPCH3C3H3CH3CH3C3PC9HC2H4SH4CSHC3H3C2HC2SH2CSH3C3HCFeC4H2CH3C7HCSH2C2HSHCH2C3PSC4H9C3HCHCHC3FeS3CFeCSFeSCHCFeS3FeS2FeS2FeSFeS3FeS2FeS2FeSFeS3HSHFeC2FeS2FeSFeHS2C7H4C6H4C6H4C6HCH3C2HFeC2H3C6H8C3HC7H4FeCHC7H6C2H3C7PC9H2C7H11C2H7C4PC14H13SHCHSC3HCH2CHCHC2HCHC2HC2H3SHCH3CPHFeHC2HC2PCH2C2H2PCHC4HC3HCH2C2HC3H2C5H4C2H2C2PCH4C5PH2CH2CHC2H4C4HC4H3SH3CH2CPC2H2CHC3H3SC4SCH2CHC2HCHC3HC4H2C2HCHC2H4CH3PHCH2C2HC2HC3SC2H2C3H2CH3C4H3C2HCHC4HCPHCH3C4HCSCHCHC3H2C4H2C2HCHC2HCH2SH3C8HFeS2H3FeS2FeS2H2FeS3HSHFeSCFeSFeS3FeS2FeS2FeSFeS3C2FeS2FeS2FeSFeS3CHC2HC6H3C7H4C6H4C3H2C7H5CPCH4C6H6C7H2C5H5C7HCH2C3H2C3H2C5HCHCHCH2CH2CHPCH4CHC2HC7PC18H16C2HC6H4C2PC2HC3HC2SCH2CHC2H3CHCSC2HPC2HC2HC3HC2HCH2C2FeHC2HC3HC2H2C3HCHC3H3CHCHC2HC2HCH3C3HSC2H3CHCPHPH2C2H3CHCHCH5C3H2C2HCH2C2HC3HCHCHCH2C2H2CHC3H4CH9C2HCHC2HC2H2CH4C4H2C3HC2HCHC2H3CH3CH2C2H2CHFeCH6C6HC5HCPC2HC2HCHC3HPC2HC3HCHCFeHC4HCHC2HCH2C2H2C2FeS2CHFeSCSFeS2FeS2FeS2FeHFeS3C6H4C9H5C2HC3HSCH2C2H2C4HC2HFeC3H2C2HC4HSH2C2H6C2HFeCH3C2HC2H3C2SCHC4HCH2PH7CHC2H2SHC2H3C2HC3H4C3HCH2CHC2HC2H3CPHSCHC2H2C8PC5H3CHC2H2C4HCHC3HC2H3C2HC2HFeHC5HFeCH2C3HC3HC2HCH2CSC2H7PFeSCFeS2FeSFeS3CHFeS2FeSCSHFeHS2CH2C2HC4H2C9H4C6H4CHC2H3CH2C2PC9HC2HC4HCPC2H7C2HCHCH2C2HC4HCHC7HCHC2H5CH8C6H2CSH3CHC2HC3H12CHC5HC3H2CH2C2H2CHFeCFeS2HC2SH2FeS2FeSCFeSFeS3FeS2FeS2FeSFeHS3HCH4CHFeCHC8H4C2H2C2H2C7H7CH2C2HCH3C2H2C2H2CHCHC5H2PHC2SFeC2H3SH2C10PC4H2C10HCH8CHCH5C2HC4H2CH2C2H2C4H3C3PC18S2H4SCH5CHCH7CHCH4C2H3C3HSFeS2FeSCFeCFeS3FeS2FeS2FeCFeS3C6H4C3H2CHC2HC3HFeCHC6H4CH2CH4CHCH4CH3CHCHCH3CH2CHC2HCH2CHC3H2CHCHCH2C2HPHCHC3H2C3HSC3H2C2HCH2CHCH3C2HCH2C2HC3HCPCH2CH2CSC3HC2H5C2HC3HC3HCHC4H3C6PC3H2C3H3CHC3HCH3C6HC3H4C3HCH2CPHPFeS2FeS2FeSFeS3FeS2FeS2FeCFeCS2FeS2FeS2FeSFeS3FeS2FeS2FeSFeS3FeS2HSHCH4C6H4C7H3C3H4CHCH2C3HC2HPC6H4C2H3C2H2C6H4C6H5FeCHCH2C2H6CHC4HC2H2C10H2CH4CHCH5C2H3C13H9C6PC18H18C4H2C2H3CSHCH3C2HC3HCHC3H4CHCHCHPCH3C3HC2HCHCPCHC2HC3H2CH3C2H3C6H2C2H2C9HPC2H2C6H8CH3PH2C2H3C2HC7H4C3HC2H2CHCHC2H2C10HPC7H5CHC4HCHCHC2HCHC2H2C5H2C4HCFeC2H2C2HC2H2C6HC3SHC4HCHC2H3C4HC3HC2H2CH2CP2H2C3HCHC3HC2H6CHC2FeS2FeS2FeHFeCS2FeS2FeS2FeSFeS3FeS2FeS2FeSFeS3H2SFeS2FeSCFeSFeS3C6H6C2H2C7H4C3H4C6H4C4HCH2CHCHCH2C2HC6H4CH3C3HC5H6CHC6H2C3HC5H3CH9C4HC5H6C3H2CHCHPCSH2CHC9HCHC2H2C2H9C3HC7H2CHCHC9PC2HC11H4CH3CH5CH4CH2C2H2CH2CH3CHC3H2CH2C4H2C6H3CPHC5HC4HC2H2C4PH2PC2H5C4H2C4HCPCPHSCH2CHC2PHC2H2CHCHCHC3HCH3CH2C4HC2HFeHC3HC2HCH2C2HC4HCH4CH2C2HC13H2PH2C3HCH2CH2CH2CH2CH2C2HC3HC6H2C3HCH2CHCHC3SC2H2SCH4CHC3H2C2SCH2PC7SCFeS2FeSCH3C2FeS2CHC2H2SHC3H2CH3C2H2C3FeCHCH2S2HC5HFeSH2CSHC3H2CHCHC2HC4SPC4HCHC2HC2H5C3HCHCHC2HSCFeCH2C3HC3HC3PC19HCH6CH5CSHFeH3CH2CH2PHCSC2FeHCHCHCHC2HC2PCHC2HC2HC2PHCHSHC3HCHC2H2C2SH3CHCH3SCHCH5CH3CH3CHCH4CHCSCHSHSC2HCHCH2CH2CSC4HC2HC2HC3H2C3HC2HC2H2C4HCH2CH2CHC2H2CH2CHCHC8HCH3C3HC3HFeCH5SCH2CHCH4C5HCHC6HC2HCPCHCPC2H4C2H2CH3CH2CFeHCHC2HCHCSHFe2C2HCH3CHSCFeS2H4C2H2C6HCH4CHSH2CHC2HCHCHCH2C2HCHCFeHC3HCHC6SHPH2CHC4FeC2HFeCSHCHC2HC6HC2H2CH3SC5H3S2HCSC2PHC3HC2HCH2C2H2CHC3H2CHC2H3C4H4CHC2HCHC3HCH2
_chemical_formula_sum              "C2160 H1728 S288 Fe144 P72"
_cell_length_a       69.6752
_cell_length_b       69.8879
_cell_length_c       54.0018
_cell_angle_alpha    90.2302
_cell_angle_beta     90.0335
_cell_angle_gamma    116.621

_space_group_name_H-M_alt    "P 1"
_space_group_IT_number       1

loop_
  _space_group_symop_operation_xyz
  'x, y, z'

loop_
  _atom_site_type_symbol
  _atom_site_label
  _atom_site_symmetry_multiplicity
  _atom_site_fract_x
  _atom_site_fract_y
  _atom_site_fract_z
  _atom_site_occupancy
  C   C1        1.0  0.49174  0.05587  0.46792  1.0000
  C   C2        1.0  0.38308  0.00205  0.39742  1.0000
  C   C3        1.0  0.37209  0.21105  0.35504  1.0000
  H   H1        1.0  0.33837  0.20897  0.40187  1.0000
  H   H2        1.0  0.45060  0.21731  0.45708  1.0000
  H   H3        1.0  0.36200  0.20048  0.31762  1.0000
  H   H4        1.0  0.44593  0.17964  0.45819  1.0000
  C   C4        1.0  0.47225  0.09401  0.38461  1.0000
  H   H5        1.0  0.36444  0.15314  0.44271  1.0000
  H   H6        1.0  0.41481  0.00335  0.29567  1.0000
  C   C5        1.0  0.32874  0.19924  0.36435  1.0000
  C   C6        1.0  0.47620  0.05187  0.44969  1.0000
  S   S1        1.0  0.42971  0.06132  0.46083  1.0000
  C   C7        1.0  0.49881  0.02454  0.38701  1.0000
  C   C8        1.0  0.44200  0.07251  0.31761  1.0000
  H   H7        1.0  0.38878  0.21519  0.35136  1.0000
  C   C9        1.0  0.43607  0.05360  0.33097  1.0000
  C   C10       1.0  0.43669  0.20501  0.46593  1.0000
  S   S2        1.0  0.40295  0.08644  0.44143  1.0000
  Fe  Fe1       1.0  0.39851  0.06108  0.46980  1.0000
  C   C11       1.0  0.46255  0.06194  0.28945  1.0000
  C   C12       1.0  0.37509  0.23381  0.42864  1.0000
  H   H8        1.0  0.43513  0.03729  0.38739  1.0000
  H   H9        1.0  0.39653  0.15004  0.42799  1.0000
  C   C13       1.0  0.40969  0.18028  0.40895  1.0000
  H   H10       1.0  0.45940  0.04473  0.45460  1.0000
  C   C14       1.0  0.36943  0.23722  0.47251  1.0000
  H   H11       1.0  0.42622  0.05112  0.34725  1.0000
  H   H12       1.0  0.47029  0.05556  0.41133  1.0000
  H   H13       1.0  0.41913  0.21081  0.39202  1.0000
  C   C15       1.0  0.48296  0.03180  0.35051  1.0000
  H   H14       1.0  0.46038  0.09166  0.28704  1.0000
  C   C16       1.0  0.45537  0.07676  0.29698  1.0000
  C   C17       1.0  0.35696  0.20263  0.33596  1.0000
  S   S3        1.0  0.45272  0.11410  0.46227  1.0000
  H   H15       1.0  0.46847  0.06637  0.36354  1.0000
  C   C18       1.0  0.41978  0.02356  0.38440  1.0000
  C   C19       1.0  0.48603  0.11541  0.39005  1.0000
  C   C20       1.0  0.47864  0.08306  0.36717  1.0000
  C   C21       1.0  0.48235  0.05794  0.42528  1.0000
  Fe  Fe2       1.0  0.41977  0.11141  0.47134  1.0000
  H   H16       1.0  0.48130  0.12400  0.40349  1.0000
  P   P1        1.0  0.38503  0.22351  0.40366  1.0000
  C   C22       1.0  0.38935  0.20080  0.41234  1.0000
  H   H17       1.0  0.47652  0.00507  0.41478  1.0000
  C   C23       1.0  0.47834  0.01239  0.39676  1.0000
  H   H18       1.0  0.46264  0.03190  0.29682  1.0000
  C   C24       1.0  0.49796  0.09362  0.35411  1.0000
  C   C25       1.0  0.45664  0.04303  0.30276  1.0000
  H   H19       1.0  0.47313  0.06525  0.27363  1.0000
  H   H20       1.0  0.32357  0.19017  0.32584  1.0000
  S   S4        1.0  0.42474  0.23784  0.47615  1.0000
  C   C26       1.0  0.44374  0.03889  0.32396  1.0000
  C   C27       1.0  0.37597  0.22802  0.45330  1.0000
  C   C28       1.0  0.40302  0.01969  0.40094  1.0000
  C   C29       1.0  0.40952  0.24615  0.39417  1.0000
  H   H21       1.0  0.31193  0.19449  0.36804  1.0000
  S   S5        1.0  0.44619  0.08066  0.39731  1.0000
  C   C30       1.0  0.40715  0.19854  0.40333  1.0000
  Fe  Fe3       1.0  0.43552  0.08789  0.43442  1.0000
  P   P2        1.0  0.43856  0.01558  0.34258  1.0000
  H   H22       1.0  0.43673  0.08416  0.32380  1.0000
  H   H23       1.0  0.40543  0.03057  0.41634  1.0000
  C   C31       1.0  0.34383  0.20763  0.38347  1.0000
  H   H24       1.0  0.42902  0.24192  0.42288  1.0000
  C   C32       1.0  0.46015  0.00985  0.38337  1.0000
  C   C33       1.0  0.33530  0.19678  0.34059  1.0000
  H   H25       1.0  0.42380  0.17892  0.40272  1.0000
  C   C34       1.0  0.36566  0.21389  0.37883  1.0000
  C   C35       1.0  0.43402  0.18357  0.46662  1.0000
  H   H26       1.0  0.35934  0.18497  0.43226  1.0000
  C   C36       1.0  0.42144  0.21060  0.47678  1.0000
  H   H27       1.0  0.48531  0.03937  0.33260  1.0000
  C   C37       1.0  0.41664  0.01007  0.36388  1.0000
  S   S6        1.0  0.36797  0.02898  0.47417  1.0000
  C   C38       1.0  0.46228  0.01969  0.36018  1.0000
  C   C39       1.0  0.37358  0.18396  0.42585  1.0000
  H   H28       1.0  0.38240  0.21700  0.45792  1.0000
  C   C40       1.0  0.39426  0.16393  0.42307  1.0000
  C   C41       1.0  0.37619  0.16574  0.43146  1.0000
  S   S7        1.0  0.41093  0.13946  0.47906  1.0000
  C   C42       1.0  0.41595  0.16722  0.47805  1.0000
  C   C43       1.0  0.36766  0.24904  0.42351  1.0000
  C   C44       1.0  0.47566  0.08377  0.54219  1.0000
  C   C45       1.0  0.48827  0.02027  0.70858  1.0000
  H   H29       1.0  0.40158  0.01940  0.50300  1.0000
  H   H30       1.0  0.45624  0.08836  0.59866  1.0000
  H   H31       1.0  0.44762  0.08691  0.55366  1.0000
  C   C46       1.0  0.38208  0.03697  0.65414  1.0000
  H   H32       1.0  0.40636  0.03937  0.57805  1.0000
  C   C47       1.0  0.43592  0.06056  0.79356  1.0000
  S   S8        1.0  0.41284  0.08562  0.50056  1.0000
  C   C48       1.0  0.46685  0.08670  0.58518  1.0000
  C   C49       1.0  0.49299  0.10085  0.71614  1.0000
  C   C50       1.0  0.45813  0.02717  0.57100  1.0000
  C   C51       1.0  0.45198  0.06601  0.66958  1.0000
  S   S9        1.0  0.47062  0.08236  0.51000  1.0000
  C   C52       1.0  0.42929  0.08051  0.65208  1.0000
  H   H33       1.0  0.46385  0.03057  0.55211  1.0000
  C   C53       1.0  0.44591  0.01078  0.50381  1.0000
  C   C54       1.0  0.46564  0.02994  0.61493  1.0000
  C   C55       1.0  0.42991  0.09076  0.67454  1.0000
  H   H34       1.0  0.38682  0.16076  0.49760  1.0000
  C   C56       1.0  0.45234  0.07586  0.69240  1.0000
  H   H35       1.0  0.42816  0.05703  0.81150  1.0000
  H   H36       1.0  0.44505  0.03029  0.70268  1.0000
  C   C57       1.0  0.40351  0.19426  0.48809  1.0000
  C   C58       1.0  0.38693  0.03155  0.67739  1.0000
  H   H37       1.0  0.37092  0.23321  0.49154  1.0000
  C   C59       1.0  0.42386  0.05846  0.77213  1.0000
  H   H38       1.0  0.42410  0.06071  0.73260  1.0000
  C   C60       1.0  0.44159  0.08866  0.69455  1.0000
  C   C61       1.0  0.45613  0.07007  0.74712  1.0000
  C   C62       1.0  0.46798  0.07144  0.76868  1.0000
  H   H39       1.0  0.48987  0.04130  0.58676  1.0000
  H   H40       1.0  0.44273  0.09747  0.71148  1.0000
  H   H41       1.0  0.46729  0.06830  0.80838  1.0000
  H   H42       1.0  0.42189  0.10088  0.67620  1.0000
  C   C63       1.0  0.46193  0.08589  0.55971  1.0000
  H   H43       1.0  0.46315  0.01932  0.50196  1.0000
  C   C64       1.0  0.38606  0.02806  0.63267  1.0000
  C   C65       1.0  0.45795  0.06694  0.79181  1.0000
  H   H44       1.0  0.42081  0.08264  0.63632  1.0000
  C   C66       1.0  0.43386  0.06301  0.74895  1.0000
  H   H45       1.0  0.44063  0.06093  0.63192  1.0000
  C   C67       1.0  0.49416  0.08246  0.55029  1.0000
  H   H46       1.0  0.38203  0.03252  0.61501  1.0000
  H   H47       1.0  0.40671  0.05317  0.77348  1.0000
  H   H48       1.0  0.37530  0.04818  0.65272  1.0000
  C   C68       1.0  0.44027  0.06810  0.64964  1.0000
  C   C69       1.0  0.48562  0.08572  0.59314  1.0000
  P   P3        1.0  0.46934  0.07532  0.71740  1.0000
  C   C70       1.0  0.47284  0.03325  0.59050  1.0000
  C   C71       1.0  0.47685  0.05387  0.71358  1.0000
  C   C72       1.0  0.44366  0.02037  0.61996  1.0000
  C   C73       1.0  0.46724  0.01669  0.70359  1.0000
  H   H49       1.0  0.46159  0.05760  0.66657  1.0000
  H   H50       1.0  0.47718  0.03552  0.62998  1.0000
  H   H51       1.0  0.38735  0.04451  0.54194  1.0000
  C   C74       1.0  0.46145  0.03336  0.70635  1.0000
  C   C75       1.0  0.39292  0.02562  0.57004  1.0000
  C   C76       1.0  0.43351  0.02184  0.50231  1.0000
  S   S10       1.0  0.49122  0.08574  0.62509  1.0000
  Fe  Fe4       1.0  0.44461  0.08711  0.48946  1.0000
  H   H52       1.0  0.49670  0.01937  0.65090  1.0000
  C   C77       1.0  0.38226  0.02864  0.54960  1.0000
  H   H53       1.0  0.38395  0.03859  0.69396  1.0000
  H   H54       1.0  0.48503  0.07601  0.76759  1.0000
  C   C78       1.0  0.39545  0.01693  0.67924  1.0000
  C   C79       1.0  0.49778  0.05716  0.71924  1.0000
  H   H55       1.0  0.44115  0.03896  0.49928  1.0000
  C   C80       1.0  0.41123  0.01084  0.50477  1.0000
  H   H56       1.0  0.43862  0.01814  0.63905  1.0000
  H   H57       1.0  0.39897  0.01251  0.69727  1.0000
  C   C81       1.0  0.42865  0.01411  0.60049  1.0000
  C   C82       1.0  0.49940  0.08395  0.57552  1.0000
  C   C83       1.0  0.43611  0.01749  0.57592  1.0000
  C   C84       1.0  0.39487  0.01353  0.63430  1.0000
  H   H58       1.0  0.48984  0.11191  0.75289  1.0000
  C   C85       1.0  0.40083  0.17294  0.48872  1.0000
  H   H59       1.0  0.42504  0.01284  0.56044  1.0000
  C   C86       1.0  0.39922  0.00781  0.65784  1.0000
  H   H60       1.0  0.35665  0.01356  0.52315  1.0000
  H   H61       1.0  0.39154  0.19806  0.49662  1.0000
  C   C87       1.0  0.49928  0.11530  0.73619  1.0000
  C   C88       1.0  0.36504  0.01117  0.53883  1.0000
  C   C89       1.0  0.38632  0.00506  0.58001  1.0000
  P   P4        1.0  0.40013  0.00165  0.60686  1.0000
  H   H62       1.0  0.49286  0.00745  0.70616  1.0000
  C   C90       1.0  0.49606  0.00366  0.65183  1.0000
  H   H63       1.0  0.48682  0.05263  0.48707  1.0000
  C   C91       1.0  0.27176  0.40744  0.38902  1.0000
  S   S11       1.0  0.30910  0.44172  0.45402  1.0000
  C   C92       1.0  0.04422  0.41924  0.31498  1.0000
  C   C93       1.0  0.36189  0.25223  0.46722  1.0000
  S   S12       1.0  0.34965  0.42951  0.45801  1.0000
  Fe  Fe5       1.0  0.42691  0.27229  0.47708  1.0000
  Fe  Fe6       1.0  0.32392  0.42529  0.43064  1.0000
  S   S13       1.0  0.33243  0.43186  0.38997  1.0000
  S   S14       1.0  0.30148  0.39203  0.44374  1.0000
  Fe  Fe7       1.0  0.45559  0.31619  0.45413  1.0000
  S   S15       1.0  0.42374  0.28962  0.44300  1.0000
  S   S16       1.0  0.48520  0.33254  0.43019  1.0000
  Fe  Fe8       1.0  0.40948  0.30641  0.46766  1.0000
  H   H64       1.0  0.03639  0.38706  0.44366  1.0000
  C   C94       1.0  0.41911  0.47566  0.01849  1.0000
  Fe  Fe9       1.0  0.12764  0.39909  0.47256  1.0000
  C   C95       1.0  0.48486  0.48954  0.23192  1.0000
  Fe  Fe10      1.0  0.10677  0.41555  0.43393  1.0000
  S   S17       1.0  0.09912  0.38222  0.44662  1.0000
  S   S18       1.0  0.10661  0.42349  0.39351  1.0000
  H   H65       1.0  0.16141  0.40169  0.34875  1.0000
  H   H66       1.0  0.34045  0.47611  0.98732  1.0000
  C   C96       1.0  0.20014  0.35426  0.41584  1.0000
  H   H67       1.0  0.47706  0.36784  0.44639  1.0000
  S   S19       1.0  0.08448  0.41998  0.46060  1.0000
  S   S20       1.0  0.13598  0.43188  0.45788  1.0000
  C   C97       1.0  0.17868  0.34029  0.42143  1.0000
  H   H68       1.0  0.35505  0.32934  0.42930  1.0000
  H   H69       1.0  0.15720  0.31587  0.44600  1.0000
  C   C98       1.0  0.10733  0.44870  0.38874  1.0000
  C   C99       1.0  0.10402  0.45464  0.36492  1.0000
  C   C100      1.0  0.10543  0.47508  0.36072  1.0000
  C   C101      1.0  0.00941  0.44629  0.40168  1.0000
  H   H70       1.0  0.23011  0.49054  0.05530  1.0000
  C   C102      1.0  0.11165  0.46312  0.40843  1.0000
  H   H71       1.0  0.10066  0.44350  0.34968  1.0000
  H   H72       1.0  0.10317  0.47971  0.34229  1.0000
  H   H73       1.0  0.11430  0.45870  0.42683  1.0000
  H   H74       1.0  0.05576  0.36952  0.42318  1.0000
  C   C103      1.0  0.37183  0.50010  0.99833  1.0000
  H   H75       1.0  0.38254  0.47499  0.45516  1.0000
  H   H76       1.0  0.06059  0.45254  0.40839  1.0000
  C   C104      1.0  0.27505  0.42676  0.40010  1.0000
  C   C105      1.0  0.02073  0.40724  0.47616  1.0000
  H   H77       1.0  0.22399  0.36836  0.30224  1.0000
  C   C106      1.0  0.19028  0.32600  0.45596  1.0000
  C   C107      1.0  0.47318  0.42157  0.37015  1.0000
  C   C108      1.0  0.42776  0.27851  0.36974  1.0000
  H   H78       1.0  0.14614  0.40727  0.38808  1.0000
  H   H79       1.0  0.47836  0.40936  0.36610  1.0000
  C   C109      1.0  0.37572  0.48126  0.34953  1.0000
  C   C110      1.0  0.36170  0.46067  0.35804  1.0000
  C   C111      1.0  0.35048  0.45796  0.38039  1.0000
  C   C112      1.0  0.35333  0.47604  0.39417  1.0000
  H   H80       1.0  0.38426  0.48312  0.33230  1.0000
  H   H81       1.0  0.35949  0.44677  0.34721  1.0000
  H   H82       1.0  0.34478  0.47415  0.41142  1.0000
  H   H83       1.0  0.46399  0.45068  0.28934  1.0000
  H   H84       1.0  0.46098  0.29852  0.37914  1.0000
  C   C113      1.0  0.48626  0.34704  0.40310  1.0000
  C   C114      1.0  0.46768  0.34462  0.39065  1.0000
  H   H85       1.0  0.15933  0.49695  0.48195  1.0000
  H   H86       1.0  0.45206  0.33383  0.39786  1.0000
  H   H87       1.0  0.47566  0.46751  0.34611  1.0000
  C   C115      1.0  0.25752  0.42960  0.40850  1.0000
  H   H88       1.0  0.15720  0.39789  0.42801  1.0000
  H   H89       1.0  0.18311  0.38281  0.42888  1.0000
  C   C116      1.0  0.23796  0.48442  0.22193  1.0000
  H   H90       1.0  0.38852  0.46360  0.41347  1.0000
  H   H91       1.0  0.32128  0.48650  0.01938  1.0000
  C   C117      1.0  0.02197  0.40815  0.31806  1.0000
  S   S21       1.0  0.44974  0.48307  0.29394  1.0000
  H   H92       1.0  0.18652  0.31544  0.47176  1.0000
  C   C118      1.0  0.02608  0.48616  0.46527  1.0000
  H   H93       1.0  0.49051  0.30446  0.14296  1.0000
  C   C119      1.0  0.36626  0.40775  0.40121  1.0000
  C   C120      1.0  0.21167  0.33978  0.45047  1.0000
  C   C121      1.0  0.38230  0.42038  0.38469  1.0000
  H   H94       1.0  0.22330  0.41565  0.41239  1.0000
  C   C122      1.0  0.36092  0.25804  0.44271  1.0000
  C   C123      1.0  0.39335  0.41088  0.43117  1.0000
  C   C124      1.0  0.47420  0.49458  0.44825  1.0000
  C   C125      1.0  0.20364  0.33711  0.31684  1.0000
  C   C126      1.0  0.42863  0.25159  0.40742  1.0000
  C   C127      1.0  0.04737  0.44268  0.46455  1.0000
  C   C128      1.0  0.34566  0.49750  0.15271  1.0000
  C   C129      1.0  0.47168  0.45434  0.35887  1.0000
  C   C130      1.0  0.15757  0.40064  0.38830  1.0000
  H   H95       1.0  0.20633  0.45781  0.22207  1.0000
  C   C131      1.0  0.01267  0.34025  0.45496  1.0000
  C   C132      1.0  0.46032  0.41002  0.47962  1.0000
  C   C133      1.0  0.45985  0.49831  0.46322  1.0000
  C   C134      1.0  0.18091  0.38890  0.36656  1.0000
  C   C135      1.0  0.37180  0.40308  0.42445  1.0000
  C   C136      1.0  0.40917  0.25986  0.37540  1.0000
  H   H96       1.0  0.46170  0.27468  0.41251  1.0000
  H   H97       1.0  0.06840  0.48653  0.38756  1.0000
  C   C137      1.0  0.35046  0.35119  0.45430  1.0000
  H   H98       1.0  0.22449  0.34013  0.46214  1.0000
  P   P5        1.0  0.20633  0.37257  0.39012  1.0000
  H   H99       1.0  0.02603  0.34151  0.44379  1.0000
  H   H100      1.0  0.99993  0.45500  0.26735  1.0000
  C   C138      1.0  0.41169  0.49113  0.02123  1.0000
  C   C139      1.0  0.39838  0.47986  0.41982  1.0000
  H   H101      1.0  0.48230  0.39007  0.40924  1.0000
  C   C140      1.0  0.04046  0.39028  0.42432  1.0000
  C   C141      1.0  0.44721  0.27019  0.40163  1.0000
  H   H102      1.0  0.47897  0.47202  0.42518  1.0000
  Fe  Fe11      1.0  0.33325  0.44326  0.48277  1.0000
  C   C142      1.0  0.48960  0.36977  0.35890  1.0000
  C   C143      1.0  0.49663  0.33195  0.26539  1.0000
  C   C144      1.0  0.46937  0.35582  0.36847  1.0000
  C   C145      1.0  0.35921  0.33720  0.44717  1.0000
  H   H103      1.0  0.19864  0.49351  0.16579  1.0000
  S   S22       1.0  0.25078  0.39694  0.47506  1.0000
  C   C146      1.0  0.21981  0.41277  0.46787  1.0000
  H   H104      1.0  0.41542  0.45090  0.45545  1.0000
  H   H105      1.0  0.07235  0.44954  0.31892  1.0000
  P   P6        1.0  0.02062  0.41719  0.42613  1.0000
  H   H106      1.0  0.18358  0.30826  0.33649  1.0000
  C   C147      1.0  0.03520  0.40455  0.41112  1.0000
  C   C148      1.0  0.04076  0.40823  0.38596  1.0000
  C   C149      1.0  0.05177  0.39813  0.37446  1.0000
  C   C150      1.0  0.05700  0.38404  0.38780  1.0000
  H   H107      1.0  0.26018  0.44432  0.41786  1.0000
  C   C151      1.0  0.39498  0.48625  0.44327  1.0000
  H   H108      1.0  0.18786  0.47995  0.21265  1.0000
  H   H109      1.0  0.39443  0.25658  0.36569  1.0000
  C   C152      1.0  0.48855  0.38461  0.44682  1.0000
  C   C153      1.0  0.18699  0.38325  0.38914  1.0000
  H   H110      1.0  0.05232  0.46825  0.33573  1.0000
  C   C154      1.0  0.02607  0.44162  0.40947  1.0000
  C   C155      1.0  0.17379  0.32627  0.44146  1.0000
  H   H111      1.0  0.16570  0.34042  0.41050  1.0000
  C   C156      1.0  0.03528  0.48021  0.38490  1.0000
  C   C157      1.0  0.05192  0.47538  0.39177  1.0000
  C   C158      1.0  0.04737  0.45612  0.40374  1.0000
  C   C159      1.0  0.47872  0.43884  0.35411  1.0000
  H   H112      1.0  0.39713  0.40726  0.44946  1.0000
  S   S23       1.0  0.38251  0.31420  0.45336  1.0000
  H   H113      1.0  0.03684  0.41902  0.37518  1.0000
  H   H114      1.0  0.05690  0.40170  0.35543  1.0000
  H   H115      1.0  0.06619  0.37680  0.37913  1.0000
  H   H116      1.0  0.34950  0.40178  0.39615  1.0000
  H   H117      1.0  0.18468  0.32681  0.37564  1.0000
  C   C160      1.0  0.21661  0.35393  0.43058  1.0000
  H   H118      1.0  0.35930  0.39364  0.43741  1.0000
  H   H119      1.0  0.01334  0.44908  0.34124  1.0000
  H   H120      1.0  0.00113  0.46919  0.38383  1.0000
  C   C161      1.0  0.44110  0.41550  0.44499  1.0000
  C   C162      1.0  0.47550  0.48440  0.29654  1.0000
  C   C163      1.0  0.40967  0.42300  0.41438  1.0000
  C   C164      1.0  0.23663  0.41327  0.40539  1.0000
  C   C165      1.0  0.19849  0.41081  0.46904  1.0000
  S   S24       1.0  0.49137  0.38314  0.33065  1.0000
  C   C166      1.0  0.43186  0.46294  0.45321  1.0000
  C   C167      1.0  0.03006  0.42301  0.45790  1.0000
  H   H121      1.0  0.00806  0.45197  0.46319  1.0000
  C   C168      1.0  0.01695  0.48357  0.28919  1.0000
  C   C169      1.0  0.11037  0.48969  0.38031  1.0000
  H   H122      1.0  0.45621  0.40599  0.40285  1.0000
  C   C170      1.0  0.20503  0.35852  0.36147  1.0000
  S   S25       1.0  0.15371  0.38749  0.47996  1.0000
  C   C171      1.0  0.19259  0.32553  0.33758  1.0000
  C   C172      1.0  0.20521  0.48751  0.21429  1.0000
  H   H123      1.0  0.41603  0.38633  0.42923  1.0000
  C   C173      1.0  0.16377  0.39534  0.41082  1.0000
  S   S26       1.0  0.44140  0.33393  0.47624  1.0000
  C   C174      1.0  0.36695  0.49666  0.38535  1.0000
  H   H124      1.0  0.45376  0.46473  0.38308  1.0000
  C   C175      1.0  0.44676  0.28369  0.38288  1.0000
  C   C176      1.0  0.43702  0.47985  0.00375  1.0000
  H   H125      1.0  0.42094  0.36247  0.45912  1.0000
  C   C177      1.0  0.49824  0.46614  0.29530  1.0000
  C   C178      1.0  0.02162  0.44029  0.33442  1.0000
  C   C179      1.0  0.37820  0.49936  0.36302  1.0000
  H   H126      1.0  0.41550  0.49002  0.38543  1.0000
  H   H127      1.0  0.23328  0.36489  0.42733  1.0000
  C   C180      1.0  0.11326  0.48359  0.40419  1.0000
  Fe  Fe12      1.0  0.28769  0.40893  0.46907  1.0000
  H   H128      1.0  0.05540  0.45503  0.45106  1.0000
  H   H129      1.0  0.19526  0.42368  0.46248  1.0000
  C   C181      1.0  0.46064  0.41977  0.39104  1.0000
  H   H130      1.0  0.45498  0.35362  0.35865  1.0000
  P   P7        1.0  0.43760  0.43329  0.42326  1.0000
  H   H131      1.0  0.45522  0.46206  0.24084  1.0000
  C   C182      1.0  0.45733  0.42374  0.46305  1.0000
  C   C183      1.0  0.01403  0.46561  0.38971  1.0000
  H   H132      1.0  0.39787  0.48767  0.03287  1.0000
  H   H133      1.0  0.42733  0.28933  0.35568  1.0000
  H   H134      1.0  0.33960  0.35377  0.44199  1.0000
  C   C184      1.0  0.43109  0.37961  0.46029  1.0000
  C   C185      1.0  0.40393  0.42800  0.39119  1.0000
  C   C186      1.0  0.44760  0.49956  0.99183  1.0000
  C   C187      1.0  0.01662  0.35116  0.47769  1.0000
  C   C188      1.0  0.17845  0.38676  0.41126  1.0000
  C   C189      1.0  0.42824  0.39325  0.44345  1.0000
  H   H135      1.0  0.24876  0.37600  0.37793  1.0000
  H   H136      1.0  0.46783  0.44072  0.46432  1.0000
  C   C190      1.0  0.34249  0.49233  0.17781  1.0000
  C   C191      1.0  0.20732  0.37775  0.48574  1.0000
  H   H137      1.0  0.11704  0.49483  0.41939  1.0000
  C   C192      1.0  0.21533  0.35937  0.31828  1.0000
  H   H138      1.0  0.00788  0.39164  0.47156  1.0000
  H   H139      1.0  0.34663  0.48624  0.13952  1.0000
  H   H140      1.0  0.18743  0.38671  0.34923  1.0000
  C   C193      1.0  0.35515  0.36112  0.47761  1.0000
  C   C194      1.0  0.25093  0.39104  0.38603  1.0000
  H   H141      1.0  0.34102  0.47704  0.18414  1.0000
  Fe  Fe13      1.0  0.32675  0.39744  0.47307  1.0000
  C   C195      1.0  0.05517  0.44081  0.32168  1.0000
  H   H142      1.0  0.24601  0.47466  0.22612  1.0000
  C   C196      1.0  0.16617  0.39746  0.36618  1.0000
  H   H143      1.0  0.41596  0.43769  0.37799  1.0000
  H   H144      1.0  0.37789  0.42434  0.36687  1.0000
  C   C197      1.0  0.37299  0.33304  0.46301  1.0000
  H   H145      1.0  0.48827  0.43998  0.33783  1.0000
  H   H146      1.0  0.23271  0.42718  0.46059  1.0000
  C   C198      1.0  0.05131  0.38010  0.41269  1.0000
  C   C199      1.0  0.49138  0.39725  0.42593  1.0000
  H   H147      1.0  0.22519  0.38731  0.34130  1.0000
  C   C200      1.0  0.18376  0.50050  0.13484  1.0000
  H   H148      1.0  0.29127  0.43935  0.40253  1.0000
  C   C201      1.0  0.43877  0.48243  0.46584  1.0000
  H   H149      1.0  0.35559  0.27010  0.43871  1.0000
  H   H150      1.0  0.20320  0.32884  0.29967  1.0000
  C   C202      1.0  0.04387  0.45132  0.33135  1.0000
  C   C203      1.0  0.21562  0.47493  0.21964  1.0000
  C   C204      1.0  0.23317  0.39395  0.39388  1.0000
  C   C205      1.0  0.45372  0.43543  0.39618  1.0000
  Fe  Fe14      1.0  0.07798  0.38749  0.47507  1.0000
  C   C206      1.0  0.18142  0.39210  0.47844  1.0000
  S   S27       1.0  0.04246  0.48541  0.28218  1.0000
  H   H151      1.0  0.28547  0.40514  0.38312  1.0000
  C   C207      1.0  0.41369  0.49473  0.40411  1.0000
  H   H152      1.0  0.00299  0.38346  0.35841  1.0000
  C   C208      1.0  0.21601  0.37004  0.34047  1.0000
  C   C209      1.0  0.44708  0.38799  0.47842  1.0000
  C   C210      1.0  0.44615  0.45906  0.43810  1.0000
  H   H153      1.0  0.48081  0.32154  0.27244  1.0000
  H   H154      1.0  0.03887  0.49505  0.37538  1.0000
  H   H155      1.0  0.05299  0.41123  0.30708  1.0000
  C   C211      1.0  0.19326  0.33615  0.35983  1.0000
  C   C212      1.0  0.45930  0.45271  0.37985  1.0000
  C   C213      1.0  0.47791  0.46564  0.29339  1.0000
  C   C214      1.0  0.46748  0.47493  0.43600  1.0000
  H   H156      1.0  0.41097  0.46042  0.02784  1.0000
  H   H157      1.0  0.42768  0.48522  0.47765  1.0000
  C   C215      1.0  0.34943  0.48914  1.00000  1.0000
  H   H158      1.0  0.18350  0.48745  0.12376  1.0000
  C   C216      1.0  0.01489  0.49880  0.30433  1.0000
  C   C217      1.0  0.33862  0.49496  0.01804  1.0000
  H   H159      1.0  0.36749  0.25430  0.40472  1.0000
  H   H160      1.0  0.44274  0.46785  0.00161  1.0000
  C   C218      1.0  0.44967  0.48834  0.22829  1.0000
  C   C219      1.0  0.46253  0.47830  0.23386  1.0000
  H   H161      1.0  0.03913  0.48506  0.47484  1.0000
  H   H162      1.0  0.12682  0.49949  0.46782  1.0000
  H   H163      1.0  0.43245  0.47983  0.23085  1.0000
  H   H164      1.0  0.49759  0.30818  0.24080  1.0000
  H   H165      1.0  0.20555  0.50136  0.07806  1.0000
  H   H166      1.0  0.35739  0.25985  0.48212  1.0000
  C   C220      1.0  0.00827  0.46714  0.45862  1.0000
  C   C221      1.0  0.01044  0.41855  0.32793  1.0000
  C   C222      1.0  0.22440  0.39609  0.47611  1.0000
  H   H167      1.0  0.01368  0.39157  0.31218  1.0000
  H   H168      1.0  0.49184  0.50008  0.39059  1.0000
  H   H169      1.0  0.49952  0.38313  0.48362  1.0000
  H   H170      1.0  0.99988  0.41220  0.27902  1.0000
  H   H171      1.0  0.49441  0.48157  0.23724  1.0000
  C   C223      1.0  0.48391  0.40813  0.54133  1.0000
  H   H172      1.0  0.03611  0.49343  0.53232  1.0000
  C   C224      1.0  0.36904  0.35705  0.49337  1.0000
  H   H173      1.0  0.46119  0.38071  0.62423  1.0000
  H   H174      1.0  0.00297  0.49586  0.75688  1.0000
  S   S28       1.0  0.45043  0.32974  0.54610  1.0000
  H   H175      1.0  0.41451  0.33367  0.57216  1.0000
  S   S29       1.0  0.10574  0.40130  0.50243  1.0000
  S   S30       1.0  0.12249  0.46503  0.50596  1.0000
  H   H176      1.0  0.39702  0.45055  0.49934  1.0000
  C   C225      1.0  0.14765  0.48334  0.60527  1.0000
  C   C226      1.0  0.47637  0.35070  0.55126  1.0000
  C   C227      1.0  0.48068  0.36238  0.57348  1.0000
  H   H177      1.0  0.49148  0.37655  0.64214  1.0000
  C   C228      1.0  0.37700  0.35134  0.56151  1.0000
  H   H178      1.0  0.46799  0.35857  0.58687  1.0000
  Fe  Fe15      1.0  0.44230  0.31400  0.50815  1.0000
  C   C229      1.0  0.46248  0.40403  0.54450  1.0000
  C   C230      1.0  0.39322  0.47964  0.57177  1.0000
  H   H179      1.0  0.42058  0.47137  0.53404  1.0000
  C   C231      1.0  0.17402  0.41630  0.55120  1.0000
  C   C232      1.0  0.15649  0.43315  0.52730  1.0000
  H   H180      1.0  0.47030  0.49770  0.63147  1.0000
  H   H181      1.0  0.07577  0.44105  0.57931  1.0000
  C   C233      1.0  0.40456  0.44332  0.51113  1.0000
  C   C234      1.0  0.45717  0.41646  0.56103  1.0000
  H   H182      1.0  0.99980  0.44676  0.70581  1.0000
  C   C235      1.0  0.48312  0.47481  0.63473  1.0000
  C   C236      1.0  0.37805  0.34332  0.48613  1.0000
  H   H183      1.0  0.46823  0.46139  0.62941  1.0000
  H   H184      1.0  0.42379  0.35287  0.63107  1.0000
  H   H185      1.0  0.48783  0.39782  0.52947  1.0000
  C   C237      1.0  0.48461  0.28124  0.67525  1.0000
  C   C238      1.0  0.36941  0.47619  0.52821  1.0000
  C   C239      1.0  0.36704  0.45772  0.54062  1.0000
  S   S31       1.0  0.34355  0.37789  0.48861  1.0000
  H   H186      1.0  0.18206  0.42679  0.51349  1.0000
  H   H187      1.0  0.35599  0.44212  0.53354  1.0000
  C   C240      1.0  0.45812  0.36683  0.63548  1.0000
  C   C241      1.0  0.48670  0.31650  0.68238  1.0000
  C   C242      1.0  0.09742  0.47455  0.58130  1.0000
  C   C243      1.0  0.02042  0.48721  0.65086  1.0000
  C   C244      1.0  0.37878  0.49422  0.64535  1.0000
  C   C245      1.0  0.11234  0.46822  0.53482  1.0000
  C   C246      1.0  0.09611  0.45099  0.54704  1.0000
  C   C247      1.0  0.08855  0.45426  0.57006  1.0000
  H   H188      1.0  0.44935  0.40854  0.61432  1.0000
  H   H189      1.0  0.39987  0.44066  0.63066  1.0000
  H   H190      1.0  0.08944  0.43515  0.53884  1.0000
  H   H191      1.0  0.12196  0.46618  0.66014  1.0000
  C   C248      1.0  0.39575  0.49806  0.55918  1.0000
  C   C249      1.0  0.40564  0.44850  0.74111  1.0000
  H   H192      1.0  0.47247  0.31995  0.71670  1.0000
  C   C250      1.0  0.41038  0.43326  0.62719  1.0000
  C   C251      1.0  0.41211  0.42663  0.60319  1.0000
  C   C252      1.0  0.43712  0.35116  0.63935  1.0000
  C   C253      1.0  0.04038  0.49629  0.71629  1.0000
  H   H193      1.0  0.02200  0.39834  0.51403  1.0000
  H   H194      1.0  0.48963  0.34672  0.51674  1.0000
  H   H195      1.0  0.45004  0.39073  0.53462  1.0000
  H   H196      1.0  0.37566  0.31995  0.56302  1.0000
  H   H197      1.0  0.04094  0.37473  0.55878  1.0000
  S   S32       1.0  0.31127  0.41166  0.49975  1.0000
  H   H198      1.0  0.34477  0.41314  0.72973  1.0000
  C   C254      1.0  0.00458  0.47024  0.52101  1.0000
  C   C255      1.0  0.44062  0.48089  0.70021  1.0000
  H   H199      1.0  0.38000  0.49530  0.98438  1.0000
  C   C256      1.0  0.45061  0.33086  0.66409  1.0000
  C   C257      1.0  0.07353  0.37963  0.55480  1.0000
  C   C258      1.0  0.39344  0.45726  0.72931  1.0000
  C   C259      1.0  0.48432  0.49542  0.63574  1.0000
  H   H200      1.0  0.06986  0.36888  0.53900  1.0000
  P   P8        1.0  0.42944  0.40991  0.56714  1.0000
  H   H201      1.0  0.43771  0.37233  0.57546  1.0000
  H   H202      1.0  0.46161  0.28281  0.73028  1.0000
  C   C260      1.0  0.43395  0.49394  0.71393  1.0000
  C   C261      1.0  0.42245  0.43076  0.64646  1.0000
  H   H203      1.0  0.00977  0.45818  0.51631  1.0000
  H   H204      1.0  0.36002  0.34535  0.55754  1.0000
  C   C262      1.0  0.38578  0.33703  0.56465  1.0000
  H   H205      1.0  0.42124  0.43607  0.66496  1.0000
  C   C263      1.0  0.47534  0.36444  0.64569  1.0000
  P   P9        1.0  0.40572  0.48491  0.71992  1.0000
  C   C264      1.0  0.02915  0.47575  0.70631  1.0000
  H   H206      1.0  0.40556  0.42028  0.75714  1.0000
  H   H207      1.0  0.15616  0.49792  0.59479  1.0000
  H   H208      1.0  0.39025  0.41296  0.49205  1.0000
  C   C265      1.0  0.41771  0.45498  0.53080  1.0000
  C   C266      1.0  0.13990  0.48426  0.62885  1.0000
  C   C267      1.0  0.46988  0.28828  0.71281  1.0000
  H   H209      1.0  0.10881  0.35181  0.64131  1.0000
  H   H210      1.0  0.44938  0.37734  0.49129  1.0000
  H   H211      1.0  0.38846  0.34027  0.49869  1.0000
  C   C268      1.0  0.14286  0.43097  0.54721  1.0000
  H   H212      1.0  0.44731  0.31674  0.67489  1.0000
  H   H213      1.0  0.10700  0.38745  0.55487  1.0000
  H   H214      1.0  0.41707  0.32097  0.65647  1.0000
  C   C269      1.0  0.37885  0.45947  0.56243  1.0000
  H   H215      1.0  0.06919  0.46112  0.49365  1.0000
  H   H216      1.0  0.40232  0.42846  0.58869  1.0000
  H   H217      1.0  0.36671  0.39756  0.74948  1.0000
  C   C270      1.0  0.06184  0.39673  0.58629  1.0000
  C   C271      1.0  0.09961  0.40504  0.58340  1.0000
  C   C272      1.0  0.08295  0.40769  0.59506  1.0000
  P   P10       1.0  0.12687  0.41868  0.59489  1.0000
  C   C273      1.0  0.13046  0.40281  0.61908  1.0000
  C   C274      1.0  0.14751  0.41239  0.63597  1.0000
  C   C275      1.0  0.15048  0.40022  0.65473  1.0000
  C   C276      1.0  0.13651  0.37842  0.65670  1.0000
  C   C277      1.0  0.11959  0.36874  0.63985  1.0000
  C   C278      1.0  0.11658  0.38085  0.62106  1.0000
  C   C279      1.0  0.13204  0.44452  0.60787  1.0000
  C   C280      1.0  0.12453  0.44566  0.63173  1.0000
  C   C281      1.0  0.37135  0.44449  0.72567  1.0000
  H   H218      1.0  0.46921  0.25792  0.70383  1.0000
  C   C282      1.0  0.43337  0.33319  0.65366  1.0000
  C   C283      1.0  0.14371  0.46360  0.59476  1.0000
  H   H219      1.0  0.04917  0.39929  0.59501  1.0000
  H   H220      1.0  0.08618  0.41859  0.61053  1.0000
  H   H221      1.0  0.16250  0.40694  0.58805  1.0000
  H   H222      1.0  0.15854  0.42925  0.63455  1.0000
  S   S33       1.0  0.49914  0.44560  0.64002  1.0000
  H   H223      1.0  0.13882  0.36900  0.67124  1.0000
  H   H224      1.0  0.10345  0.37300  0.60813  1.0000
  H   H225      1.0  0.11540  0.43124  0.64222  1.0000
  H   H226      1.0  0.14967  0.46352  0.57635  1.0000
  C   C284      1.0  0.17196  0.42569  0.52922  1.0000
  S   S34       1.0  0.40803  0.48144  0.59898  1.0000
  H   H227      1.0  0.00245  0.45456  0.63842  1.0000
  C   C285      1.0  0.05718  0.38291  0.56597  1.0000
  C   C286      1.0  0.02867  0.41097  0.50040  1.0000
  C   C287      1.0  0.38382  0.49631  0.53755  1.0000
  H   H228      1.0  0.01012  0.44444  0.81810  1.0000
  H   H229      1.0  0.44601  0.42003  0.65652  1.0000
  H   H230      1.0  0.42905  0.46525  0.69388  1.0000
  C   C288      1.0  0.47178  0.34652  0.66017  1.0000
  C   C289      1.0  0.16068  0.41445  0.57135  1.0000
  H   H231      1.0  0.00139  0.35651  0.50993  1.0000
  C   C290      1.0  0.42088  0.36681  0.57120  1.0000
  C   C291      1.0  0.14499  0.42183  0.56952  1.0000
  S   S35       1.0  0.35470  0.47498  0.50112  1.0000
  H   H232      1.0  0.13056  0.43632  0.54511  1.0000
  H   H233      1.0  0.47012  0.44402  0.58562  1.0000
  C   C292      1.0  0.47369  0.43391  0.57309  1.0000
  S   S36       1.0  0.08864  0.47731  0.61122  1.0000
  H   H234      1.0  0.37687  0.44514  0.57198  1.0000
  H   H235      1.0  0.37330  0.49666  0.62738  1.0000
  H   H236      1.0  0.42255  0.45824  0.74490  1.0000
  C   C293      1.0  0.09460  0.39042  0.56366  1.0000
  C   C294      1.0  0.39602  0.42700  0.74823  1.0000
  C   C295      1.0  0.47606  0.30930  0.70506  1.0000
  H   H237      1.0  0.38307  0.38423  0.56021  1.0000
  C   C296      1.0  0.42650  0.41807  0.59813  1.0000
  Fe  Fe16      1.0  0.11282  0.43325  0.48617  1.0000
  C   C297      1.0  0.42603  0.44513  0.54721  1.0000
  C   C298      1.0  0.40937  0.41238  0.52313  1.0000
  C   C299      1.0  0.41239  0.38134  0.56671  1.0000
  C   C300      1.0  0.49086  0.30227  0.66746  1.0000
  H   H238      1.0  0.36153  0.45112  0.71727  1.0000
  H   H239      1.0  0.49155  0.33385  0.61978  1.0000
  C   C301      1.0  0.42103  0.42341  0.54417  1.0000
  H   H240      1.0  0.40625  0.39600  0.51955  1.0000
  H   H241      1.0  0.03587  0.48778  0.64677  1.0000
  H   H242      1.0  0.43549  0.45420  0.56289  1.0000
  C   C302      1.0  0.38682  0.47177  0.67336  1.0000
  C   C303      1.0  0.39019  0.37340  0.56278  1.0000
  C   C304      1.0  0.43626  0.42159  0.64174  1.0000
  C   C305      1.0  0.43826  0.41523  0.61770  1.0000
  C   C306      1.0  0.40766  0.34477  0.56977  1.0000
  C   C307      1.0  0.46227  0.48810  0.69422  1.0000
  C   C308      1.0  0.11336  0.49188  0.56884  1.0000
  H   H243      1.0  0.37327  0.46211  0.63680  1.0000
  C   C309      1.0  0.39446  0.48827  0.69111  1.0000
  S   S37       1.0  0.45950  0.29864  0.48706  1.0000
  H   H244      1.0  0.46738  0.47799  0.68364  1.0000
  H   H245      1.0  0.16365  0.40772  0.66773  1.0000
  C   C310      1.0  0.36179  0.42299  0.73281  1.0000
  C   C311      1.0  0.49281  0.35568  0.53391  1.0000
  H   H246      1.0  0.47307  0.41648  0.49322  1.0000
  S   S38       1.0  0.04327  0.36719  0.48963  1.0000
  H   H247      1.0  0.37259  0.36438  0.51150  1.0000
  C   C312      1.0  0.04592  0.43049  0.50675  1.0000
  H   H248      1.0  0.05247  0.43307  0.52538  1.0000
  H   H249      1.0  0.38747  0.45682  0.67668  1.0000
  C   C313      1.0  0.37877  0.47468  0.65072  1.0000
  C   C314      1.0  0.37413  0.41422  0.74397  1.0000
  C   C315      1.0  0.12838  0.46543  0.64209  1.0000
  P   P11       1.0  0.49448  0.34371  0.67273  1.0000
  S   S39       1.0  0.40955  0.28669  0.50082  1.0000
  C   C316      1.0  0.47417  0.27426  0.69791  1.0000
  C   C317      1.0  0.12077  0.48871  0.54566  1.0000
  C   C318      1.0  0.40069  0.42213  0.50708  1.0000
  C   C319      1.0  0.01945  0.49013  0.53004  1.0000
  H   H250      1.0  0.03654  0.47032  0.69206  1.0000
  H   H251      1.0  0.21039  0.36486  0.49256  1.0000
  H   H252      1.0  0.48770  0.27029  0.66356  1.0000
  H   H253      1.0  0.15474  0.44026  0.51018  1.0000
  H   H254      1.0  0.18581  0.41019  0.55240  1.0000
  H   H255      1.0  0.49188  0.38252  0.69103  1.0000
  H   H256      1.0  0.47621  0.49510  0.56877  1.0000
  H   H257      1.0  0.17352  0.36122  0.49410  1.0000
  H   H258      1.0  0.14233  0.49951  0.63663  1.0000
  C   C320      1.0  0.40057  0.49918  0.74501  1.0000
  C   C321      1.0  0.00144  0.46838  0.64619  1.0000
  C   C322      1.0  0.49508  0.43799  0.56985  1.0000
  H   H259      1.0  0.00410  0.44551  0.77318  1.0000
  C   C323      1.0  0.00820  0.46249  0.71408  1.0000
  H   H260      1.0  0.37093  0.49686  0.72934  1.0000
  C   C324      1.0  0.01005  0.49016  0.74258  1.0000
  H   H261      1.0  0.49884  0.30724  0.64981  1.0000
  C   C325      1.0  0.00245  0.49979  0.59857  1.0000
  C   C326      1.0  0.18625  0.37574  0.48676  1.0000
  C   C327      1.0  0.05524  0.44635  0.48885  1.0000
  Fe  Fe17      1.0  0.12097  0.65892  0.45143  1.0000
  S   S40       1.0  0.10845  0.68148  0.43774  1.0000
  S   S41       1.0  0.13521  0.64211  0.42707  1.0000
  S   S42       1.0  0.11320  0.51573  0.37573  1.0000
  C   C328      1.0  0.05669  0.54048  0.41735  1.0000
  Fe  Fe18      1.0  0.42923  0.54116  0.26590  1.0000
  C   C329      1.0  0.17575  0.51397  0.12504  1.0000
  S   S43       1.0  0.41154  0.54042  0.22959  1.0000
  Fe  Fe19      1.0  0.46434  0.56088  0.30575  1.0000
  S   S44       1.0  0.45051  0.53197  0.33018  1.0000
  C   C330      1.0  0.33788  0.63363  0.00353  1.0000
  H   H262      1.0  0.15881  0.52137  0.20088  1.0000
  C   C331      1.0  0.16136  0.56482  0.38145  1.0000
  Fe  Fe20      1.0  0.41866  0.53111  0.32135  1.0000
  S   S45       1.0  0.39474  0.52554  0.35227  1.0000
  S   S46       1.0  0.46192  0.54229  0.27057  1.0000
  S   S47       1.0  0.43275  0.56183  0.29951  1.0000
  Fe  Fe21      1.0  0.38216  0.58437  0.05090  1.0000
  S   S48       1.0  0.37933  0.56287  0.08332  1.0000
  S   S49       1.0  0.38201  0.57250  0.01137  1.0000
  Fe  Fe22      1.0  0.37054  0.61364  0.08325  1.0000
  S   S50       1.0  0.36614  0.59427  0.11775  1.0000
  S   S51       1.0  0.35897  0.63883  0.07986  1.0000
  Fe  Fe23      1.0  0.39646  0.59291  0.10588  1.0000
  S   S52       1.0  0.42302  0.59915  0.13433  1.0000
  Fe  Fe24      1.0  0.34956  0.56591  0.09285  1.0000
  S   S53       1.0  0.31943  0.53642  0.10175  1.0000
  S   S54       1.0  0.40210  0.61457  0.07250  1.0000
  S   S55       1.0  0.35115  0.58510  0.05964  1.0000
  Fe  Fe25      1.0  0.22049  0.60242  0.07561  1.0000
  S   S56       1.0  0.21557  0.62179  0.10653  1.0000
  S   S57       1.0  0.22319  0.61401  0.03557  1.0000
  Fe  Fe26      1.0  0.22940  0.57419  0.11218  1.0000
  S   S58       1.0  0.22573  0.59156  0.14527  1.0000
  S   S59       1.0  0.23416  0.54500  0.12037  1.0000
  Fe  Fe27      1.0  0.19685  0.59025  0.12617  1.0000
  S   S60       1.0  0.16529  0.57921  0.14760  1.0000
  Fe  Fe28      1.0  0.24481  0.62138  0.12355  1.0000
  S   S61       1.0  0.27204  0.64835  0.14376  1.0000
  S   S62       1.0  0.19918  0.57099  0.09360  1.0000
  S   S63       1.0  0.25097  0.60398  0.09197  1.0000
  H   H263      1.0  0.12973  0.51107  0.23117  1.0000
  S   S64       1.0  0.41641  0.73548  0.10986  1.0000
  H   H264      1.0  0.18354  0.67814  0.47359  1.0000
  Fe  Fe29      1.0  0.07184  0.51383  0.29720  1.0000
  C   C332      1.0  0.36596  0.57121  0.20661  1.0000
  C   C333      1.0  0.14191  0.51391  0.46930  1.0000
  Fe  Fe30      1.0  0.09081  0.55789  0.32153  1.0000
  S   S65       1.0  0.12298  0.55855  0.32613  1.0000
  S   S66       1.0  0.08188  0.58304  0.33713  1.0000
  Fe  Fe31      1.0  0.11855  0.54530  0.28717  1.0000
  S   S67       1.0  0.14913  0.55912  0.26354  1.0000
  Fe  Fe32      1.0  0.10460  0.52457  0.33862  1.0000
  H   H265      1.0  0.40951  0.73666  0.27176  1.0000
  S   S68       1.0  0.08738  0.54727  0.28149  1.0000
  S   S69       1.0  0.07260  0.52464  0.33634  1.0000
  C   C334      1.0  0.02005  0.63313  0.46760  1.0000
  C   C335      1.0  0.16122  0.57247  0.17968  1.0000
  C   C336      1.0  0.14016  0.56092  0.18861  1.0000
  C   C337      1.0  0.13607  0.55647  0.21411  1.0000
  C   C338      1.0  0.15309  0.56357  0.23105  1.0000
  C   C339      1.0  0.17417  0.57471  0.22206  1.0000
  C   C340      1.0  0.17826  0.57898  0.19659  1.0000
  H   H266      1.0  0.12688  0.55553  0.17570  1.0000
  H   H267      1.0  0.11976  0.54773  0.22066  1.0000
  H   H268      1.0  0.18743  0.58039  0.23498  1.0000
  H   H269      1.0  0.19459  0.58764  0.19012  1.0000
  C   C341      1.0  0.28665  0.67198  0.12668  1.0000
  C   C342      1.0  0.30605  0.68790  0.13619  1.0000
  C   C343      1.0  0.31761  0.70710  0.12316  1.0000
  C   C344      1.0  0.30954  0.71064  0.10082  1.0000
  C   C345      1.0  0.29043  0.69451  0.09110  1.0000
  C   C346      1.0  0.27912  0.67515  0.10382  1.0000
  H   H270      1.0  0.31207  0.68546  0.15375  1.0000
  H   H271      1.0  0.33237  0.71941  0.13076  1.0000
  H   H272      1.0  0.28433  0.69708  0.07370  1.0000
  H   H273      1.0  0.26431  0.66291  0.09622  1.0000
  C   C347      1.0  0.37549  0.66557  0.08810  1.0000
  C   C348      1.0  0.39756  0.67322  0.09187  1.0000
  C   C349      1.0  0.41017  0.69473  0.09866  1.0000
  C   C350      1.0  0.40075  0.70865  0.10121  1.0000
  C   C351      1.0  0.37870  0.70094  0.09735  1.0000
  C   C352      1.0  0.36615  0.67948  0.09083  1.0000
  H   H274      1.0  0.40487  0.66258  0.08952  1.0000
  H   H275      1.0  0.42722  0.70063  0.10178  1.0000
  H   H276      1.0  0.37117  0.71138  0.09993  1.0000
  H   H277      1.0  0.34905  0.67360  0.08831  1.0000
  C   C353      1.0  0.29575  0.53937  0.10441  1.0000
  C   C354      1.0  0.27703  0.52165  0.11184  1.0000
  C   C355      1.0  0.25812  0.52355  0.11581  1.0000
  C   C356      1.0  0.25766  0.54312  0.11213  1.0000
  C   C357      1.0  0.27602  0.56065  0.10340  1.0000
  C   C358      1.0  0.29521  0.55887  0.09978  1.0000
  H   H278      1.0  0.24390  0.50990  0.12229  1.0000
  C   C359      1.0  0.35210  0.52945  0.25065  1.0000
  H   H279      1.0  0.27543  0.57555  0.09982  1.0000
  H   H280      1.0  0.30957  0.57256  0.09368  1.0000
  H   H281      1.0  0.44206  0.57611  0.10434  1.0000
  C   C360      1.0  0.21519  0.59975  0.00701  1.0000
  C   C361      1.0  0.14116  0.58025  0.46767  1.0000
  H   H282      1.0  0.19142  0.57017  0.02211  1.0000
  Fe  Fe33      1.0  0.12736  0.70275  0.46983  1.0000
  C   C362      1.0  0.22648  0.62273  0.46791  1.0000
  C   C363      1.0  0.04043  0.55055  0.47470  1.0000
  H   H283      1.0  0.33134  0.67057  0.04933  1.0000
  H   H284      1.0  0.30408  0.52673  0.28931  1.0000
  H   H285      1.0  0.41810  0.61346  0.99831  1.0000
  C   C364      1.0  0.41601  0.55692  0.20294  1.0000
  C   C365      1.0  0.40061  0.54969  0.18384  1.0000
  C   C366      1.0  0.40261  0.56236  0.16280  1.0000
  C   C367      1.0  0.42025  0.58244  0.16037  1.0000
  C   C368      1.0  0.43605  0.58948  0.17911  1.0000
  C   C369      1.0  0.43391  0.57688  0.20036  1.0000
  H   H286      1.0  0.38700  0.53414  0.18538  1.0000
  H   H287      1.0  0.39054  0.55658  0.14841  1.0000
  H   H288      1.0  0.44985  0.60493  0.17739  1.0000
  H   H289      1.0  0.44597  0.58266  0.21479  1.0000
  H   H290      1.0  0.13480  0.50166  0.27398  1.0000
  H   H291      1.0  0.11683  0.55338  0.41870  1.0000
  H   H292      1.0  0.36570  0.53013  0.24020  1.0000
  H   H293      1.0  0.09610  0.54422  0.45736  1.0000
  C   C370      1.0  0.12899  0.62984  0.28254  1.0000
  C   C371      1.0  0.09050  0.55104  0.39624  1.0000
  C   C372      1.0  0.06609  0.53906  0.43986  1.0000
  H   H294      1.0  0.48389  0.58470  0.40455  1.0000
  C   C373      1.0  0.31968  0.57081  0.20237  1.0000
  C   C374      1.0  0.11979  0.62554  0.40250  1.0000
  C   C375      1.0  0.12808  0.61375  0.38904  1.0000
  C   C376      1.0  0.11652  0.60050  0.36922  1.0000
  C   C377      1.0  0.09653  0.59906  0.36249  1.0000
  C   C378      1.0  0.08821  0.61094  0.37588  1.0000
  C   C379      1.0  0.09971  0.62401  0.39597  1.0000
  H   H295      1.0  0.14362  0.61505  0.39386  1.0000
  H   H296      1.0  0.12327  0.59169  0.35898  1.0000
  H   H297      1.0  0.07289  0.61013  0.37057  1.0000
  H   H298      1.0  0.09326  0.63323  0.40606  1.0000
  Fe  Fe34      1.0  0.08069  0.66389  0.46427  1.0000
  C   C380      1.0  0.29886  0.54744  0.02926  1.0000
  H   H299      1.0  0.36499  0.67543  0.02975  1.0000
  C   C381      1.0  0.22122  0.55373  0.20840  1.0000
  C   C382      1.0  0.21979  0.56523  0.22911  1.0000
  C   C383      1.0  0.23378  0.58704  0.23164  1.0000
  C   C384      1.0  0.24945  0.59744  0.21370  1.0000
  C   C385      1.0  0.25116  0.58603  0.19324  1.0000
  C   C386      1.0  0.23689  0.56432  0.19039  1.0000
  C   C387      1.0  0.47850  0.57367  0.46696  1.0000
  H   H300      1.0  0.33995  0.73129  0.02153  1.0000
  H   H301      1.0  0.20760  0.55761  0.24307  1.0000
  H   H302      1.0  0.23216  0.59594  0.24730  1.0000
  H   H303      1.0  0.25997  0.61444  0.21534  1.0000
  H   H304      1.0  0.26291  0.59423  0.17896  1.0000
  H   H305      1.0  0.23778  0.55585  0.17391  1.0000
  C   C388      1.0  0.02754  0.55689  0.30553  1.0000
  C   C389      1.0  0.01921  0.56099  0.32737  1.0000
  H   H306      1.0  0.04444  0.56078  0.30444  1.0000
  H   H307      1.0  0.03014  0.56835  0.34263  1.0000
  H   H308      1.0  0.32226  0.53760  0.04215  1.0000
  C   C390      1.0  0.27549  0.62011  0.03163  1.0000
  C   C391      1.0  0.33089  0.62303  0.23467  1.0000
  C   C392      1.0  0.34607  0.61898  0.24758  1.0000
  C   C393      1.0  0.36706  0.62698  0.23872  1.0000
  C   C394      1.0  0.37300  0.63926  0.21713  1.0000
  C   C395      1.0  0.35789  0.64353  0.20408  1.0000
  C   C396      1.0  0.33671  0.63511  0.21293  1.0000
  P   P12       1.0  0.36494  0.65855  0.17547  1.0000
  C   C397      1.0  0.36664  0.68498  0.17941  1.0000
  C   C398      1.0  0.39046  0.66100  0.16450  1.0000
  C   C399      1.0  0.39150  0.64832  0.14487  1.0000
  C   C400      1.0  0.41124  0.64933  0.13775  1.0000
  C   C401      1.0  0.43011  0.66344  0.14967  1.0000
  C   C402      1.0  0.42930  0.67665  0.16872  1.0000
  C   C403      1.0  0.40956  0.67541  0.17616  1.0000
  C   C404      1.0  0.35276  0.68854  0.19560  1.0000
  C   C405      1.0  0.17578  0.60319  0.38603  1.0000
  H   H309      1.0  0.29657  0.64224  0.05870  1.0000
  H   H310      1.0  0.17024  0.58677  0.35089  1.0000
  C   C406      1.0  0.38084  0.70195  0.16470  1.0000
  C   C407      1.0  0.34377  0.64353  0.15378  1.0000
  C   C408      1.0  0.33543  0.62114  0.15258  1.0000
  C   C409      1.0  0.31795  0.60921  0.13719  1.0000
  C   C410      1.0  0.30878  0.61957  0.12285  1.0000
  C   C411      1.0  0.31730  0.64183  0.12350  1.0000
  C   C412      1.0  0.33470  0.65382  0.13895  1.0000
  H   H311      1.0  0.31455  0.61667  0.24141  1.0000
  H   H312      1.0  0.34154  0.60950  0.26434  1.0000
  H   H313      1.0  0.37877  0.62357  0.24850  1.0000
  H   H314      1.0  0.38929  0.64503  0.21062  1.0000
  H   H315      1.0  0.32462  0.63768  0.20282  1.0000
  H   H316      1.0  0.37720  0.63772  0.13487  1.0000
  H   H317      1.0  0.41192  0.63918  0.12290  1.0000
  H   H318      1.0  0.44536  0.66420  0.14398  1.0000
  H   H319      1.0  0.44399  0.68786  0.17768  1.0000
  H   H320      1.0  0.40914  0.68563  0.19108  1.0000
  H   H321      1.0  0.34124  0.67574  0.20667  1.0000
  C   C413      1.0  0.42767  0.53580  0.06187  1.0000
  C   C414      1.0  0.44026  0.51510  0.99457  1.0000
  H   H322      1.0  0.43778  0.53910  0.10010  1.0000
  H   H323      1.0  0.39122  0.69957  0.15142  1.0000
  H   H324      1.0  0.34241  0.61290  0.16357  1.0000
  H   H325      1.0  0.31155  0.59196  0.13632  1.0000
  H   H326      1.0  0.29512  0.61049  0.11111  1.0000
  H   H327      1.0  0.31030  0.64981  0.11213  1.0000
  H   H328      1.0  0.34090  0.67106  0.13916  1.0000
  C   C415      1.0  0.10238  0.57795  0.19222  1.0000
  C   C416      1.0  0.13381  0.61456  0.16982  1.0000
  C   C417      1.0  0.13467  0.61183  0.19549  1.0000
  C   C418      1.0  0.11875  0.59338  0.20660  1.0000
  P   P13       1.0  0.15546  0.63236  0.21398  1.0000
  C   C419      1.0  0.18167  0.63367  0.20823  1.0000
  C   C420      1.0  0.15625  0.65774  0.20576  1.0000
  C   C421      1.0  0.17575  0.67655  0.20596  1.0000
  C   C422      1.0  0.17627  0.69610  0.19926  1.0000
  C   C423      1.0  0.13730  0.65883  0.19895  1.0000
  C   C424      1.0  0.19760  0.64135  0.22674  1.0000
  C   C425      1.0  0.21832  0.64380  0.22188  1.0000
  C   C426      1.0  0.22342  0.63891  0.19842  1.0000
  C   C427      1.0  0.20776  0.63144  0.17992  1.0000
  C   C428      1.0  0.18698  0.62873  0.18477  1.0000
  C   C429      1.0  0.14831  0.62697  0.24630  1.0000
  C   C430      1.0  0.13592  0.63556  0.25814  1.0000
  C   C431      1.0  0.14678  0.60707  0.28369  1.0000
  C   C432      1.0  0.15361  0.61263  0.25928  1.0000
  H   H329      1.0  0.14571  0.62873  0.16083  1.0000
  H   H330      1.0  0.11898  0.59058  0.22626  1.0000
  H   H331      1.0  0.19060  0.67622  0.21113  1.0000
  H   H332      1.0  0.19140  0.71052  0.19928  1.0000
  H   H333      1.0  0.12205  0.64455  0.19879  1.0000
  H   H334      1.0  0.19413  0.64574  0.24483  1.0000
  H   H335      1.0  0.23050  0.64972  0.23621  1.0000
  H   H336      1.0  0.23949  0.64096  0.19440  1.0000
  H   H337      1.0  0.21164  0.62748  0.16179  1.0000
  H   H338      1.0  0.17524  0.62258  0.17010  1.0000
  H   H339      1.0  0.13119  0.64631  0.24851  1.0000
  H   H340      1.0  0.15074  0.59575  0.29336  1.0000
  H   H341      1.0  0.16256  0.60526  0.25034  1.0000
  S   S70       1.0  0.14855  0.73978  0.46911  1.0000
  H   H342      1.0  0.27731  0.50652  0.11520  1.0000
  C   C433      1.0  0.04416  0.58677  0.47229  1.0000
  H   H343      1.0  0.33864  0.54019  0.00066  1.0000
  S   S71       1.0  0.04501  0.64885  0.45210  1.0000
  C   C434      1.0  0.13435  0.61555  0.29528  1.0000
  C   C435      1.0  0.40058  0.59693  0.22304  1.0000
  C   C436      1.0  0.42570  0.51595  0.41189  1.0000
  H   H344      1.0  0.19914  0.51337  0.25666  1.0000
  C   C437      1.0  0.46632  0.55745  0.44992  1.0000
  H   H345      1.0  0.23751  0.62656  0.98603  1.0000
  H   H346      1.0  0.41298  0.60138  0.23708  1.0000
  C   C438      1.0  0.42310  0.54563  0.04157  1.0000
  H   H347      1.0  0.38002  0.56827  0.24155  1.0000
  C   C439      1.0  0.31595  0.54234  0.02622  1.0000
  H   H348      1.0  0.43662  0.52746  0.39890  1.0000
  C   C440      1.0  0.49452  0.51095  0.22410  1.0000
  C   C441      1.0  0.13251  0.59205  0.45485  1.0000
  H   H349      1.0  0.27373  0.52754  0.16365  1.0000
  C   C442      1.0  0.26098  0.71548  0.02662  1.0000
  H   H350      1.0  0.46815  0.53641  0.42136  1.0000
  C   C443      1.0  0.42703  0.55387  0.47441  1.0000
  C   C444      1.0  0.00144  0.62139  0.45334  1.0000
  H   H351      1.0  0.22562  0.53019  0.99350  1.0000
  C   C445      1.0  0.26861  0.60008  0.02030  1.0000
  C   C446      1.0  0.06891  0.54666  0.39570  1.0000
  H   H352      1.0  0.06174  0.54811  0.37841  1.0000
  H   H353      1.0  0.30508  0.65302  0.99753  1.0000
  H   H354      1.0  0.19396  0.52955  0.48547  1.0000
  S   S72       1.0  0.09266  0.64029  0.47560  1.0000
  H   H355      1.0  0.27538  0.56336  0.16889  1.0000
  C   C447      1.0  0.41124  0.65412  0.02047  1.0000
  H   H356      1.0  0.34307  0.61593  0.03292  1.0000
  H   H357      1.0  0.30420  0.59085  0.19455  1.0000
  H   H358      1.0  0.07628  0.50784  0.47439  1.0000
  C   C448      1.0  0.24695  0.52095  0.03710  1.0000
  P   P14       1.0  0.20317  0.52564  0.20457  1.0000
  H   H359      1.0  0.09990  0.55537  0.37938  1.0000
  Fe  Fe35      1.0  0.44574  0.51343  0.29489  1.0000
  H   H360      1.0  0.24143  0.65606  0.00827  1.0000
  C   C449      1.0  0.14474  0.51104  0.23644  1.0000
  C   C450      1.0  0.13788  0.67840  0.19228  1.0000
  H   H361      1.0  0.24917  0.53616  0.21127  1.0000
  C   C451      1.0  0.03627  0.58235  0.40594  1.0000
  C   C452      1.0  0.41184  0.56193  0.47457  1.0000
  P   P15       1.0  0.04989  0.53090  0.46762  1.0000
  C   C453      1.0  0.19564  0.69396  0.47892  1.0000
  H   H362      1.0  0.05383  0.61404  0.42151  1.0000
  H   H363      1.0  0.29210  0.54630  0.04759  1.0000
  C   C454      1.0  0.36945  0.58432  0.18577  1.0000
  C   C455      1.0  0.15736  0.69702  0.19240  1.0000
  H   H364      1.0  0.26707  0.73210  0.03215  1.0000
  H   H365      1.0  0.09039  0.56362  0.20088  1.0000
  P   P16       1.0  0.43802  0.55003  0.44559  1.0000
  C   C456      1.0  0.01412  0.54752  0.28522  1.0000
  H   H366      1.0  0.18169  0.61893  0.37780  1.0000
  C   C457      1.0  0.38839  0.60331  0.18350  1.0000
  C   C458      1.0  0.01158  0.59900  0.38186  1.0000
  C   C459      1.0  0.32026  0.53500  0.25403  1.0000
  C   C460      1.0  0.25483  0.68866  0.99468  1.0000
  H   H367      1.0  0.33254  0.58312  0.21289  1.0000
  C   C461      1.0  0.04067  0.60372  0.40963  1.0000
  C   C462      1.0  0.00696  0.57746  0.37811  1.0000
  C   C463      1.0  0.28732  0.55975  0.17777  1.0000
  H   H368      1.0  0.23863  0.66545  0.05134  1.0000
  C   C464      1.0  0.43640  0.74997  0.24682  1.0000
  H   H369      1.0  0.30889  0.53997  0.24634  1.0000
  H   H370      1.0  0.18905  0.73767  0.45578  1.0000
  C   C465      1.0  0.40717  0.50735  0.45128  1.0000
  C   C466      1.0  0.43402  0.59504  0.38570  1.0000
  H   H371      1.0  0.47540  0.57142  0.36154  1.0000
  C   C467      1.0  0.21710  0.50970  0.21097  1.0000
  C   C468      1.0  0.30368  0.57524  0.19205  1.0000
  C   C469      1.0  0.24506  0.67800  0.03753  1.0000
  H   H372      1.0  0.12859  0.61080  0.31401  1.0000
  H   H373      1.0  0.41900  0.62391  0.19970  1.0000
  C   C470      1.0  0.49353  0.50366  0.30186  1.0000
  C   C471      1.0  0.32516  0.54384  0.00290  1.0000
  C   C472      1.0  0.36758  0.72555  0.18254  1.0000
  C   C473      1.0  0.19898  0.57870  0.00541  1.0000
  C   C474      1.0  0.19326  0.52130  0.17304  1.0000
  H   H374      1.0  0.21207  0.69985  0.44396  1.0000
  H   H375      1.0  0.18639  0.54856  0.17320  1.0000
  H   H376      1.0  0.42959  0.67424  0.05061  1.0000
  H   H377      1.0  0.04634  0.57624  0.41468  1.0000
  C   C475      1.0  0.10006  0.54989  0.41850  1.0000
  C   C476      1.0  0.43459  0.54682  0.08437  1.0000
  H   H378      1.0  0.39143  0.61263  0.16679  1.0000
  H   H379      1.0  0.34224  0.71133  0.20925  1.0000
  C   C477      1.0  0.23956  0.51912  0.21342  1.0000
  C   C478      1.0  0.02833  0.61202  0.39761  1.0000
  P   P17       1.0  0.39653  0.71016  0.99878  1.0000
  C   C479      1.0  0.41921  0.56016  0.40507  1.0000
  H   H380      1.0  0.12322  0.67910  0.18693  1.0000
  H   H381      1.0  0.24186  0.62768  0.45891  1.0000
  H   H382      1.0  0.02052  0.54381  0.26859  1.0000
  H   H383      1.0  0.00923  0.52150  0.44231  1.0000
  C   C480      1.0  0.48144  0.52091  0.21843  1.0000
  C   C481      1.0  0.11767  0.59889  0.15544  1.0000
  C   C482      1.0  0.30175  0.61417  0.05527  1.0000
  C   C483      1.0  0.40280  0.68848  0.00718  1.0000
  C   C484      1.0  0.05195  0.57188  0.46703  1.0000
  P   P18       1.0  0.26834  0.56031  0.01315  1.0000
  H   H384      1.0  0.34941  0.52103  0.12502  1.0000
  H   H385      1.0  0.15782  0.71217  0.18711  1.0000
  C   C485      1.0  0.49377  0.59430  0.38969  1.0000
  H   H386      1.0  0.34722  0.54661  0.15455  1.0000
  H   H387      1.0  0.03191  0.62865  0.40054  1.0000
  C   C486      1.0  0.49905  0.55579  0.43706  1.0000
  H   H388      1.0  0.06674  0.57702  0.45668  1.0000
  C   C487      1.0  0.08804  0.54426  0.44033  1.0000
  C   C488      1.0  0.18560  0.53499  0.16279  1.0000
  H   H389      1.0  0.46504  0.51344  0.47291  1.0000
  H   H390      1.0  0.25713  0.51576  0.02686  1.0000
  H   H391      1.0  0.46738  0.61796  0.47937  1.0000
  H   H392      1.0  0.30193  0.51959  0.18114  1.0000
  C   C489      1.0  0.34018  0.68454  0.03807  1.0000
  C   C490      1.0  0.37142  0.70589  0.01297  1.0000
  C   C491      1.0  0.33203  0.52113  0.28895  1.0000
  C   C492      1.0  0.34625  0.53174  0.16152  1.0000
  H   H393      1.0  0.39239  0.73505  0.15486  1.0000
  C   C493      1.0  0.43704  0.56770  0.08678  1.0000
  C   C494      1.0  0.17980  0.53083  0.47924  1.0000
  C   C495      1.0  0.24920  0.54187  0.03461  1.0000
  C   C496      1.0  0.23137  0.50643  0.05288  1.0000
  H   H394      1.0  0.41438  0.64084  0.02563  1.0000
  H   H395      1.0  0.40698  0.72779  0.04898  1.0000
  H   H396      1.0  0.28884  0.67782  0.99653  1.0000
  S   S73       1.0  0.37827  0.74708  0.06720  1.0000
  H   H397      1.0  0.00265  0.62129  0.43340  1.0000
  H   H398      1.0  0.03998  0.53705  0.41639  1.0000
  H   H399      1.0  0.13886  0.59924  0.43713  1.0000
  C   C497      1.0  0.41984  0.67294  0.03446  1.0000
  H   H400      1.0  0.49178  0.51817  0.30432  1.0000
  H   H401      1.0  0.36074  0.51729  0.28324  1.0000
  C   C498      1.0  0.25221  0.69940  0.04440  1.0000
  P   P19       1.0  0.16433  0.57800  0.45594  1.0000
  C   C499      1.0  0.10194  0.58061  0.16664  1.0000
  C   C500      1.0  0.34361  0.52698  0.18694  1.0000
  H   H402      1.0  0.31442  0.61952  0.06903  1.0000
  H   H403      1.0  0.11911  0.63616  0.29152  1.0000
  C   C501      1.0  0.38171  0.57782  0.22534  1.0000
  H   H404      1.0  0.35250  0.59333  0.00457  1.0000
  C   C502      1.0  0.34310  0.61807  0.01310  1.0000
  C   C503      1.0  0.16721  0.50662  0.26779  1.0000
  C   C504      1.0  0.15977  0.56250  0.40718  1.0000
  H   H405      1.0  0.01623  0.55268  0.38757  1.0000
  H   H406      1.0  0.49056  0.50687  0.44633  1.0000
  H   H407      1.0  0.49745  0.67853  0.44236  1.0000
  S   S74       1.0  0.32199  0.73544  0.08534  1.0000
  C   C505      1.0  0.45911  0.50960  0.22044  1.0000
  C   C506      1.0  0.39843  0.65236  0.99990  1.0000
  C   C507      1.0  0.16605  0.58058  0.42259  1.0000
  C   C508      1.0  0.49173  0.66940  0.45921  1.0000
  S   S75       1.0  0.10278  0.51107  0.30044  1.0000
  C   C509      1.0  0.41564  0.69004  0.02793  1.0000
  H   H408      1.0  0.46254  0.61930  0.40269  1.0000
  H   H409      1.0  0.33000  0.51546  0.30791  1.0000
  C   C510      1.0  0.41689  0.73526  0.01074  1.0000
  H   H410      1.0  0.17877  0.61513  0.42323  1.0000
  C   C511      1.0  0.24990  0.50650  0.21890  1.0000
  C   C512      1.0  0.17408  0.60096  0.41178  1.0000
  H   H411      1.0  0.20809  0.53741  0.07210  1.0000
  C   C513      1.0  0.34502  0.71873  0.02235  1.0000
  H   H412      1.0  0.38114  0.53599  0.04511  1.0000
  C   C514      1.0  0.18108  0.55078  0.47307  1.0000
  C   C515      1.0  0.40397  0.60962  0.20206  1.0000
  C   C516      1.0  0.35324  0.70875  0.19711  1.0000
  H   H413      1.0  0.40653  0.56608  0.45746  1.0000
  C   C517      1.0  0.21892  0.53284  0.06223  1.0000
  C   C518      1.0  0.17655  0.53111  0.13911  1.0000
  C   C519      1.0  0.34119  0.50686  0.19483  1.0000
  C   C520      1.0  0.34841  0.60543  0.99714  1.0000
  H   H414      1.0  0.15619  0.55076  0.36967  1.0000
  H   H415      1.0  0.46369  0.59588  0.43588  1.0000
  C   C521      1.0  0.22730  0.72657  0.46905  1.0000
  C   C522      1.0  0.29193  0.62710  0.04923  1.0000
  H   H416      1.0  0.47976  0.63887  0.44070  1.0000
  C   C523      1.0  0.41840  0.57376  0.38661  1.0000
  H   H417      1.0  0.26721  0.51385  0.22084  1.0000
  C   C524      1.0  0.36435  0.72175  0.01138  1.0000
  C   C525      1.0  0.01932  0.56916  0.39048  1.0000
  H   H418      1.0  0.15341  0.54652  0.41473  1.0000
  H   H419      1.0  0.44910  0.51751  0.21672  1.0000
  H   H420      1.0  0.02902  0.51173  0.31226  1.0000
  H   H421      1.0  0.19643  0.56475  0.47460  1.0000
  C   C526      1.0  0.30256  0.53514  0.18460  1.0000
  H   H422      1.0  0.12881  0.53464  0.45650  1.0000
  H   H423      1.0  0.33345  0.64306  0.01608  1.0000
  H   H424      1.0  0.42237  0.70421  0.03939  1.0000
  P   P20       1.0  0.34170  0.54605  0.20846  1.0000
  H   H425      1.0  0.17028  0.54155  0.13163  1.0000
  C   C527      1.0  0.21174  0.70617  0.46222  1.0000
  H   H426      1.0  0.30256  0.58433  0.04947  1.0000
  H   H427      1.0  0.34193  0.51630  0.04850  1.0000
  C   C528      1.0  0.14310  0.53383  0.46309  1.0000
  C   C529      1.0  0.43262  0.57762  0.06668  1.0000
  H   H428      1.0  0.35772  0.57978  0.17104  1.0000
  C   C530      1.0  0.24650  0.67268  0.01288  1.0000
  C   C531      1.0  0.37254  0.52286  0.03256  1.0000
  H   H429      1.0  0.31855  0.69836  0.04534  1.0000
  C   C532      1.0  0.38357  0.51718  0.01454  1.0000
  C   C533      1.0  0.29064  0.55392  0.00893  1.0000
  C   C534      1.0  0.16143  0.51700  0.21928  1.0000
  S   S76       1.0  0.41278  0.51051  0.28769  1.0000
  C   C535      1.0  0.29496  0.59414  0.04398  1.0000
  C   C536      1.0  0.42281  0.52240  0.43573  1.0000
  H   H430      1.0  0.20945  0.59815  0.44106  1.0000
  H   H431      1.0  0.11755  0.60079  0.13555  1.0000
  C   C537      1.0  0.16271  0.55245  0.46503  1.0000
  C   C538      1.0  0.47683  0.54851  0.43504  1.0000
  C   C539      1.0  0.49369  0.52452  0.36539  1.0000
  H   H432      1.0  0.40380  0.51173  0.46943  1.0000
  H   H433      1.0  0.23570  0.56339  0.04484  1.0000
  C   C540      1.0  0.42210  0.51091  0.00910  1.0000
  H   H434      1.0  0.40592  0.56756  0.37260  1.0000
  H   H435      1.0  0.43424  0.59371  0.06875  1.0000
  H   H436      1.0  0.10934  0.60456  0.45528  1.0000
  C   C541      1.0  0.23481  0.54760  0.04700  1.0000
  C   C542      1.0  0.21742  0.51241  0.06553  1.0000
  C   C543      1.0  0.38142  0.72214  0.16645  1.0000
  C   C544      1.0  0.42552  0.56661  0.04423  1.0000
  H   H437      1.0  0.42562  0.51956  0.06060  1.0000
  H   H438      1.0  0.25522  0.59470  0.00749  1.0000
  H   H439      1.0  0.26952  0.72298  0.98863  1.0000
  C   C545      1.0  0.27834  0.58691  0.02633  1.0000
  C   C546      1.0  0.45013  0.60294  0.40370  1.0000
  H   H440      1.0  0.08962  0.56835  0.15543  1.0000
  C   C547      1.0  0.48908  0.58661  0.36527  1.0000
  H   H441      1.0  0.36777  0.74115  0.18338  1.0000
  C   C548      1.0  0.45081  0.58948  0.42242  1.0000
  C   C549      1.0  0.43578  0.56779  0.42276  1.0000
  C   C550      1.0  0.33764  0.53605  0.23991  1.0000
  C   C551      1.0  0.16930  0.58512  0.37086  1.0000
  H   H442      1.0  0.43376  0.60530  0.37086  1.0000
  C   C552      1.0  0.49540  0.68000  0.48202  1.0000
  P   P21       1.0  0.41258  0.53092  0.01302  1.0000
  H   H443      1.0  0.40704  0.54365  0.40511  1.0000
  C   C553      1.0  0.28654  0.53960  0.17450  1.0000
  H   H444      1.0  0.26759  0.62998  0.02730  1.0000
  H   H445      1.0  0.48846  0.53758  0.21308  1.0000
  H   H446      1.0  0.00248  0.60594  0.37261  1.0000
  C   C554      1.0  0.31748  0.52752  0.27844  1.0000
  C   C555      1.0  0.33298  0.70017  0.03582  1.0000
  C   C556      1.0  0.41823  0.73939  0.03631  1.0000
  C   C557      1.0  0.31952  0.55087  0.19820  1.0000
  H   H447      1.0  0.33822  0.50209  0.21397  1.0000
  C   C558      1.0  0.35935  0.68738  0.02681  1.0000
  S   S77       1.0  0.49596  0.58980  0.31477  1.0000
  C   C559      1.0  0.18116  0.51768  0.22623  1.0000
  H   H448      1.0  0.25140  0.70353  0.06362  1.0000
  C   C560      1.0  0.34736  0.51712  0.14456  1.0000
  H   H449      1.0  0.42156  0.57436  0.02913  1.0000
  C   C561      1.0  0.18395  0.51254  0.25069  1.0000
  C   C562      1.0  0.26230  0.71018  0.00186  1.0000
  C   C563      1.0  0.00647  0.67493  0.47265  1.0000
  H   H450      1.0  0.47726  0.51561  0.35898  1.0000
  H   H451      1.0  0.23979  0.73608  0.45610  1.0000
  C   C564      1.0  0.16026  0.51242  0.47730  1.0000
  C   C565      1.0  0.20807  0.60603  0.45782  1.0000
  C   C566      1.0  0.42446  0.75048  0.26740  1.0000
  C   C567      1.0  0.14762  0.50586  0.26064  1.0000
  H   H452      1.0  0.47108  0.58136  0.47818  1.0000
  H   H453      1.0  0.00902  0.66940  0.45482  1.0000
  C   C568      1.0  0.11570  0.59516  0.46513  1.0000
  C   C569      1.0  0.39412  0.66940  0.99329  1.0000
  H   H454      1.0  0.45205  0.57002  0.00277  1.0000
  C   C570      1.0  0.35020  0.51175  0.03440  1.0000
  H   H455      1.0  0.36883  0.51055  0.39596  1.0000
  C   C571      1.0  0.48170  0.64706  0.45827  1.0000
  C   C572      1.0  0.18804  0.59950  0.46934  1.0000
  H   H456      1.0  0.43068  0.73579  0.23520  1.0000
  C   C573      1.0  0.34934  0.52212  0.27505  1.0000
  H   H457      1.0  0.37415  0.73676  0.00230  1.0000
  H   H458      1.0  0.16948  0.50291  0.28670  1.0000
  S   S78       1.0  0.14086  0.68060  0.48232  1.0000
  H   H459      1.0  0.05270  0.60312  0.46587  1.0000
  H   H460      1.0  0.16917  0.51134  0.10646  1.0000
  H   H461      1.0  0.39173  0.63763  0.98932  1.0000
  C   C574      1.0  0.44158  0.56658  0.98684  1.0000
  C   C575      1.0  0.02672  0.50604  0.45968  1.0000
  C   C576      1.0  0.00922  0.50645  0.44706  1.0000
  C   C577      1.0  0.19240  0.50406  0.15879  1.0000
  C   C578      1.0  0.42121  0.54880  0.98672  1.0000
  C   C579      1.0  0.47488  0.63529  0.48009  1.0000
  C   C580      1.0  0.43134  0.75094  0.99479  1.0000
  C   C581      1.0  0.02520  0.58065  0.48568  1.0000
  H   H462      1.0  0.03831  0.68180  0.48502  1.0000
  Fe  Fe36      1.0  0.11097  0.66414  0.50514  1.0000
  S   S79       1.0  0.09808  0.68739  0.49489  1.0000
  S   S80       1.0  0.10804  0.65486  0.54563  1.0000
  H   H463      1.0  0.10016  0.59788  0.60366  1.0000
  H   H464      1.0  0.46290  0.68811  0.50173  1.0000
  H   H465      1.0  0.09449  0.62876  0.58909  1.0000
  Fe  Fe37      1.0  0.07551  0.53324  0.65345  1.0000
  S   S81       1.0  0.09118  0.51370  0.66833  1.0000
  S   S82       1.0  0.04296  0.52920  0.66680  1.0000
  Fe  Fe38      1.0  0.11157  0.55705  0.61652  1.0000
  S   S83       1.0  0.12969  0.53897  0.62885  1.0000
  S   S84       1.0  0.12439  0.57694  0.58166  1.0000
  H   H466      1.0  0.42799  0.50269  0.76702  1.0000
  H   H467      1.0  0.12032  0.50760  0.57734  1.0000
  Fe  Fe39      1.0  0.12189  0.54468  0.66813  1.0000
  S   S85       1.0  0.14995  0.55433  0.69602  1.0000
  S   S86       1.0  0.08017  0.52758  0.61354  1.0000
  S   S87       1.0  0.10575  0.56480  0.65558  1.0000
  H   H468      1.0  0.37159  0.72565  0.91851  1.0000
  S   S88       1.0  0.42392  0.54355  0.61139  1.0000
  H   H469      1.0  0.24849  0.72879  0.54995  1.0000
  Fe  Fe40      1.0  0.47464  0.54036  0.63449  1.0000
  S   S89       1.0  0.47229  0.57151  0.63451  1.0000
  C   C582      1.0  0.40641  0.73448  0.70010  1.0000
  Fe  Fe41      1.0  0.43895  0.55192  0.64945  1.0000
  S   S90       1.0  0.42296  0.56597  0.67618  1.0000
  Fe  Fe42      1.0  0.45757  0.56088  0.59690  1.0000
  S   S91       1.0  0.46300  0.58098  0.56260  1.0000
  S   S92       1.0  0.44244  0.52142  0.65224  1.0000
  S   S93       1.0  0.46274  0.53151  0.59560  1.0000
  Fe  Fe43      1.0  0.36631  0.57796  0.83791  1.0000
  S   S94       1.0  0.37709  0.60980  0.85647  1.0000
  S   S95       1.0  0.33318  0.55057  0.83837  1.0000
  Fe  Fe44      1.0  0.41057  0.58807  0.81722  1.0000
  S   S96       1.0  0.42535  0.62083  0.83492  1.0000
  S   S97       1.0  0.42937  0.57481  0.79407  1.0000
  Fe  Fe45      1.0  0.40549  0.60498  0.86881  1.0000
  S   S98       1.0  0.42019  0.61501  0.90741  1.0000
  Fe  Fe46      1.0  0.39582  0.62278  0.82163  1.0000
  S   S99       1.0  0.39381  0.64918  0.80006  1.0000
  S   S100      1.0  0.39344  0.57203  0.85232  1.0000
  S   S101      1.0  0.38239  0.59125  0.80183  1.0000
  C   C583      1.0  0.02396  0.51481  0.59953  1.0000
  C   C584      1.0  0.23395  0.54226  0.97972  1.0000
  Fe  Fe47      1.0  0.19415  0.58709  0.83796  1.0000
  S   S102      1.0  0.19721  0.56115  0.85955  1.0000
  S   S103      1.0  0.16605  0.58086  0.81131  1.0000
  Fe  Fe48      1.0  0.23412  0.62151  0.86387  1.0000
  S   S104      1.0  0.24056  0.59798  0.88640  1.0000
  S   S105      1.0  0.25426  0.65682  0.87126  1.0000
  Fe  Fe49      1.0  0.23246  0.57888  0.85115  1.0000
  S   S106      1.0  0.24616  0.55790  0.83509  1.0000
  Fe  Fe50      1.0  0.20501  0.58244  0.89332  1.0000
  S   S107      1.0  0.19067  0.56792  0.93081  1.0000
  S   S108      1.0  0.22914  0.60376  0.82784  1.0000
  S   S109      1.0  0.19888  0.60708  0.87267  1.0000
  C   C585      1.0  0.20094  0.58013  0.95998  1.0000
  H   H470      1.0  0.17915  0.63119  0.91205  1.0000
  C   C586      1.0  0.21767  0.60084  0.96168  1.0000
  C   C587      1.0  0.23366  0.55666  0.93911  1.0000
  H   H471      1.0  0.22477  0.60954  0.94493  1.0000
  C   C588      1.0  0.31153  0.69762  0.82233  1.0000
  C   C589      1.0  0.29762  0.67657  0.81511  1.0000
  C   C590      1.0  0.27991  0.66383  0.82998  1.0000
  C   C591      1.0  0.27578  0.67232  0.85167  1.0000
  C   C592      1.0  0.28929  0.69356  0.85837  1.0000
  C   C593      1.0  0.30736  0.70604  0.84404  1.0000
  H   H472      1.0  0.30076  0.67004  0.79828  1.0000
  H   H473      1.0  0.26939  0.64753  0.82470  1.0000
  H   H474      1.0  0.28603  0.70026  0.87502  1.0000
  C   C594      1.0  0.42431  0.73818  0.65270  1.0000
  C   C595      1.0  0.40373  0.67405  0.81518  1.0000
  C   C596      1.0  0.42337  0.68255  0.82786  1.0000
  C   C597      1.0  0.43107  0.70279  0.83929  1.0000
  C   C598      1.0  0.41903  0.71436  0.83821  1.0000
  C   C599      1.0  0.39942  0.70573  0.82559  1.0000
  C   C600      1.0  0.39186  0.68571  0.81406  1.0000
  H   H475      1.0  0.43262  0.67361  0.82873  1.0000
  H   H476      1.0  0.44625  0.70943  0.84906  1.0000
  H   H477      1.0  0.38998  0.71445  0.82468  1.0000
  H   H478      1.0  0.37653  0.67909  0.80473  1.0000
  C   C601      1.0  0.30973  0.55413  0.83996  1.0000
  C   C602      1.0  0.30988  0.57413  0.84354  1.0000
  C   C603      1.0  0.29030  0.57568  0.84396  1.0000
  C   C604      1.0  0.27078  0.55722  0.84055  1.0000
  C   C605      1.0  0.27089  0.53741  0.83754  1.0000
  C   C606      1.0  0.29017  0.53586  0.83740  1.0000
  H   H479      1.0  0.32499  0.58831  0.84577  1.0000
  H   H480      1.0  0.29036  0.59110  0.84589  1.0000
  H   H481      1.0  0.25594  0.52314  0.83466  1.0000
  H   H482      1.0  0.28990  0.52038  0.83472  1.0000
  C   C607      1.0  0.40751  0.60458  0.93619  1.0000
  C   C608      1.0  0.38834  0.58568  0.93767  1.0000
  C   C609      1.0  0.41780  0.61483  0.95828  1.0000
  H   H483      1.0  0.38041  0.57748  0.92086  1.0000
  H   H484      1.0  0.43271  0.62939  0.95736  1.0000
  C   C610      1.0  0.40974  0.62811  0.74454  1.0000
  C   C611      1.0  0.42464  0.56769  0.70897  1.0000
  C   C612      1.0  0.41241  0.57592  0.72180  1.0000
  C   C613      1.0  0.41378  0.57826  0.74777  1.0000
  C   C614      1.0  0.42736  0.57232  0.76127  1.0000
  C   C615      1.0  0.43977  0.56427  0.74841  1.0000
  C   C616      1.0  0.43848  0.56204  0.72237  1.0000
  H   H485      1.0  0.40204  0.58078  0.71153  1.0000
  H   H486      1.0  0.40436  0.58473  0.75733  1.0000
  H   H487      1.0  0.45053  0.55985  0.75863  1.0000
  H   H488      1.0  0.44853  0.55649  0.71252  1.0000
  H   H489      1.0  0.33448  0.64928  0.97131  1.0000
  C   C617      1.0  0.49321  0.60898  0.53139  1.0000
  P   P22       1.0  0.30687  0.58387  0.75222  1.0000
  C   C618      1.0  0.22472  0.61053  0.98503  1.0000
  H   H490      1.0  0.30048  0.69584  0.94090  1.0000
  H   H491      1.0  0.31108  0.65990  0.73569  1.0000
  H   H492      1.0  0.36414  0.51650  0.76354  1.0000
  H   H493      1.0  0.30633  0.61795  0.89409  1.0000
  C   C619      1.0  0.15354  0.56102  0.72835  1.0000
  C   C620      1.0  0.13909  0.56572  0.74200  1.0000
  C   C621      1.0  0.14318  0.57171  0.76727  1.0000
  C   C622      1.0  0.16172  0.57309  0.77934  1.0000
  C   C623      1.0  0.17616  0.56840  0.76568  1.0000
  C   C624      1.0  0.17207  0.56241  0.74044  1.0000
  H   H494      1.0  0.12481  0.56483  0.73310  1.0000
  H   H495      1.0  0.13185  0.57526  0.77758  1.0000
  H   H496      1.0  0.19034  0.56918  0.77468  1.0000
  H   H497      1.0  0.18330  0.55869  0.73022  1.0000
  H   H498      1.0  0.18442  0.63646  0.65411  1.0000
  H   H499      1.0  0.36792  0.55089  0.74405  1.0000
  C   C625      1.0  0.43292  0.54785  0.49686  1.0000
  C   C626      1.0  0.11216  0.63286  0.55523  1.0000
  C   C627      1.0  0.12424  0.62549  0.54099  1.0000
  C   C628      1.0  0.12816  0.60864  0.54971  1.0000
  C   C629      1.0  0.11932  0.59842  0.57217  1.0000
  C   C630      1.0  0.10692  0.60554  0.58625  1.0000
  C   C631      1.0  0.10366  0.62295  0.57795  1.0000
  H   H500      1.0  0.13109  0.63320  0.52363  1.0000
  H   H501      1.0  0.13830  0.60364  0.53913  1.0000
  C   C632      1.0  0.39334  0.66421  0.88418  1.0000
  C   C633      1.0  0.41121  0.66558  0.89723  1.0000
  C   C634      1.0  0.37275  0.65230  0.89358  1.0000
  C   C635      1.0  0.31299  0.55695  0.90160  1.0000
  C   C636      1.0  0.33512  0.56972  0.89964  1.0000
  H   H502      1.0  0.39533  0.67224  0.86664  1.0000
  H   H503      1.0  0.42714  0.67443  0.88955  1.0000
  H   H504      1.0  0.35917  0.65117  0.88279  1.0000
  H   H505      1.0  0.30594  0.54058  0.89486  1.0000
  H   H506      1.0  0.34517  0.56312  0.89169  1.0000
  C   C637      1.0  0.25099  0.53423  0.77627  1.0000
  C   C638      1.0  0.28717  0.60858  0.69432  1.0000
  C   C639      1.0  0.40823  0.54462  0.96551  1.0000
  C   C640      1.0  0.37419  0.74230  0.72788  1.0000
  C   C641      1.0  0.47965  0.62799  0.81909  1.0000
  C   C642      1.0  0.29998  0.56547  0.91166  1.0000
  C   C643      1.0  0.41139  0.71060  0.92536  1.0000
  H   H507      1.0  0.03955  0.51953  0.74189  1.0000
  C   C644      1.0  0.48626  0.63710  0.71760  1.0000
  H   H508      1.0  0.23939  0.66622  0.70176  1.0000
  H   H509      1.0  0.17127  0.60317  0.67895  1.0000
  C   C645      1.0  0.32986  0.56290  0.76925  1.0000
  C   C646      1.0  0.01359  0.54370  0.59890  1.0000
  C   C647      1.0  0.34423  0.59112  0.90731  1.0000
  H   H510      1.0  0.09528  0.59007  0.49673  1.0000
  H   H511      1.0  0.27372  0.56449  0.79079  1.0000
  C   C648      1.0  0.47815  0.62152  0.77485  1.0000
  C   C649      1.0  0.32893  0.64221  0.91892  1.0000
  C   C650      1.0  0.06459  0.53741  0.51679  1.0000
  H   H512      1.0  0.39445  0.66244  0.74187  1.0000
  H   H513      1.0  0.36307  0.57118  0.70914  1.0000
  C   C651      1.0  0.47687  0.70354  0.56177  1.0000
  C   C652      1.0  0.30587  0.62694  0.68833  1.0000
  C   C653      1.0  0.34860  0.60846  0.97158  1.0000
  C   C654      1.0  0.40925  0.55864  0.51925  1.0000
  C   C655      1.0  0.42411  0.55033  0.51915  1.0000
  H   H514      1.0  0.18170  0.62668  0.95727  1.0000
  C   C656      1.0  0.40539  0.72009  0.65875  1.0000
  H   H515      1.0  0.39242  0.53129  0.96481  1.0000
  C   C657      1.0  0.02049  0.68855  0.51348  1.0000
  H   H516      1.0  0.05635  0.50678  0.70965  1.0000
  C   C658      1.0  0.31094  0.60111  0.77874  1.0000
  H   H517      1.0  0.36826  0.74061  0.76728  1.0000
  H   H518      1.0  0.40241  0.56039  0.53663  1.0000
  C   C659      1.0  0.26458  0.57436  0.96592  1.0000
  H   H519      1.0  0.32132  0.64299  0.83127  1.0000
  H   H520      1.0  0.28045  0.60195  0.77429  1.0000
  C   C660      1.0  0.36565  0.66220  0.75647  1.0000
  H   H521      1.0  0.34917  0.63125  0.82097  1.0000
  P   P23       1.0  0.02088  0.57201  0.60003  1.0000
  C   C661      1.0  0.19184  0.56899  0.98197  1.0000
  H   H522      1.0  0.21850  0.66795  0.66578  1.0000
  H   H523      1.0  0.38151  0.70437  0.68658  1.0000
  H   H524      1.0  0.09547  0.50316  0.51058  1.0000
  H   H525      1.0  0.31793  0.72228  0.84965  1.0000
  C   C662      1.0  0.04705  0.61650  0.54532  1.0000
  H   H526      1.0  0.33999  0.62239  0.73027  1.0000
  C   C663      1.0  0.26941  0.55386  0.77499  1.0000
  C   C664      1.0  0.26513  0.64813  0.94502  1.0000
  H   H527      1.0  0.46561  0.68122  0.71386  1.0000
  C   C665      1.0  0.33407  0.62465  0.81089  1.0000
  C   C666      1.0  0.18682  0.62986  0.78818  1.0000
  C   C667      1.0  0.19911  0.63961  0.80914  1.0000
  C   C668      1.0  0.22134  0.64711  0.80856  1.0000
  C   C669      1.0  0.23127  0.64467  0.78710  1.0000
  C   C670      1.0  0.21906  0.63512  0.76576  1.0000
  C   C671      1.0  0.19667  0.62741  0.76667  1.0000
  P   P24       1.0  0.23199  0.63186  0.73804  1.0000
  C   C672      1.0  0.25936  0.65280  0.73830  1.0000
  C   C673      1.0  0.23203  0.60602  0.73882  1.0000
  C   C674      1.0  0.23523  0.59798  0.76133  1.0000
  C   C675      1.0  0.23414  0.57754  0.76252  1.0000
  C   C676      1.0  0.23016  0.56512  0.74105  1.0000
  C   C677      1.0  0.22794  0.57338  0.71830  1.0000
  C   C678      1.0  0.22909  0.59386  0.71710  1.0000
  C   C679      1.0  0.27669  0.64791  0.73490  1.0000
  C   C680      1.0  0.29780  0.66384  0.73783  1.0000
  C   C681      1.0  0.30176  0.68468  0.74429  1.0000
  C   C682      1.0  0.28466  0.68970  0.74746  1.0000
  C   C683      1.0  0.26355  0.67389  0.74434  1.0000
  C   C684      1.0  0.21723  0.63357  0.71120  1.0000
  C   C685      1.0  0.19788  0.61594  0.70442  1.0000
  C   C686      1.0  0.18619  0.61698  0.68389  1.0000
  C   C687      1.0  0.19363  0.63570  0.66994  1.0000
  C   C688      1.0  0.21283  0.65338  0.67651  1.0000
  C   C689      1.0  0.22463  0.65234  0.69704  1.0000
  H   H528      1.0  0.16947  0.62320  0.78900  1.0000
  H   H529      1.0  0.19131  0.64074  0.82605  1.0000
  H   H530      1.0  0.23082  0.65434  0.82499  1.0000
  H   H531      1.0  0.24843  0.65004  0.78745  1.0000
  H   H532      1.0  0.18656  0.61904  0.75117  1.0000
  H   H533      1.0  0.23812  0.60737  0.77803  1.0000
  H   H534      1.0  0.23574  0.57111  0.78027  1.0000
  H   H535      1.0  0.22851  0.54900  0.74209  1.0000
  H   H536      1.0  0.22464  0.56365  0.70169  1.0000
  H   H537      1.0  0.22712  0.59986  0.69933  1.0000
  H   H538      1.0  0.27397  0.63176  0.73067  1.0000
  H   H539      1.0  0.31803  0.69693  0.74740  1.0000
  H   H540      1.0  0.28780  0.70576  0.75307  1.0000
  H   H541      1.0  0.25044  0.67793  0.74762  1.0000
  H   H542      1.0  0.19167  0.60128  0.71505  1.0000
  H   H543      1.0  0.36144  0.60060  0.90614  1.0000
  C   C690      1.0  0.41070  0.70806  0.95106  1.0000
  C   C691      1.0  0.49195  0.71165  0.72228  1.0000
  H   H544      1.0  0.44876  0.53025  0.98522  1.0000
  C   C692      1.0  0.33120  0.59997  0.91675  1.0000
  C   C693      1.0  0.39091  0.58645  0.98300  1.0000
  C   C694      1.0  0.36983  0.64201  0.91654  1.0000
  C   C695      1.0  0.30913  0.58681  0.91959  1.0000
  C   C696      1.0  0.31186  0.63384  0.90182  1.0000
  C   C697      1.0  0.38782  0.64330  0.92952  1.0000
  H   H545      1.0  0.13332  0.50213  0.53627  1.0000
  H   H546      1.0  0.48833  0.52944  0.54629  1.0000
  H   H547      1.0  0.35989  0.64632  0.76419  1.0000
  H   H548      1.0  0.04731  0.57120  0.68474  1.0000
  C   C698      1.0  0.35430  0.67407  0.76059  1.0000
  C   C699      1.0  0.44004  0.63687  0.70695  1.0000
  P   P25       1.0  0.34302  0.62706  0.92844  1.0000
  C   C700      1.0  0.21402  0.65190  0.96028  1.0000
  C   C701      1.0  0.47076  0.52195  0.71431  1.0000
  H   H549      1.0  0.01924  0.59225  0.48966  1.0000
  C   C702      1.0  0.01793  0.63301  0.49341  1.0000
  C   C703      1.0  0.19822  0.69865  0.57268  1.0000
  C   C704      1.0  0.24533  0.51987  0.75640  1.0000
  H   H550      1.0  0.29904  0.59314  0.92778  1.0000
  C   C705      1.0  0.47682  0.69432  0.53862  1.0000
  C   C706      1.0  0.38138  0.71768  0.95326  1.0000
  S   S110      1.0  0.33404  0.71332  0.80415  1.0000
  C   C707      1.0  0.32728  0.57479  0.74977  1.0000
  H   H551      1.0  0.24118  0.53011  0.79284  1.0000
  H   H552      1.0  0.03618  0.50933  0.60089  1.0000
  C   C708      1.0  0.04801  0.57844  0.55924  1.0000
  H   H553      1.0  0.40149  0.52130  0.69830  1.0000
  C   C709      1.0  0.48408  0.63517  0.59764  1.0000
  C   C710      1.0  0.32523  0.61834  0.72016  1.0000
  H   H554      1.0  0.41319  0.62638  0.68183  1.0000
  H   H555      1.0  0.33963  0.66730  0.77137  1.0000
  H   H556      1.0  0.21478  0.64909  0.97980  1.0000
  C   C711      1.0  0.39351  0.69245  0.73552  1.0000
  H   H557      1.0  0.48239  0.53808  0.71913  1.0000
  C   C712      1.0  0.33704  0.66380  0.92613  1.0000
  S   S111      1.0  0.42835  0.73951  0.85263  1.0000
  C   C713      1.0  0.33918  0.57757  0.72793  1.0000
  C   C714      1.0  0.30659  0.59976  0.72610  1.0000
  H   H558      1.0  0.43989  0.70584  0.50931  1.0000
  P   P26       1.0  0.47484  0.64890  0.73935  1.0000
  C   C715      1.0  0.30953  0.66739  0.90218  1.0000
  C   C716      1.0  0.22349  0.54133  0.95732  1.0000
  H   H559      1.0  0.46400  0.72086  0.58377  1.0000
  C   C717      1.0  0.38522  0.67137  0.74393  1.0000
  C   C718      1.0  0.36262  0.69520  0.75237  1.0000
  H   H560      1.0  0.38628  0.61871  0.71528  1.0000
  C   C719      1.0  0.29541  0.60803  0.78452  1.0000
  C   C720      1.0  0.44678  0.63992  0.73181  1.0000
  C   C721      1.0  0.41830  0.62926  0.70101  1.0000
  H   H561      1.0  0.13942  0.56292  0.50153  1.0000
  C   C722      1.0  0.25414  0.57319  0.94342  1.0000
  C   C723      1.0  0.47717  0.64085  0.77049  1.0000
  H   H562      1.0  0.39800  0.62451  0.75916  1.0000
  C   C724      1.0  0.30005  0.73979  0.91530  1.0000
  H   H563      1.0  0.13658  0.72417  0.51939  1.0000
  H   H564      1.0  0.34289  0.60496  0.78774  1.0000
  C   C725      1.0  0.38670  0.51083  0.66273  1.0000
  C   C726      1.0  0.38230  0.70460  0.73971  1.0000
  Fe  Fe51      1.0  0.43023  0.51482  0.61287  1.0000
  H   H565      1.0  0.43601  0.63763  0.76994  1.0000
  C   C727      1.0  0.06000  0.60935  0.53255  1.0000
  C   C728      1.0  0.32718  0.67621  0.91809  1.0000
  H   H566      1.0  0.47730  0.61095  0.75975  1.0000
  C   C729      1.0  0.47861  0.64722  0.81492  1.0000
  C   C730      1.0  0.43145  0.63559  0.75058  1.0000
  C   C731      1.0  0.35387  0.56904  0.72597  1.0000
  H   H567      1.0  0.44423  0.54114  0.49719  1.0000
  C   C732      1.0  0.33037  0.60958  0.79203  1.0000
  C   C733      1.0  0.47948  0.61520  0.79907  1.0000
  H   H568      1.0  0.42875  0.54572  0.53645  1.0000
  H   H569      1.0  0.28684  0.62781  0.80818  1.0000
  C   C734      1.0  0.49323  0.50555  0.56665  1.0000
  C   C735      1.0  0.40315  0.62487  0.71981  1.0000
  C   C736      1.0  0.48074  0.68932  0.72358  1.0000
  H   H570      1.0  0.28877  0.63987  0.88073  1.0000
  C   C737      1.0  0.29388  0.65158  0.98290  1.0000
  H   H571      1.0  0.07836  0.60710  0.68148  1.0000
  C   C738      1.0  0.20524  0.62658  0.50122  1.0000
  C   C739      1.0  0.30211  0.64637  0.89369  1.0000
  C   C740      1.0  0.47725  0.65359  0.79074  1.0000
  H   H572      1.0  0.38726  0.52619  0.65830  1.0000
  H   H573      1.0  0.43117  0.73973  0.63438  1.0000
  H   H574      1.0  0.03346  0.69368  0.52687  1.0000
  C   C741      1.0  0.48906  0.67774  0.73739  1.0000
  H   H575      1.0  0.33691  0.58587  0.71222  1.0000
  C   C742      1.0  0.32490  0.63185  0.70131  1.0000
  H   H576      1.0  0.26167  0.58511  0.92927  1.0000
  C   C743      1.0  0.26730  0.71981  0.93839  1.0000
  C   C744      1.0  0.03465  0.60473  0.56522  1.0000
  H   H577      1.0  0.43035  0.74861  0.97494  1.0000
  C   C745      1.0  0.31843  0.63130  0.81666  1.0000
  C   C746      1.0  0.28220  0.55936  0.75369  1.0000
  H   H578      1.0  0.33341  0.69279  0.92385  1.0000
  C   C747      1.0  0.41419  0.50588  0.76578  1.0000
  H   H579      1.0  0.34637  0.54528  0.78246  1.0000
  H   H580      1.0  0.41765  0.72296  0.77036  1.0000
  H   H581      1.0  0.07580  0.54239  0.55477  1.0000
  C   C748      1.0  0.46667  0.63436  0.58407  1.0000
  C   C749      1.0  0.29906  0.62288  0.80356  1.0000
  C   C750      1.0  0.44861  0.58014  0.96633  1.0000
  H   H582      1.0  0.23112  0.50463  0.75759  1.0000
  S   S112      1.0  0.37072  0.73278  0.86271  1.0000
  C   C751      1.0  0.49087  0.66442  0.55911  1.0000
  C   C752      1.0  0.34437  0.55423  0.76713  1.0000
  H   H583      1.0  0.39795  0.71885  0.89371  1.0000
  H   H584      1.0  0.44035  0.72235  0.55020  1.0000
  H   H585      1.0  0.42230  0.70392  0.95988  1.0000
  C   C753      1.0  0.23016  0.66970  0.92196  1.0000
  H   H586      1.0  0.45751  0.60714  0.71546  1.0000
  C   C754      1.0  0.46372  0.71358  0.56594  1.0000
  P   P27       1.0  0.25750  0.68151  0.96301  1.0000
  H   H587      1.0  0.30176  0.67693  0.89616  1.0000
  P   P28       1.0  0.49471  0.68237  0.53343  1.0000
  H   H588      1.0  0.32053  0.56019  0.78610  1.0000
  H   H589      1.0  0.40680  0.51366  0.56616  1.0000
  C   C755      1.0  0.21115  0.65694  0.90930  1.0000
  C   C756      1.0  0.19363  0.64155  0.92203  1.0000
  H   H590      1.0  0.42128  0.52312  0.80052  1.0000
  H   H591      1.0  0.35284  0.59849  0.95960  1.0000
  H   H592      1.0  0.28280  0.55558  0.91299  1.0000
  C   C757      1.0  0.48229  0.60660  0.69242  1.0000
  H   H593      1.0  0.33936  0.64621  0.69692  1.0000
  C   C758      1.0  0.23182  0.66730  0.94761  1.0000
  H   H594      1.0  0.49403  0.51445  0.69593  1.0000
  C   C759      1.0  0.40948  0.60591  0.98157  1.0000
  H   H595      1.0  0.25174  0.71792  0.94450  1.0000
  H   H596      1.0  0.07137  0.58550  0.53026  1.0000
  H   H597      1.0  0.27235  0.60486  0.68445  1.0000
  H   H598      1.0  0.03192  0.64211  0.50471  1.0000
  H   H599      1.0  0.39756  0.70758  0.64509  1.0000
  C   C760      1.0  0.28015  0.73741  0.92378  1.0000
  C   C761      1.0  0.47836  0.64583  0.50294  1.0000
  C   C762      1.0  0.23564  0.71674  0.56067  1.0000
  H   H600      1.0  0.23884  0.75075  0.49725  1.0000
  H   H601      1.0  0.18226  0.69258  0.51508  1.0000
  C   C763      1.0  0.35650  0.55743  0.74557  1.0000
  C   C764      1.0  0.03550  0.57197  0.64808  1.0000
  H   H602      1.0  0.20728  0.52897  0.95414  1.0000
  C   C765      1.0  0.19506  0.63906  0.94751  1.0000
  H   H603      1.0  0.21036  0.65843  0.88939  1.0000
  H   H604      1.0  0.02550  0.61112  0.57558  1.0000
  C   C766      1.0  0.44915  0.51464  0.72061  1.0000
  C   C767      1.0  0.43559  0.57581  0.94533  1.0000
  H   H605      1.0  0.42330  0.70837  0.91447  1.0000
  C   C768      1.0  0.40844  0.65527  0.92000  1.0000
  C   C769      1.0  0.07037  0.61257  0.64444  1.0000
  C   C770      1.0  0.25467  0.55877  0.98416  1.0000
  H   H606      1.0  0.24381  0.68068  0.91134  1.0000
  C   C771      1.0  0.23991  0.70253  0.57518  1.0000
  H   H607      1.0  0.07028  0.61898  0.51791  1.0000
  C   C772      1.0  0.16827  0.72802  0.52807  1.0000
  H   H608      1.0  0.25435  0.64673  0.92988  1.0000
  C   C773      1.0  0.07547  0.53462  0.53721  1.0000
  H   H609      1.0  0.25601  0.70389  0.57592  1.0000
  H   H610      1.0  0.04627  0.54800  0.60293  1.0000
  C   C774      1.0  0.27445  0.70463  0.94490  1.0000
  C   C775      1.0  0.39468  0.50796  0.68546  1.0000
  H   H611      1.0  0.48019  0.60420  0.51820  1.0000
  H   H612      1.0  0.02411  0.52065  0.54459  1.0000
  C   C776      1.0  0.47000  0.64908  0.56511  1.0000
  H   H613      1.0  0.47822  0.65687  0.83050  1.0000
  C   C777      1.0  0.39712  0.71662  0.91360  1.0000
  C   C778      1.0  0.22659  0.73492  0.49244  1.0000
  C   C779      1.0  0.34361  0.62430  0.96171  1.0000
  H   H614      1.0  0.17184  0.72645  0.50888  1.0000
  H   H615      1.0  0.48730  0.70319  0.57648  1.0000
  H   H616      1.0  0.44457  0.74622  0.80036  1.0000
  H   H617      1.0  0.44084  0.58649  0.92955  1.0000
  C   C780      1.0  0.47383  0.61612  0.70913  1.0000
  H   H618      1.0  0.45152  0.64001  0.69213  1.0000
  H   H619      1.0  0.27267  0.58136  0.71807  1.0000
  H   H620      1.0  0.02229  0.55607  0.64975  1.0000
  H   H621      1.0  0.47339  0.63630  0.51954  1.0000
  H   H622      1.0  0.35394  0.70420  0.75682  1.0000
  H   H623      1.0  0.38604  0.63477  0.94662  1.0000
  H   H624      1.0  0.27013  0.62181  0.93171  1.0000
  H   H625      1.0  0.38959  0.53020  0.79880  1.0000
  H   H626      1.0  0.38395  0.66764  0.97743  1.0000
  C   C781      1.0  0.03497  0.58554  0.57236  1.0000
  C   C782      1.0  0.48938  0.59934  0.55475  1.0000
  H   H627      1.0  0.23932  0.64597  0.49737  1.0000
  C   C783      1.0  0.02955  0.53667  0.60041  1.0000
  H   H628      1.0  0.32235  0.72624  0.91456  1.0000
  C   C784      1.0  0.02325  0.68194  0.48989  1.0000
  C   C785      1.0  0.27420  0.63396  0.94591  1.0000
  H   H629      1.0  0.18953  0.67160  0.59685  1.0000
  C   C786      1.0  0.37817  0.51364  0.76403  1.0000
  C   C787      1.0  0.26973  0.66363  0.96367  1.0000
  H   H630      1.0  0.15466  0.73530  0.59607  1.0000
  H   H631      1.0  0.04734  0.63164  0.54040  1.0000
  C   C788      1.0  0.01937  0.50519  0.66088  1.0000
  H   H632      1.0  0.04932  0.56426  0.56463  1.0000
  H   H633      1.0  0.38562  0.51060  0.52805  1.0000
  H   H634      1.0  0.19028  0.73771  0.58593  1.0000
  H   H635      1.0  0.05907  0.61357  0.60791  1.0000
  C   C789      1.0  0.08651  0.52224  0.53493  1.0000
  C   C790      1.0  0.41026  0.51712  0.78501  1.0000
  C   C791      1.0  0.06717  0.60075  0.66617  1.0000
  C   C792      1.0  0.27650  0.54479  0.73382  1.0000
  H   H636      1.0  0.42228  0.65589  0.92983  1.0000
  H   H637      1.0  0.44433  0.52526  0.73036  1.0000
  C   C793      1.0  0.03882  0.58354  0.62601  1.0000
  C   C794      1.0  0.28745  0.59514  0.71329  1.0000
  C   C795      1.0  0.30710  0.72460  0.92146  1.0000
  H   H638      1.0  0.18179  0.69630  0.57126  1.0000
  C   C796      1.0  0.41553  0.55795  0.94485  1.0000
  C   C797      1.0  0.25807  0.52517  0.73514  1.0000
  H   H639      1.0  0.47999  0.62270  0.83785  1.0000
  C   C798      1.0  0.14822  0.72683  0.53394  1.0000
  H   H640      1.0  0.28648  0.54851  0.71745  1.0000
  C   C799      1.0  0.04964  0.58056  0.66805  1.0000
  C   C800      1.0  0.14324  0.72924  0.55843  1.0000
  H   H641      1.0  0.35131  0.67121  0.93759  1.0000
  H   H642      1.0  0.22539  0.55596  0.92183  1.0000
  H   H643      1.0  0.30558  0.63741  0.67375  1.0000
  C   C801      1.0  0.45040  0.71442  0.54704  1.0000
  H   H644      1.0  0.05634  0.54721  0.51902  1.0000
  H   H645      1.0  0.11047  0.56922  0.51968  1.0000
  H   H646      1.0  0.47579  0.66822  0.78791  1.0000
  C   C802      1.0  0.06052  0.59038  0.53949  1.0000
  H   H647      1.0  0.46410  0.59409  0.96670  1.0000
  H   H648      1.0  0.08403  0.62819  0.64291  1.0000
  C   C803      1.0  0.21488  0.71527  0.55983  1.0000
  C   C804      1.0  0.38026  0.57653  0.96094  1.0000
  H   H649      1.0  0.01250  0.52833  0.49476  1.0000
  H   H650      1.0  0.22661  0.67530  0.59953  1.0000
  C   C805      1.0  0.45016  0.70514  0.52399  1.0000
  H   H651      1.0  0.45068  0.62183  0.58777  1.0000
  Fe  Fe52      1.0  0.35976  0.73997  0.82651  1.0000
  C   C806      1.0  0.46330  0.69509  0.51975  1.0000
  H   H652      1.0  0.09512  0.52030  0.55075  1.0000
  H   H653      1.0  0.45633  0.64803  0.55456  1.0000
  H   H654      1.0  0.40905  0.69954  0.72659  1.0000
  H   H655      1.0  0.36990  0.72102  0.96341  1.0000
  H   H656      1.0  0.32445  0.55164  0.96449  1.0000
  H   H657      1.0  0.36608  0.56130  0.96180  1.0000
  C   C807      1.0  0.29451  0.70723  0.93638  1.0000
  C   C808      1.0  0.28846  0.63558  0.96489  1.0000
  C   C809      1.0  0.05617  0.60410  0.62451  1.0000
  C   C810      1.0  0.36906  0.74843  0.70500  1.0000
  C   C811      1.0  0.47733  0.50865  0.70121  1.0000
  C   C812      1.0  0.20250  0.68441  0.58706  1.0000
  H   H658      1.0  0.20409  0.63452  0.51804  1.0000
  C   C813      1.0  0.15846  0.73321  0.57711  1.0000
  C   C814      1.0  0.19488  0.70224  0.50233  1.0000
  C   C815      1.0  0.21014  0.72293  0.50911  1.0000
  C   C816      1.0  0.22336  0.68642  0.58846  1.0000
  C   C817      1.0  0.38220  0.72027  0.92755  1.0000
  H   H659      1.0  0.40538  0.55483  0.92863  1.0000
  C   C818      1.0  0.36435  0.74488  0.74943  1.0000
  P   P29       1.0  0.39404  0.73232  0.73007  1.0000
  C   C819      1.0  0.39640  0.71828  0.68231  1.0000
  C   C820      1.0  0.39566  0.71155  0.96530  1.0000
  H   H660      1.0  0.39118  0.57039  0.49701  1.0000
  C   C821      1.0  0.08670  0.51262  0.51226  1.0000
  C   C822      1.0  0.01270  0.50545  0.53689  1.0000
  H   H661      1.0  0.47237  0.59046  0.68582  1.0000
  C   C823      1.0  0.22506  0.63302  0.48957  1.0000
  H   H662      1.0  0.28039  0.58728  0.96920  1.0000
  C   C824      1.0  0.40303  0.56435  0.49696  1.0000
  C   C825      1.0  0.11608  0.57499  0.50121  1.0000
  C   C826      1.0  0.48878  0.66830  0.50411  1.0000
  H   H663      1.0  0.47944  0.59989  0.80233  1.0000
  P   P30       1.0  0.20931  0.73283  0.53982  1.0000
  C   C827      1.0  0.31719  0.55033  0.98255  1.0000
  C   C828      1.0  0.39234  0.52111  0.78406  1.0000
  H   H664      1.0  0.29411  0.56013  0.96940  1.0000
  C   C829      1.0  0.18679  0.60987  0.49121  1.0000
  C   C830      1.0  0.03082  0.50351  0.73437  1.0000
  C   C831      1.0  0.02155  0.54462  0.48853  1.0000
  H   H665      1.0  0.17169  0.60526  0.50065  1.0000
  C   C832      1.0  0.42291  0.74003  0.76950  1.0000
  H   H666      1.0  0.29538  0.62452  0.96550  1.0000
  C   C833      1.0  0.13267  0.57158  0.49088  1.0000
  Fe  Fe53      1.0  0.09776  0.51000  0.62815  1.0000
  H   H667      1.0  0.17889  0.55292  0.98085  1.0000
  C   C834      1.0  0.33837  0.63696  0.97799  1.0000
  C   C835      1.0  0.18342  0.73142  0.54683  1.0000
  C   C836      1.0  0.00098  0.68838  0.51980  1.0000
  C   C837      1.0  0.07577  0.51530  0.49184  1.0000
  H   H668      1.0  0.12761  0.72814  0.56284  1.0000
  C   C838      1.0  0.06448  0.52766  0.49391  1.0000
  H   H669      1.0  0.37675  0.74726  0.68808  1.0000
  C   C839      1.0  0.10764  0.58683  0.48840  1.0000
  C   C840      1.0  0.17857  0.73449  0.57132  1.0000
  H   H670      1.0  0.48154  0.62327  0.61174  1.0000
  C   C841      1.0  0.01397  0.55962  0.49398  1.0000
  H   H671      1.0  0.25380  0.51393  0.71983  1.0000
  H   H672      1.0  0.48543  0.72053  0.71169  1.0000
  C   C842      1.0  0.28453  0.66556  0.98236  1.0000
  C   C843      1.0  0.41417  0.74894  0.75218  1.0000
  H   H673      1.0  0.27463  0.74912  0.91883  1.0000
  H   H674      1.0  0.46153  0.50283  0.98045  1.0000
  C   C844      1.0  0.38218  0.50263  0.74462  1.0000
  C   C845      1.0  0.29997  0.55530  0.98550  1.0000
  Fe  Fe54      1.0  0.39537  0.78150  0.05659  1.0000
  S   S113      1.0  0.41885  0.78974  0.08826  1.0000
  S   S114      1.0  0.40859  0.79064  0.01732  1.0000
  C   C846      1.0  0.24565  0.85617  0.40652  1.0000
  H   H675      1.0  0.39327  0.82013  0.29729  1.0000
  Fe  Fe55      1.0  0.39556  0.79650  0.11119  1.0000
  S   S115      1.0  0.41082  0.82789  0.13361  1.0000
  C   C847      1.0  0.23858  0.83114  0.33366  1.0000
  S   S116      1.0  0.37340  0.79105  0.07826  1.0000
  Fe  Fe56      1.0  0.32558  0.86468  0.45060  1.0000
  S   S117      1.0  0.29672  0.86762  0.43642  1.0000
  S   S118      1.0  0.34920  0.85730  0.42871  1.0000
  Fe  Fe57      1.0  0.42360  0.90255  0.31676  1.0000
  S   S119      1.0  0.43341  0.90878  0.27660  1.0000
  S   S120      1.0  0.39904  0.91108  0.33489  1.0000
  Fe  Fe58      1.0  0.45398  0.88323  0.32767  1.0000
  S   S121      1.0  0.46629  0.88734  0.28870  1.0000
  S   S122      1.0  0.46167  0.86829  0.36095  1.0000
  Fe  Fe59      1.0  0.46706  0.91996  0.29128  1.0000
  H   H676      1.0  0.43129  0.90212  0.20932  1.0000
  Fe  Fe60      1.0  0.43196  0.87581  0.27632  1.0000
  S   S123      1.0  0.41319  0.84766  0.24987  1.0000
  S   S124      1.0  0.45735  0.91654  0.33126  1.0000
  S   S125      1.0  0.41956  0.86905  0.31552  1.0000
  C   C848      1.0  0.36298  0.87276  0.40294  1.0000
  C   C849      1.0  0.37872  0.86846  0.39151  1.0000
  C   C850      1.0  0.38999  0.88027  0.37081  1.0000
  C   C851      1.0  0.38547  0.89637  0.36125  1.0000
  C   C852      1.0  0.36980  0.90078  0.37276  1.0000
  C   C853      1.0  0.35860  0.88904  0.39362  1.0000
  H   H677      1.0  0.38223  0.85594  0.39869  1.0000
  H   H678      1.0  0.40216  0.87687  0.36229  1.0000
  H   H679      1.0  0.36630  0.91328  0.36553  1.0000
  H   H680      1.0  0.34652  0.89249  0.40238  1.0000
  C   C854      1.0  0.44488  0.81451  0.42741  1.0000
  C   C855      1.0  0.21875  0.80976  0.39415  1.0000
  C   C856      1.0  0.28294  0.84721  0.36873  1.0000
  C   C857      1.0  0.41215  0.83254  0.16622  1.0000
  C   C858      1.0  0.39838  0.81723  0.18281  1.0000
  C   C859      1.0  0.39906  0.82217  0.20829  1.0000
  C   C860      1.0  0.41360  0.84236  0.21760  1.0000
  C   C861      1.0  0.42768  0.85753  0.20112  1.0000
  C   C862      1.0  0.42684  0.85268  0.17559  1.0000
  H   H681      1.0  0.38692  0.80173  0.17593  1.0000
  H   H682      1.0  0.38810  0.81027  0.22084  1.0000
  H   H683      1.0  0.43925  0.87292  0.20802  1.0000
  H   H684      1.0  0.43760  0.86465  0.16296  1.0000
  H   H685      1.0  0.38633  0.81088  0.34184  1.0000
  C   C863      1.0  0.43771  0.97693  0.32780  1.0000
  C   C864      1.0  0.39658  0.99224  0.36056  1.0000
  H   H686      1.0  0.36293  0.77311  0.00433  1.0000
  C   C865      1.0  0.42052  0.95770  0.29034  1.0000
  C   C866      1.0  0.30309  0.84735  0.36926  1.0000
  C   C867      1.0  0.38144  0.82313  0.00328  1.0000
  H   H687      1.0  0.36617  0.87457  0.30472  1.0000
  S   S126      1.0  0.37780  0.76264  0.12526  1.0000
  C   C868      1.0  0.48072  0.97754  0.28025  1.0000
  H   H688      1.0  0.46950  0.92578  0.21832  1.0000
  H   H689      1.0  0.23067  0.83557  0.43782  1.0000
  C   C869      1.0  0.48446  0.82720  0.33723  1.0000
  C   C870      1.0  0.48016  0.83882  0.44261  1.0000
  H   H690      1.0  0.42485  0.82044  0.27712  1.0000
  H   H691      1.0  0.38491  0.81730  0.02048  1.0000
  C   C871      1.0  0.48110  0.92224  0.39291  1.0000
  C   C872      1.0  0.44856  0.77397  0.02991  1.0000
  C   C873      1.0  0.19299  0.75402  0.46073  1.0000
  C   C874      1.0  0.40010  0.81057  0.33286  1.0000
  H   H692      1.0  0.38961  0.87033  0.23261  1.0000
  C   C875      1.0  0.43216  0.95940  0.31198  1.0000
  C   C876      1.0  0.42219  0.81626  0.29643  1.0000
  H   H693      1.0  0.45775  0.78251  0.99199  1.0000
  Fe  Fe61      1.0  0.27809  0.84491  0.46747  1.0000
  C   C877      1.0  0.39832  0.84399  0.47608  1.0000
  C   C878      1.0  0.41985  0.99121  0.30031  1.0000
  C   C879      1.0  0.44705  0.77024  0.00438  1.0000
  H   H694      1.0  0.41224  0.88107  0.13329  1.0000
  H   H695      1.0  0.23229  0.78951  0.37962  1.0000
  C   C880      1.0  0.37190  0.77386  0.98771  1.0000
  C   C881      1.0  0.37054  0.88079  0.28611  1.0000
  H   H696      1.0  0.41802  0.90890  0.16482  1.0000
  C   C882      1.0  0.18230  0.78069  0.47434  1.0000
  C   C883      1.0  0.40402  0.81584  0.30785  1.0000
  C   C884      1.0  0.38910  0.94046  0.18005  1.0000
  C   C885      1.0  0.37054  0.90015  0.27972  1.0000
  H   H697      1.0  0.25831  0.81005  0.41357  1.0000
  S   S127      1.0  0.30699  0.84086  0.47992  1.0000
  H   H698      1.0  0.42094  0.93626  0.43530  1.0000
  H   H699      1.0  0.45524  0.92697  0.40878  1.0000
  C   C886      1.0  0.30686  0.83382  0.38538  1.0000
  C   C887      1.0  0.47177  0.93466  0.40255  1.0000
  H   H700      1.0  0.42277  0.95938  0.47071  1.0000
  H   H701      1.0  0.19951  0.82473  0.40795  1.0000
  H   H702      1.0  0.28053  0.85830  0.35671  1.0000
  H   H703      1.0  0.23919  0.86510  0.46740  1.0000
  H   H704      1.0  0.46044  0.78906  0.03735  1.0000
  H   H705      1.0  0.45721  0.87723  0.45278  1.0000
  C   C888      1.0  0.37716  0.87001  0.26892  1.0000
  C   C889      1.0  0.45562  0.76783  0.24111  1.0000
  H   H706      1.0  0.35918  0.86578  0.20081  1.0000
  Fe  Fe62      1.0  0.30681  0.89498  0.46428  1.0000
  C   C890      1.0  0.43666  0.81142  0.30988  1.0000
  H   H707      1.0  0.22687  0.76608  0.45247  1.0000
  H   H708      1.0  0.35594  0.95441  0.45233  1.0000
  H   H709      1.0  0.26377  0.88124  0.38038  1.0000
  C   C891      1.0  0.37792  0.95106  0.17021  1.0000
  C   C892      1.0  0.20106  0.77083  0.39500  1.0000
  H   H710      1.0  0.44441  0.00008  0.39107  1.0000
  C   C893      1.0  0.41218  0.92925  0.45211  1.0000
  C   C894      1.0  0.34619  0.92751  0.19293  1.0000
  H   H711      1.0  0.41626  0.94395  0.27829  1.0000
  H   H712      1.0  0.37755  0.92399  0.25168  1.0000
  H   H713      1.0  0.32948  0.92231  0.19766  1.0000
  C   C895      1.0  0.21452  0.77023  0.45884  1.0000
  C   C896      1.0  0.38371  0.87851  0.24529  1.0000
  S   S128      1.0  0.30820  0.92810  0.45712  1.0000
  C   C897      1.0  0.46306  0.90680  0.47061  1.0000
  H   H714      1.0  0.37791  0.85539  0.27412  1.0000
  C   C898      1.0  0.22231  0.84795  0.30747  1.0000
  C   C899      1.0  0.42789  0.94846  0.22091  1.0000
  C   C900      1.0  0.37990  0.98825  0.37734  1.0000
  C   C901      1.0  0.37700  0.90866  0.25605  1.0000
  H   H715      1.0  0.16880  0.79069  0.41976  1.0000
  C   C902      1.0  0.43164  0.76891  0.28216  1.0000
  H   H716      1.0  0.38028  0.84593  0.13534  1.0000
  H   H717      1.0  0.24637  0.82083  0.33548  1.0000
  P   P31       1.0  0.24105  0.83466  0.38504  1.0000
  H   H718      1.0  0.30112  0.96249  0.47546  1.0000
  H   H719      1.0  0.36444  0.97449  0.37477  1.0000
  H   H720      1.0  0.43485  0.80291  0.41381  1.0000
  H   H721      1.0  0.43533  0.76137  0.06562  1.0000
  H   H722      1.0  0.34897  0.90332  0.21488  1.0000
  H   H723      1.0  0.46995  0.91622  0.45420  1.0000
  H   H724      1.0  0.37687  0.88107  0.47509  1.0000
  C   C903      1.0  0.23275  0.83503  0.31011  1.0000
  H   H725      1.0  0.48142  0.87058  0.40802  1.0000
  C   C904      1.0  0.27044  0.82009  0.40063  1.0000
  C   C905      1.0  0.45597  0.88464  0.46996  1.0000
  H   H726      1.0  0.37921  0.99382  0.45834  1.0000
  H   H727      1.0  0.40529  0.97230  0.26774  1.0000
  S   S129      1.0  0.24801  0.81155  0.46323  1.0000
  H   H728      1.0  0.40555  0.94532  0.17441  1.0000
  C   C906      1.0  0.47081  0.84523  0.46173  1.0000
  C   C907      1.0  0.29060  0.82029  0.40115  1.0000
  H   H729      1.0  0.41100  0.80099  0.36566  1.0000
  H   H730      1.0  0.47184  0.90499  0.39189  1.0000
  H   H731      1.0  0.36626  0.90887  0.29352  1.0000
  C   C908      1.0  0.44955  0.96178  0.22598  1.0000
  C   C909      1.0  0.26635  0.83333  0.38419  1.0000
  H   H732      1.0  0.20926  0.86670  0.32639  1.0000
  C   C910      1.0  0.26272  0.89424  0.41612  1.0000
  C   C911      1.0  0.35650  0.94464  0.17672  1.0000
  C   C912      1.0  0.43425  0.75848  0.04584  1.0000
  H   H733      1.0  0.43686  0.94701  0.31655  1.0000
  H   H734      1.0  0.27258  0.91069  0.41063  1.0000
  H   H735      1.0  0.45473  0.97831  0.23147  1.0000
  H   H736      1.0  0.35389  0.83829  0.16911  1.0000
  C   C913      1.0  0.35733  0.91689  0.20281  1.0000
  C   C914      1.0  0.25771  0.87752  0.39910  1.0000
  C   C915      1.0  0.44843  0.83573  0.46450  1.0000
  H   H737      1.0  0.20778  0.81310  0.47798  1.0000
  C   C916      1.0  0.23907  0.85185  0.43129  1.0000
  H   H738      1.0  0.29384  0.81050  0.41439  1.0000
  H   H739      1.0  0.21772  0.85089  0.28923  1.0000
  C   C917      1.0  0.37900  0.92359  0.19682  1.0000
  H   H740      1.0  0.38582  0.96413  0.15735  1.0000
  C   C918      1.0  0.22025  0.79176  0.46506  1.0000
  C   C919      1.0  0.39938  0.90715  0.45326  1.0000
  H   H741      1.0  0.34782  0.95279  0.16898  1.0000
  C   C920      1.0  0.34906  0.96450  0.45929  1.0000
  C   C921      1.0  0.25580  0.88978  0.44063  1.0000
  H   H742      1.0  0.34582  0.80740  0.47963  1.0000
  H   H743      1.0  0.44720  0.81932  0.24514  1.0000
  H   H744      1.0  0.23622  0.82791  0.29393  1.0000
  C   C922      1.0  0.36313  0.81410  0.48137  1.0000
  P   P32       1.0  0.45969  0.81126  0.29453  1.0000
  H   H745      1.0  0.41640  0.95485  0.22275  1.0000
  S   S130      1.0  0.33654  0.89296  0.47619  1.0000
  C   C923      1.0  0.41437  0.97362  0.28448  1.0000
  H   H746      1.0  0.31602  0.85836  0.35773  1.0000
  C   C924      1.0  0.20027  0.80982  0.40449  1.0000
  C   C925      1.0  0.43168  0.99303  0.32203  1.0000
  H   H747      1.0  0.39822  0.89704  0.43747  1.0000
  H   H748      1.0  0.46533  0.96379  0.28235  1.0000
  C   C926      1.0  0.46287  0.78626  0.25585  1.0000
  C   C927      1.0  0.24398  0.86860  0.44821  1.0000
  C   C928      1.0  0.40067  0.87799  0.14801  1.0000
  C   C929      1.0  0.38260  0.85812  0.14913  1.0000
  C   C930      1.0  0.36777  0.85380  0.16824  1.0000
  C   C931      1.0  0.37100  0.86933  0.18632  1.0000
  C   C932      1.0  0.38948  0.88910  0.18581  1.0000
  C   C933      1.0  0.40402  0.89355  0.16613  1.0000
  P   P33       1.0  0.39317  0.90940  0.20866  1.0000
  C   C934      1.0  0.38332  0.89770  0.23853  1.0000
  C   C935      1.0  0.42120  0.92701  0.21398  1.0000
  C   C936      1.0  0.43631  0.91887  0.21328  1.0000
  C   C937      1.0  0.45794  0.93220  0.21844  1.0000
  C   C938      1.0  0.46458  0.95368  0.22457  1.0000
  H   H749      1.0  0.36858  0.84435  0.46591  1.0000
  H   H750      1.0  0.32261  0.83429  0.38619  1.0000
  H   H751      1.0  0.48132  0.96389  0.22887  1.0000
  C   C939      1.0  0.22339  0.85302  0.35197  1.0000
  H   H752      1.0  0.44662  0.97773  0.34450  1.0000
  C   C940      1.0  0.47956  0.81292  0.31714  1.0000
  C   C941      1.0  0.32680  0.95540  0.46400  1.0000
  H   H753      1.0  0.26020  0.90276  0.45391  1.0000
  H   H754      1.0  0.39369  0.98133  0.34515  1.0000
  C   C942      1.0  0.48368  0.95690  0.40385  1.0000
  C   C943      1.0  0.31820  0.96901  0.47213  1.0000
  C   C944      1.0  0.36226  0.98694  0.46247  1.0000
  C   C945      1.0  0.23423  0.84039  0.35470  1.0000
  H   H755      1.0  0.46481  0.76749  0.22505  1.0000
  C   C946      1.0  0.45082  0.78701  0.27636  1.0000
  H   H756      1.0  0.46329  0.84959  0.21651  1.0000
  C   C947      1.0  0.18268  0.79057  0.41085  1.0000
  C   C948      1.0  0.21870  0.79007  0.38866  1.0000
  C   C949      1.0  0.21758  0.85689  0.32840  1.0000
  H   H757      1.0  0.21928  0.85976  0.36804  1.0000
  C   C950      1.0  0.46186  0.83310  0.25057  1.0000
  C   C951      1.0  0.46722  0.82364  0.42527  1.0000
  H   H758      1.0  0.41817  0.81299  0.44842  1.0000
  H   H759      1.0  0.40789  0.86028  0.47001  1.0000
  H   H760      1.0  0.44235  0.80040  0.34540  1.0000
  C   C952      1.0  0.41404  0.80507  0.34626  1.0000
  C   C953      1.0  0.43548  0.82035  0.44708  1.0000
  H   H761      1.0  0.48731  0.78941  0.29929  1.0000
  C   C954      1.0  0.39412  0.78099  0.98918  1.0000
  C   C955      1.0  0.33123  0.99106  0.47553  1.0000
  H   H762      1.0  0.32395  0.00109  0.48158  1.0000
  Fe  Fe63      1.0  0.35755  0.75657  0.09079  1.0000
  H   H763      1.0  0.47636  0.83722  0.33933  1.0000
  C   C956      1.0  0.43205  0.80512  0.33474  1.0000
  C   C957      1.0  0.41313  0.94231  0.47230  1.0000
  C   C958      1.0  0.48993  0.86826  0.24055  1.0000
  C   C959      1.0  0.17654  0.75912  0.46826  1.0000
  C   C960      1.0  0.47102  0.85024  0.23415  1.0000
  H   H764      1.0  0.42207  0.76906  0.29788  1.0000
  Fe  Fe64      1.0  0.39980  0.75575  0.10026  1.0000
  C   C961      1.0  0.47147  0.83386  0.27371  1.0000
  H   H765      1.0  0.47455  0.81913  0.41009  1.0000
  H   H766      1.0  0.34946  0.81675  0.01416  1.0000
  C   C962      1.0  0.18312  0.77110  0.40624  1.0000
  C   C963      1.0  0.49381  0.87509  0.39408  1.0000
  C   C964      1.0  0.48865  0.87627  0.36919  1.0000
  H   H767      1.0  0.47641  0.96651  0.41130  1.0000
  C   C965      1.0  0.36145  0.82277  0.99968  1.0000
  C   C966      1.0  0.49060  0.80043  0.31465  1.0000
  C   C967      1.0  0.49914  0.97451  0.27828  1.0000
  H   H768      1.0  0.48103  0.85754  0.47451  1.0000
  C   C968      1.0  0.37600  0.83504  0.47367  1.0000
  C   C969      1.0  0.38740  0.89810  0.47451  1.0000
  H   H769      1.0  0.49834  0.85335  0.29761  1.0000
  C   C970      1.0  0.20387  0.79677  0.47300  1.0000
  H   H770      1.0  0.46766  0.00027  0.27934  1.0000
  H   H771      1.0  0.47774  0.80002  0.25106  1.0000
  C   C971      1.0  0.48211  0.99819  0.27829  1.0000
  S   S131      1.0  0.49753  0.94854  0.27882  1.0000
  C   C972      1.0  0.49053  0.85207  0.27997  1.0000
  C   C973      1.0  0.35326  0.00043  0.47039  1.0000
  H   H772      1.0  0.49750  0.84579  0.44119  1.0000
  H   H773      1.0  0.20133  0.75569  0.39147  1.0000
  H   H774      1.0  0.16964  0.75623  0.41173  1.0000
  H   H775      1.0  0.49684  0.88164  0.22791  1.0000
  H   H776      1.0  0.37006  0.99916  0.41021  1.0000
  H   H777      1.0  0.41188  0.82979  0.98768  1.0000
  H   H778      1.0  0.16991  0.78502  0.48016  1.0000
  P   P34       1.0  0.43673  0.84345  0.49022  1.0000
  Fe  Fe65      1.0  0.47174  0.88389  0.62843  1.0000
  S   S132      1.0  0.46453  0.89233  0.66664  1.0000
  C   C974      1.0  0.45274  0.82420  0.56640  1.0000
  Fe  Fe66      1.0  0.42673  0.87261  0.60885  1.0000
  S   S133      1.0  0.41576  0.88002  0.64505  1.0000
  S   S134      1.0  0.40921  0.86231  0.57211  1.0000
  Fe  Fe67      1.0  0.44816  0.90899  0.64599  1.0000
  S   S135      1.0  0.44998  0.94205  0.65141  1.0000
  Fe  Fe68      1.0  0.43274  0.86260  0.66306  1.0000
  S   S136      1.0  0.41515  0.83402  0.68909  1.0000
  S   S137      1.0  0.45776  0.90258  0.60853  1.0000
  S   S138      1.0  0.44147  0.85315  0.62620  1.0000
  C   C975      1.0  0.35427  0.75688  0.70386  1.0000
  H   H779      1.0  0.40553  0.99625  0.65971  1.0000
  Fe  Fe69      1.0  0.39364  0.78678  0.82653  1.0000
  S   S139      1.0  0.35944  0.77021  0.84028  1.0000
  S   S140      1.0  0.40883  0.81909  0.80657  1.0000
  Fe  Fe70      1.0  0.37343  0.76441  0.87574  1.0000
  S   S141      1.0  0.35934  0.76520  0.91368  1.0000
  C   C976      1.0  0.24365  0.76779  0.56242  1.0000
  S   S142      1.0  0.40755  0.78338  0.86327  1.0000
  H   H780      1.0  0.24086  0.80893  0.51633  1.0000
  Fe  Fe71      1.0  0.31541  0.86947  0.50426  1.0000
  H   H781      1.0  0.42400  0.82556  0.57891  1.0000
  S   S143      1.0  0.32557  0.87221  0.54444  1.0000
  S   S144      1.0  0.39288  0.75683  0.81054  1.0000
  C   C977      1.0  0.36865  0.93412  0.55513  1.0000
  H   H782      1.0  0.31476  0.91756  0.55074  1.0000
  H   H783      1.0  0.37793  0.90379  0.51041  1.0000
  C   C978      1.0  0.24170  0.79743  0.52915  1.0000
  C   C979      1.0  0.35692  0.82996  0.97736  1.0000
  H   H784      1.0  0.44594  0.98046  0.50954  1.0000
  C   C980      1.0  0.41379  0.97772  0.51179  1.0000
  C   C981      1.0  0.37293  0.77019  0.94262  1.0000
  C   C982      1.0  0.36142  0.76868  0.96452  1.0000
  C   C983      1.0  0.39493  0.77629  0.94423  1.0000
  H   H785      1.0  0.49798  0.99806  0.55017  1.0000
  H   H786      1.0  0.40388  0.77712  0.92759  1.0000
  C   C984      1.0  0.47526  0.96474  0.65195  1.0000
  C   C985      1.0  0.43415  0.82675  0.56319  1.0000
  C   C986      1.0  0.42796  0.91048  0.95342  1.0000
  C   C987      1.0  0.38648  0.86605  0.56458  1.0000
  C   C988      1.0  0.37688  0.87398  0.58188  1.0000
  C   C989      1.0  0.35837  0.87610  0.57538  1.0000
  C   C990      1.0  0.34946  0.87048  0.55155  1.0000
  C   C991      1.0  0.35940  0.86309  0.53406  1.0000
  C   C992      1.0  0.37784  0.86086  0.54058  1.0000
  H   H787      1.0  0.38346  0.87807  0.60038  1.0000
  H   H788      1.0  0.35074  0.88184  0.58896  1.0000
  H   H789      1.0  0.35263  0.85868  0.51567  1.0000
  H   H790      1.0  0.38525  0.85479  0.52711  1.0000
  C   C993      1.0  0.41365  0.83061  0.72190  1.0000
  C   C994      1.0  0.40039  0.81021  0.73155  1.0000
  C   C995      1.0  0.39878  0.80646  0.75732  1.0000
  C   C996      1.0  0.41040  0.82309  0.77388  1.0000
  C   C997      1.0  0.42352  0.84356  0.76429  1.0000
  C   C998      1.0  0.42520  0.84732  0.73847  1.0000
  H   H791      1.0  0.39134  0.79720  0.71897  1.0000
  H   H792      1.0  0.38854  0.79070  0.76440  1.0000
  H   H793      1.0  0.43252  0.85660  0.77689  1.0000
  H   H794      1.0  0.43543  0.86310  0.73141  1.0000
  C   C999      1.0  0.44245  0.83442  0.51949  1.0000
  H   H795      1.0  0.42043  0.91931  0.96231  1.0000
  C   C1000     1.0  0.40549  0.78196  0.96734  1.0000
  C   C1001     1.0  0.47629  0.98521  0.64969  1.0000
  H   H796      1.0  0.43788  0.87323  0.52936  1.0000
  H   H797      1.0  0.34436  0.76388  0.96350  1.0000
  H   H798      1.0  0.45714  0.93870  0.94504  1.0000
  C   C1002     1.0  0.41502  0.92552  0.55066  1.0000
  H   H799      1.0  0.41452  0.77837  0.73926  1.0000
  H   H800      1.0  0.44725  0.85599  0.97306  1.0000
  C   C1003     1.0  0.46250  0.83672  0.96151  1.0000
  C   C1004     1.0  0.37237  0.83741  0.95861  1.0000
  P   P35       1.0  0.41249  0.84775  0.93773  1.0000
  C   C1005     1.0  0.43193  0.83731  0.94038  1.0000
  C   C1006     1.0  0.39989  0.84026  0.90764  1.0000
  C   C1007     1.0  0.38102  0.82107  0.90471  1.0000
  C   C1008     1.0  0.37182  0.81454  0.88130  1.0000
  C   C1009     1.0  0.38169  0.82679  0.86048  1.0000
  C   C1010     1.0  0.40066  0.84573  0.86313  1.0000
  C   C1011     1.0  0.40971  0.85253  0.88662  1.0000
  C   C1012     1.0  0.43246  0.82256  0.92296  1.0000
  C   C1013     1.0  0.44014  0.94018  0.58458  1.0000
  H   H801      1.0  0.47436  0.91847  0.92464  1.0000
  C   C1014     1.0  0.25834  0.78947  0.56432  1.0000
  C   C1015     1.0  0.35879  0.99061  0.54805  1.0000
  H   H802      1.0  0.34574  0.97705  0.53918  1.0000
  C   C1016     1.0  0.34444  0.75919  0.72546  1.0000
  C   C1017     1.0  0.40117  0.93327  0.49382  1.0000
  C   C1018     1.0  0.49176  0.94040  0.56317  1.0000
  C   C1019     1.0  0.43623  0.78424  0.76968  1.0000
  H   H803      1.0  0.49355  0.94712  0.65734  1.0000
  C   C1020     1.0  0.46111  0.91673  0.49233  1.0000
  P   P36       1.0  0.40186  0.94970  0.52013  1.0000
  C   C1021     1.0  0.38810  0.91108  0.49457  1.0000
  C   C1022     1.0  0.22707  0.77579  0.52712  1.0000
  H   H804      1.0  0.36865  0.84311  0.94152  1.0000
  H   H805      1.0  0.37364  0.81079  0.92040  1.0000
  H   H806      1.0  0.35734  0.79961  0.87930  1.0000
  H   H807      1.0  0.37499  0.82136  0.84217  1.0000
  H   H808      1.0  0.40859  0.85478  0.84678  1.0000
  H   H809      1.0  0.48479  0.87707  0.52829  1.0000
  H   H810      1.0  0.33330  0.76610  0.72464  1.0000
  C   C1023     1.0  0.42103  0.77115  0.75239  1.0000
  C   C1024     1.0  0.42628  0.92267  0.57052  1.0000
  H   H811      1.0  0.43331  0.76562  0.70685  1.0000
  C   C1025     1.0  0.44864  0.92141  0.94370  1.0000
  H   H812      1.0  0.36259  0.78569  0.49731  1.0000
  C   C1026     1.0  0.40137  0.98888  0.50963  1.0000
  H   H813      1.0  0.47171  0.83317  0.50772  1.0000
  H   H814      1.0  0.48066  0.82472  0.54866  1.0000
  C   C1027     1.0  0.42900  0.83177  0.53988  1.0000
  C   C1028     1.0  0.36944  0.98751  0.56845  1.0000
  H   H815      1.0  0.48506  0.95431  0.59580  1.0000
  C   C1029     1.0  0.37451  0.94052  0.53051  1.0000
  C   C1030     1.0  0.49420  0.96282  0.65556  1.0000
  C   C1031     1.0  0.45198  0.90449  0.51339  1.0000
  C   C1032     1.0  0.46078  0.83113  0.52274  1.0000
  H   H816      1.0  0.38414  0.98091  0.51181  1.0000
  C   C1033     1.0  0.33148  0.92451  0.54532  1.0000
  H   H817      1.0  0.43271  0.97938  0.55635  1.0000
  C   C1034     1.0  0.39108  0.97373  0.61446  1.0000
  C   C1035     1.0  0.36950  0.96099  0.62082  1.0000
  C   C1036     1.0  0.36244  0.93955  0.62743  1.0000
  C   C1037     1.0  0.37693  0.93077  0.62818  1.0000
  C   C1038     1.0  0.39855  0.94353  0.62273  1.0000
  C   C1039     1.0  0.40563  0.96494  0.61603  1.0000
  C   C1040     1.0  0.37259  0.80192  0.49128  1.0000
  H   H818      1.0  0.45716  0.82116  0.58468  1.0000
  C   C1041     1.0  0.46282  0.82196  0.94418  1.0000
  H   H819      1.0  0.42084  0.81657  0.90804  1.0000
  C   C1042     1.0  0.44739  0.88769  0.93051  1.0000
  C   C1043     1.0  0.39682  0.83030  0.98446  1.0000
  H   H820      1.0  0.42394  0.90677  0.57536  1.0000
  H   H821      1.0  0.41481  0.83426  0.53803  1.0000
  H   H822      1.0  0.21484  0.77079  0.51282  1.0000
  H   H823      1.0  0.42265  0.78739  0.96828  1.0000
  H   H824      1.0  0.44878  0.76865  0.66544  1.0000
  C   C1044     1.0  0.25750  0.80425  0.54753  1.0000
  H   H825      1.0  0.36444  0.97138  0.57484  1.0000
  H   H826      1.0  0.35813  0.96765  0.62065  1.0000
  H   H827      1.0  0.34573  0.92971  0.63206  1.0000
  H   H828      1.0  0.37152  0.91415  0.63332  1.0000
  H   H829      1.0  0.40988  0.93684  0.62411  1.0000
  H   H830      1.0  0.42252  0.97460  0.61262  1.0000
  H   H831      1.0  0.36261  0.94290  0.49422  1.0000
  H   H832      1.0  0.47396  0.84199  0.97664  1.0000
  C   C1045     1.0  0.44725  0.84452  0.95951  1.0000
  C   C1046     1.0  0.44483  0.77526  0.78683  1.0000
  C   C1047     1.0  0.41694  0.88816  0.95168  1.0000
  C   C1048     1.0  0.46593  0.82616  0.54612  1.0000
  C   C1049     1.0  0.49336  0.88215  0.56694  1.0000
  C   C1050     1.0  0.41743  0.94605  0.54486  1.0000
  H   H833      1.0  0.27041  0.79489  0.57881  1.0000
  H   H834      1.0  0.44825  0.93775  0.60038  1.0000
  C   C1051     1.0  0.43124  0.96356  0.55945  1.0000
  S   S145      1.0  0.28564  0.87264  0.49407  1.0000
  H   H835      1.0  0.24430  0.75679  0.57599  1.0000
  H   H836      1.0  0.47704  0.92563  0.56423  1.0000
  H   H837      1.0  0.44794  0.80337  0.91149  1.0000
  C   C1052     1.0  0.39237  0.83734  0.96185  1.0000
  H   H838      1.0  0.38036  0.93474  0.56865  1.0000
  C   C1053     1.0  0.44294  0.96068  0.57885  1.0000
  C   C1054     1.0  0.42659  0.87658  0.94023  1.0000
  H   H839      1.0  0.42461  0.86702  0.88814  1.0000
  C   C1055     1.0  0.34717  0.92601  0.56239  1.0000
  C   C1056     1.0  0.33721  0.93097  0.52090  1.0000
  C   C1057     1.0  0.35858  0.93871  0.51344  1.0000
  H   H840      1.0  0.45352  0.97417  0.59014  1.0000
  H   H841      1.0  0.32494  0.92928  0.50751  1.0000
  H   H842      1.0  0.26903  0.82102  0.54881  1.0000
  H   H843      1.0  0.40402  0.91152  0.54054  1.0000
  H   H844      1.0  0.47869  0.88274  0.57234  1.0000
  H   H845      1.0  0.35083  0.76216  0.68631  1.0000
  H   H846      1.0  0.40204  0.80115  0.50142  1.0000
  H   H847      1.0  0.46170  0.98679  0.64686  1.0000
  H   H848      1.0  0.44092  0.80128  0.77016  1.0000
  H   H849      1.0  0.45616  0.78529  0.80069  1.0000
  H   H850      1.0  0.34249  0.92003  0.58098  1.0000
  H   H851      1.0  0.45003  0.91199  0.53014  1.0000
  C   C1058     1.0  0.44786  0.81496  0.92486  1.0000
  H   H852      1.0  0.40096  0.88009  0.95932  1.0000
  C   C1059     1.0  0.43826  0.75320  0.78664  1.0000
  C   C1060     1.0  0.22833  0.76070  0.54325  1.0000
  C   C1061     1.0  0.49683  0.87888  0.54196  1.0000
  C   C1062     1.0  0.44505  0.88238  0.51287  1.0000
  C   C1063     1.0  0.45834  0.91001  0.93224  1.0000
  H   H853      1.0  0.47454  0.81582  0.94579  1.0000
  C   C1064     1.0  0.43609  0.98878  0.50820  1.0000
  C   C1065     1.0  0.49615  0.95653  0.58080  1.0000
  C   C1066     1.0  0.43427  0.75445  0.67021  1.0000
  H   H854      1.0  0.46649  0.93386  0.49280  1.0000
  H   H855      1.0  0.45511  0.87911  0.92145  1.0000
  C   C1067     1.0  0.39493  0.81076  0.49365  1.0000
  H   H856      1.0  0.34139  0.82964  0.97454  1.0000
  H   H857      1.0  0.34201  0.75500  0.76511  1.0000
  C   C1068     1.0  0.42539  0.75264  0.69381  1.0000
  C   C1069     1.0  0.44709  0.87226  0.49120  1.0000
  H   H858      1.0  0.49356  0.99311  0.50468  1.0000
  H   H859      1.0  0.31008  0.75335  0.90390  1.0000
  C   C1070     1.0  0.34939  0.75306  0.74822  1.0000
  H   H860      1.0  0.45551  0.00096  0.69753  1.0000
  Fe  Fe72      1.0  0.40388  0.75200  0.84790  1.0000
  C   C1071     1.0  0.40794  0.83196  0.48636  1.0000
  Fe  Fe73      1.0  0.66942  0.11318  0.44939  1.0000
  S   S146      1.0  0.69418  0.10380  0.43453  1.0000
  S   S147      1.0  0.64989  0.12585  0.42711  1.0000
  H   H861      1.0  0.57680  0.03789  0.21113  1.0000
  C   C1072     1.0  0.59564  0.07145  0.45458  1.0000
  C   C1073     1.0  0.56755  0.04683  0.21021  1.0000
  S   S148      1.0  0.83041  0.24376  0.46957  1.0000
  H   H862      1.0  0.87183  0.24246  0.43359  1.0000
  H   H863      1.0  0.53788  0.01935  0.21941  1.0000
  Fe  Fe74      1.0  0.57566  0.09067  0.30943  1.0000
  S   S149      1.0  0.58021  0.12421  0.30473  1.0000
  S   S150      1.0  0.59704  0.07960  0.33047  1.0000
  Fe  Fe75      1.0  0.53318  0.07180  0.28094  1.0000
  S   S151      1.0  0.53438  0.10425  0.27426  1.0000
  C   C1074     1.0  0.54949  0.20838  0.11287  1.0000
  Fe  Fe76      1.0  0.56923  0.11489  0.26519  1.0000
  S   S152      1.0  0.58964  0.13975  0.23648  1.0000
  Fe  Fe77      1.0  0.54515  0.11088  0.31399  1.0000
  S   S153      1.0  0.53525  0.12918  0.34178  1.0000
  S   S154      1.0  0.56735  0.08190  0.26929  1.0000
  S   S155      1.0  0.54131  0.07783  0.32115  1.0000
  Fe  Fe78      1.0  0.60222  0.18409  0.09927  1.0000
  S   S156      1.0  0.63350  0.18861  0.08248  1.0000
  S   S157      1.0  0.57896  0.15541  0.12184  1.0000
  Fe  Fe79      1.0  0.60698  0.22653  0.07831  1.0000
  S   S158      1.0  0.63908  0.23511  0.06093  1.0000
  S   S159      1.0  0.67592  0.23567  0.12037  1.0000
  Fe  Fe80      1.0  0.62370  0.20074  0.04831  1.0000
  S   S160      1.0  0.63072  0.19310  0.00930  1.0000
  Fe  Fe81      1.0  0.64631  0.22256  0.09613  1.0000
  H   H864      1.0  0.61130  0.23656  0.16143  1.0000
  S   S161      1.0  0.59113  0.19290  0.06365  1.0000
  S   S162      1.0  0.61554  0.21733  0.11477  1.0000
  S   S163      1.0  0.69100  0.13424  0.47977  1.0000
  H   H865      1.0  0.56356  0.17539  0.19856  1.0000
  C   C1075     1.0  0.55695  0.05396  0.45913  1.0000
  H   H866      1.0  0.64665  0.12097  0.19149  1.0000
  H   H867      1.0  0.58733  0.03544  0.33195  1.0000
  H   H868      1.0  0.55699  0.04148  0.31657  1.0000
  H   H869      1.0  0.93445  0.24649  0.44627  1.0000
  C   C1076     1.0  0.61414  0.22802  0.17656  1.0000
  H   H870      1.0  0.59253  0.20306  0.23101  1.0000
  Fe  Fe82      1.0  0.67883  0.07534  0.46059  1.0000
  C   C1077     1.0  0.57931  0.24734  0.20368  1.0000
  H   H871      1.0  0.51330  0.18856  0.25298  1.0000
  C   C1078     1.0  0.65126  0.01327  0.45806  1.0000
  C   C1079     1.0  0.78710  0.21255  0.47189  1.0000
  C   C1080     1.0  0.58179  0.15176  0.15395  1.0000
  C   C1081     1.0  0.60141  0.16289  0.16620  1.0000
  C   C1082     1.0  0.60352  0.15842  0.19119  1.0000
  C   C1083     1.0  0.58592  0.14355  0.20462  1.0000
  C   C1084     1.0  0.56616  0.13264  0.19250  1.0000
  C   C1085     1.0  0.56421  0.13656  0.16721  1.0000
  H   H872      1.0  0.61514  0.17442  0.15619  1.0000
  H   H873      1.0  0.61901  0.16641  0.20014  1.0000
  H   H874      1.0  0.55245  0.12115  0.20255  1.0000
  H   H875      1.0  0.54898  0.12781  0.15786  1.0000
  C   C1086     1.0  0.53337  0.04767  0.21520  1.0000
  C   C1087     1.0  0.80854  0.21672  0.46681  1.0000
  H   H876      1.0  0.50872  0.02434  0.47702  1.0000
  H   H877      1.0  0.59442  0.20299  0.00225  1.0000
  C   C1088     1.0  0.68764  0.24938  0.19060  1.0000
  C   C1089     1.0  0.62199  0.20619  0.21549  1.0000
  H   H878      1.0  0.54706  0.12275  0.39189  1.0000
  H   H879      1.0  0.63221  0.13816  0.26713  1.0000
  C   C1090     1.0  0.56003  0.19725  0.12281  1.0000
  C   C1091     1.0  0.63658  0.11347  0.39934  1.0000
  C   C1092     1.0  0.62743  0.12379  0.38458  1.0000
  C   C1093     1.0  0.61542  0.11373  0.36326  1.0000
  C   C1094     1.0  0.61263  0.09330  0.35648  1.0000
  C   C1095     1.0  0.62218  0.08320  0.37093  1.0000
  C   C1096     1.0  0.63405  0.09320  0.39233  1.0000
  H   H880      1.0  0.62933  0.13950  0.38985  1.0000
  H   H881      1.0  0.60812  0.12165  0.35231  1.0000
  H   H882      1.0  0.62023  0.06747  0.36570  1.0000
  H   H883      1.0  0.64113  0.08517  0.40349  1.0000
  H   H884      1.0  0.54479  0.20626  0.09353  1.0000
  H   H885      1.0  0.51693  0.04359  0.35631  1.0000
  H   H886      1.0  0.56717  0.00680  0.40093  1.0000
  C   C1097     1.0  0.57097  0.02400  0.33618  1.0000
  H   H887      1.0  0.64962  0.20968  0.19455  1.0000
  H   H888      1.0  0.54206  0.18945  0.42852  1.0000
  C   C1098     1.0  0.55193  0.22559  0.15255  1.0000
  C   C1099     1.0  0.76223  0.09247  0.47959  1.0000
  H   H889      1.0  0.59148  0.05014  0.16268  1.0000
  C   C1100     1.0  0.54905  0.09404  0.38199  1.0000
  H   H890      1.0  0.82829  0.20152  0.45662  1.0000
  H   H891      1.0  0.57561  0.19215  0.15454  1.0000
  H   H892      1.0  0.63110  0.14884  0.12858  1.0000
  C   C1101     1.0  0.56704  0.00580  0.35006  1.0000
  C   C1102     1.0  0.63353  0.03854  0.17081  1.0000
  H   H893      1.0  0.64524  0.07846  0.21298  1.0000
  H   H894      1.0  0.61168  0.06239  0.24571  1.0000
  C   C1103     1.0  0.50108  0.03421  0.36393  1.0000
  C   C1104     1.0  0.58767  0.14695  0.47823  1.0000
  H   H895      1.0  0.79843  0.16474  0.45514  1.0000
  H   H896      1.0  0.62475  0.19731  0.23034  1.0000
  C   C1105     1.0  0.56371  0.21544  0.16225  1.0000
  H   H897      1.0  0.50796  0.15937  0.44233  1.0000
  C   C1106     1.0  0.59935  0.10343  0.15992  1.0000
  H   H898      1.0  0.55577  0.06739  0.37396  1.0000
  C   C1107     1.0  0.55387  0.02742  0.32753  1.0000
  C   C1108     1.0  0.50554  0.12601  0.37710  1.0000
  C   C1109     1.0  0.56717  0.20075  0.14739  1.0000
  C   C1110     1.0  0.63257  0.22483  0.17642  1.0000
  C   C1111     1.0  0.52415  0.16573  0.24068  1.0000
  H   H899      1.0  0.53404  0.07864  0.21168  1.0000
  H   H900      1.0  0.56302  0.18615  0.11130  1.0000
  P   P37       1.0  0.57377  0.22061  0.19367  1.0000
  H   H901      1.0  0.63359  0.11334  0.29913  1.0000
  C   C1112     1.0  0.55280  0.17860  0.21048  1.0000
  C   C1113     1.0  0.50407  0.06762  0.41902  1.0000
  S   S164      1.0  0.58942  0.24635  0.07204  1.0000
  Fe  Fe83      1.0  0.71545  0.12374  0.46632  1.0000
  C   C1114     1.0  0.55990  0.08159  0.38517  1.0000
  C   C1115     1.0  0.53908  0.20247  0.22653  1.0000
  H   H902      1.0  0.62339  0.07563  0.28827  1.0000
  H   H903      1.0  0.58584  0.07894  0.40384  1.0000
  H   H904      1.0  0.54821  0.23626  0.16387  1.0000
  S   S165      1.0  0.75267  0.14615  0.46396  1.0000
  H   H905      1.0  0.57498  0.04064  0.43907  1.0000
  H   H906      1.0  0.60604  0.02618  0.14650  1.0000
  C   C1116     1.0  0.51131  0.11526  0.35871  1.0000
  C   C1117     1.0  0.57576  0.05400  0.44998  1.0000
  C   C1118     1.0  0.51971  0.07094  0.43709  1.0000
  C   C1119     1.0  0.59670  0.08891  0.46820  1.0000
  C   C1120     1.0  0.63039  0.20031  0.39849  1.0000
  C   C1121     1.0  0.62861  0.19642  0.37298  1.0000
  C   C1122     1.0  0.61237  0.17735  0.36366  1.0000
  C   C1123     1.0  0.59804  0.16205  0.37982  1.0000
  C   C1124     1.0  0.60002  0.16560  0.40555  1.0000
  C   C1125     1.0  0.61608  0.18504  0.41472  1.0000
  P   P38       1.0  0.58184  0.14579  0.42669  1.0000
  C   C1126     1.0  0.57253  0.11989  0.41199  1.0000
  C   C1127     1.0  0.59643  0.14688  0.45482  1.0000
  C   C1128     1.0  0.54525  0.22240  0.12780  1.0000
  C   C1129     1.0  0.52441  0.18585  0.24115  1.0000
  H   H907      1.0  0.64381  0.23068  0.16114  1.0000
  H   H908      1.0  0.64452  0.14977  0.47337  1.0000
  C   C1130     1.0  0.61717  0.14835  0.45333  1.0000
  C   C1131     1.0  0.55525  0.11301  0.39534  1.0000
  C   C1132     1.0  0.54551  0.03627  0.21507  1.0000
  C   C1133     1.0  0.53278  0.01242  0.33239  1.0000
  C   C1134     1.0  0.54143  0.17393  0.43211  1.0000
  C   C1135     1.0  0.58320  0.10719  0.41536  1.0000
  C   C1136     1.0  0.55885  0.15059  0.43279  1.0000
  C   C1137     1.0  0.53954  0.13376  0.44093  1.0000
  C   C1138     1.0  0.52127  0.13693  0.44431  1.0000
  C   C1139     1.0  0.52221  0.15701  0.43991  1.0000
  H   H909      1.0  0.57430  0.18397  0.42206  1.0000
  C   C1140     1.0  0.55970  0.17076  0.42851  1.0000
  H   H910      1.0  0.64297  0.21510  0.40573  1.0000
  H   H911      1.0  0.63981  0.20817  0.36042  1.0000
  H   H912      1.0  0.61087  0.17430  0.34388  1.0000
  H   H913      1.0  0.58559  0.14748  0.37202  1.0000
  H   H914      1.0  0.61770  0.18832  0.43443  1.0000
  H   H915      1.0  0.59417  0.11943  0.12836  1.0000
  H   H916      1.0  0.51594  0.14272  0.38094  1.0000
  H   H917      1.0  0.62447  0.14876  0.43549  1.0000
  C   C1141     1.0  0.77361  0.17373  0.46493  1.0000
  H   H918      1.0  0.53600  0.02675  0.27030  1.0000
  C   C1142     1.0  0.60562  0.11954  0.14206  1.0000
  H   H919      1.0  0.58315  0.09065  0.15928  1.0000
  H   H920      1.0  0.59713  0.11239  0.42718  1.0000
  H   H921      1.0  0.53851  0.11806  0.44417  1.0000
  H   H922      1.0  0.53603  0.08938  0.36884  1.0000
  H   H923      1.0  0.74522  0.03886  0.48493  1.0000
  C   C1143     1.0  0.68280  0.24711  0.21584  1.0000
  C   C1144     1.0  0.52057  0.01310  0.27308  1.0000
  H   H924      1.0  0.62108  0.12546  0.22456  1.0000
  C   C1145     1.0  0.81217  0.19905  0.46065  1.0000
  C   C1146     1.0  0.57789  0.08905  0.47708  1.0000
  C   C1147     1.0  0.63610  0.21333  0.19548  1.0000
  C   C1148     1.0  0.59899  0.21932  0.19555  1.0000
  H   H925      1.0  0.65945  0.05433  0.19677  1.0000
  H   H926      1.0  0.53891  0.21781  0.22693  1.0000
  C   C1149     1.0  0.51358  0.06497  0.46168  1.0000
  H   H927      1.0  0.57301  0.09745  0.20361  1.0000
  H   H928      1.0  0.51294  0.02665  0.39737  1.0000
  C   C1150     1.0  0.91817  0.24184  0.45247  1.0000
  C   C1151     1.0  0.76018  0.07200  0.47458  1.0000
  H   H929      1.0  0.61023  0.07175  0.44711  1.0000
  H   H930      1.0  0.53807  0.14648  0.22475  1.0000
  C   C1152     1.0  0.60352  0.20926  0.21563  1.0000
  C   C1153     1.0  0.57680  0.08806  0.40210  1.0000
  C   C1154     1.0  0.88300  0.23971  0.44530  1.0000
  C   C1155     1.0  0.54329  0.06967  0.21067  1.0000
  H   H931      1.0  0.53649  0.07866  0.43207  1.0000
  H   H932      1.0  0.65739  0.14952  0.16005  1.0000
  H   H933      1.0  0.57186  0.14617  0.48001  1.0000
  C   C1156     1.0  0.53823  0.16207  0.22519  1.0000
  C   C1157     1.0  0.57752  0.06884  0.20496  1.0000
  C   C1158     1.0  0.56532  0.08026  0.20589  1.0000
  P   P39       1.0  0.60625  0.08307  0.20115  1.0000
  C   C1159     1.0  0.61654  0.09320  0.23159  1.0000
  C   C1160     1.0  0.61684  0.06547  0.18968  1.0000
  C   C1161     1.0  0.63630  0.06685  0.19882  1.0000
  C   C1162     1.0  0.64450  0.05330  0.18953  1.0000
  C   C1163     1.0  0.55784  0.07140  0.47303  1.0000
  C   C1164     1.0  0.61442  0.03744  0.16122  1.0000
  C   C1165     1.0  0.60616  0.05095  0.17049  1.0000
  C   C1166     1.0  0.62223  0.11456  0.23797  1.0000
  C   C1167     1.0  0.62854  0.12184  0.26218  1.0000
  C   C1168     1.0  0.62924  0.10787  0.28019  1.0000
  C   C1169     1.0  0.62349  0.08655  0.27402  1.0000
  C   C1170     1.0  0.61693  0.07916  0.24990  1.0000
  C   C1171     1.0  0.61389  0.10403  0.17831  1.0000
  C   C1172     1.0  0.63501  0.12050  0.17789  1.0000
  C   C1173     1.0  0.64121  0.13660  0.16002  1.0000
  C   C1174     1.0  0.62648  0.13617  0.14218  1.0000
  C   C1175     1.0  0.76987  0.19139  0.47093  1.0000
  C   C1176     1.0  0.55383  0.19915  0.21166  1.0000
  S   S166      1.0  0.65315  0.08411  0.47338  1.0000
  S   S167      1.0  0.50298  0.04161  0.27146  1.0000
  H   H934      1.0  0.59171  0.01432  0.43661  1.0000
  H   H935      1.0  0.51640  0.03958  0.21959  1.0000
  H   H936      1.0  0.63993  0.02808  0.16360  1.0000
  H   H937      1.0  0.75367  0.18875  0.47497  1.0000
  S   S168      1.0  0.66772  0.04016  0.44751  1.0000
  C   C1177     1.0  0.79502  0.17796  0.45983  1.0000
  H   H938      1.0  0.54173  0.04038  0.45519  1.0000
  H   H939      1.0  0.50858  0.07276  0.40015  1.0000
  H   H940      1.0  0.71739  0.24880  0.14069  1.0000
  H   H941      1.0  0.68969  0.23696  0.18050  1.0000
  H   H942      1.0  0.51951  0.01474  0.32500  1.0000
  C   C1178     1.0  0.87665  0.23123  0.46897  1.0000
  H   H943      1.0  0.51303  0.15294  0.25228  1.0000
  C   C1179     1.0  0.50204  0.01606  0.27480  1.0000
  H   H944      1.0  0.51246  0.09912  0.48066  1.0000
  H   H945      1.0  0.68115  0.23291  0.22554  1.0000
  H   H946      1.0  0.76892  0.06960  0.45927  1.0000
  H   H947      1.0  0.58051  0.00325  0.35627  1.0000
  H   H948      1.0  0.52361  0.24182  0.22943  1.0000
  H   H949      1.0  0.77227  0.10592  0.46804  1.0000
  H   H950      1.0  0.61215  0.10260  0.47130  1.0000
  C   C1180     1.0  0.90385  0.24528  0.43717  1.0000
  H   H951      1.0  0.57559  0.23981  0.24278  1.0000
  C   C1181     1.0  0.62868  0.14910  0.47482  1.0000
  H   H952      1.0  0.50623  0.12375  0.44998  1.0000
  H   H953      1.0  0.53706  0.23099  0.12000  1.0000
  H   H954      1.0  0.78376  0.22578  0.47676  1.0000
  H   H955      1.0  0.70575  0.02768  0.47322  1.0000
  C   C1182     1.0  0.91175  0.23311  0.47607  1.0000
  C   C1183     1.0  0.64652  0.00827  0.48310  1.0000
  H   H956      1.0  0.60324  0.25043  0.00765  1.0000
  H   H957      1.0  0.50227  0.08513  0.34013  1.0000
  H   H958      1.0  0.86066  0.22763  0.47504  1.0000
  C   C1184     1.0  0.89108  0.22827  0.48477  1.0000
  C   C1185     1.0  0.69939  0.01238  0.48255  1.0000
  C   C1186     1.0  0.89120  0.18435  0.50419  1.0000
  H   H959      1.0  0.67235  0.14954  0.95059  1.0000
  S   S169      1.0  0.66811  0.10116  0.54287  1.0000
  Fe  Fe84      1.0  0.59793  0.18992  0.82287  1.0000
  S   S170      1.0  0.61356  0.18821  0.85878  1.0000
  S   S171      1.0  0.57545  0.15877  0.80299  1.0000
  Fe  Fe85      1.0  0.61628  0.23838  0.82730  1.0000
  S   S172      1.0  0.63332  0.24035  0.86323  1.0000
  C   C1187     1.0  0.72581  0.24074  0.92799  1.0000
  Fe  Fe86      1.0  0.64265  0.21693  0.84526  1.0000
  C   C1188     1.0  0.53380  0.20803  0.91204  1.0000
  Fe  Fe87      1.0  0.60314  0.21182  0.87423  1.0000
  S   S173      1.0  0.58927  0.21132  0.91249  1.0000
  S   S174      1.0  0.62803  0.21693  0.80818  1.0000
  S   S175      1.0  0.58505  0.21160  0.83947  1.0000
  Fe  Fe88      1.0  0.56453  0.09040  0.61144  1.0000
  S   S176      1.0  0.55426  0.11366  0.62860  1.0000
  S   S177      1.0  0.57768  0.09542  0.57247  1.0000
  Fe  Fe89      1.0  0.54342  0.05736  0.65174  1.0000
  S   S178      1.0  0.53125  0.07782  0.67222  1.0000
  S   S179      1.0  0.53938  0.02449  0.66262  1.0000
  Fe  Fe90      1.0  0.52263  0.08508  0.63430  1.0000
  C   C1189     1.0  0.52597  0.12290  0.50878  1.0000
  Fe  Fe91      1.0  0.56390  0.10500  0.66523  1.0000
  S   S180      1.0  0.58461  0.13253  0.69134  1.0000
  S   S181      1.0  0.53202  0.06235  0.61476  1.0000
  S   S182      1.0  0.57692  0.08393  0.64719  1.0000
  C   C1190     1.0  0.57832  0.15156  0.77200  1.0000
  C   C1191     1.0  0.59526  0.16500  0.75688  1.0000
  C   C1192     1.0  0.59692  0.15878  0.73239  1.0000
  C   C1193     1.0  0.58169  0.13910  0.72260  1.0000
  C   C1194     1.0  0.56485  0.12552  0.73781  1.0000
  C   C1195     1.0  0.56318  0.13175  0.76234  1.0000
  H   H960      1.0  0.60708  0.18022  0.76402  1.0000
  H   H961      1.0  0.61006  0.16937  0.72087  1.0000
  H   H962      1.0  0.55302  0.11034  0.73058  1.0000
  H   H963      1.0  0.55002  0.12122  0.77385  1.0000
  C   C1196     1.0  0.60088  0.20617  0.93924  1.0000
  C   C1197     1.0  0.61852  0.20173  0.93764  1.0000
  C   C1198     1.0  0.59218  0.20648  0.96264  1.0000
  H   H964      1.0  0.62525  0.20134  0.91973  1.0000
  H   H965      1.0  0.57844  0.20975  0.96403  1.0000
  C   C1199     1.0  0.70194  0.01109  0.50820  1.0000
  H   H966      1.0  0.54073  0.14370  0.53992  1.0000
  C   C1200     1.0  0.64888  0.17560  0.90405  1.0000
  C   C1201     1.0  0.66551  0.18841  0.91995  1.0000
  H   H967      1.0  0.56199  0.09589  0.52583  1.0000
  C   C1202     1.0  0.67389  0.17904  0.93682  1.0000
  C   C1203     1.0  0.53061  0.13970  0.71335  1.0000
  C   C1204     1.0  0.64958  0.14392  0.92103  1.0000
  H   H968      1.0  0.79239  0.18470  0.52317  1.0000
  Fe  Fe92      1.0  0.67689  0.10404  0.50223  1.0000
  C   C1205     1.0  0.60074  0.06577  0.89727  1.0000
  H   H969      1.0  0.54267  0.02967  0.59778  1.0000
  C   C1206     1.0  0.64279  0.09914  0.55093  1.0000
  C   C1207     1.0  0.63619  0.09585  0.57578  1.0000
  C   C1208     1.0  0.61621  0.09461  0.58273  1.0000
  C   C1209     1.0  0.60279  0.09670  0.56482  1.0000
  C   C1210     1.0  0.60928  0.09968  0.53994  1.0000
  C   C1211     1.0  0.62919  0.10086  0.53299  1.0000
  H   H970      1.0  0.64668  0.09454  0.58972  1.0000
  H   H971      1.0  0.61128  0.09224  0.60193  1.0000
  H   H972      1.0  0.59905  0.10141  0.52604  1.0000
  H   H973      1.0  0.63422  0.10353  0.51384  1.0000
  C   C1212     1.0  0.64432  0.16466  0.81881  1.0000
  H   H974      1.0  0.50465  0.08049  0.53698  1.0000
  H   H975      1.0  0.51403  0.08349  0.58130  1.0000
  C   C1213     1.0  0.76175  0.02797  0.58427  1.0000
  H   H976      1.0  0.64408  0.06859  0.66372  1.0000
  H   H977      1.0  0.64073  0.19384  0.95792  1.0000
  H   H978      1.0  0.76350  0.05702  0.60025  1.0000
  H   H979      1.0  0.67157  0.20561  0.91938  1.0000
  C   C1214     1.0  0.62250  0.03849  0.64697  1.0000
  H   H980      1.0  0.62037  0.06448  0.69961  1.0000
  C   C1215     1.0  0.61564  0.05197  0.68568  1.0000
  H   H981      1.0  0.57561  0.06485  0.92121  1.0000
  H   H982      1.0  0.59691  0.04911  0.90014  1.0000
  H   H983      1.0  0.65193  0.02097  0.49659  1.0000
  H   H984      1.0  0.59095  0.24975  0.96457  1.0000
  C   C1216     1.0  0.59607  0.14244  0.89587  1.0000
  H   H985      1.0  0.63253  0.04101  0.63081  1.0000
  H   H986      1.0  0.55160  0.15746  0.91890  1.0000
  H   H987      1.0  0.65391  0.17019  0.85665  1.0000
  C   C1217     1.0  0.64088  0.15326  0.90420  1.0000
  H   H988      1.0  0.58497  0.03255  0.70253  1.0000
  C   C1218     1.0  0.52411  0.12572  0.69310  1.0000
  H   H989      1.0  0.91118  0.17983  0.56998  1.0000
  C   C1219     1.0  0.51630  0.03229  0.54798  1.0000
  H   H990      1.0  0.59342  0.11523  0.84110  1.0000
  H   H991      1.0  0.55147  0.25107  0.80006  1.0000
  H   H992      1.0  0.56382  0.12630  0.55063  1.0000
  C   C1220     1.0  0.59434  0.03308  0.50591  1.0000
  H   H993      1.0  0.55237  0.14748  0.87485  1.0000
  H   H994      1.0  0.70844  0.20894  0.87659  1.0000
  C   C1221     1.0  0.52498  0.05014  0.53246  1.0000
  H   H995      1.0  0.63406  0.00430  0.64048  1.0000
  C   C1222     1.0  0.62286  0.14239  0.85259  1.0000
  C   C1223     1.0  0.81921  0.17734  0.51984  1.0000
  H   H996      1.0  0.67185  0.03971  0.59565  1.0000
  C   C1224     1.0  0.61067  0.10893  0.88985  1.0000
  H   H997      1.0  0.71141  0.24290  0.89326  1.0000
  H   H998      1.0  0.77255  0.02651  0.59775  1.0000
  C   C1225     1.0  0.73294  0.22821  0.94192  1.0000
  H   H999      1.0  0.55042  0.23751  0.96484  1.0000
  C   C1226     1.0  0.80974  0.19108  0.52285  1.0000
  C   C1227     1.0  0.59368  0.09615  0.90548  1.0000
  C   C1228     1.0  0.58000  0.14168  0.87954  1.0000
  H   H1000     1.0  0.80912  0.16027  0.51812  1.0000
  H   H1001     1.0  0.63506  0.24066  0.96851  1.0000
  C   C1229     1.0  0.74278  0.04707  0.56824  1.0000
  H   H1002     1.0  0.54555  0.15432  0.71253  1.0000
  C   C1230     1.0  0.59504  0.14744  0.92095  1.0000
  H   H1003     1.0  0.56528  0.05098  0.56282  1.0000
  C   C1231     1.0  0.50528  0.10648  0.69441  1.0000
  H   H1004     1.0  0.61172  0.02848  0.57942  1.0000
  H   H1005     1.0  0.62873  0.14944  0.51470  1.0000
  C   C1232     1.0  0.69855  0.24203  0.84405  1.0000
  C   C1233     1.0  0.71692  0.23353  0.90442  1.0000
  H   H1006     1.0  0.65835  0.17872  0.81258  1.0000
  P   P40       1.0  0.61775  0.13685  0.88537  1.0000
  H   H1007     1.0  0.73985  0.23325  0.96011  1.0000
  C   C1234     1.0  0.58927  0.01811  0.66908  1.0000
  H   H1008     1.0  0.63596  0.10962  0.86604  1.0000
  C   C1235     1.0  0.64155  0.15986  0.84407  1.0000
  C   C1236     1.0  0.62722  0.19744  0.95926  1.0000
  C   C1237     1.0  0.85460  0.20788  0.51946  1.0000
  H   H1009     1.0  0.68634  0.18902  0.94967  1.0000
  H   H1010     1.0  0.50987  0.07268  0.72537  1.0000
  C   C1238     1.0  0.62875  0.15181  0.80176  1.0000
  C   C1239     1.0  0.52440  0.10518  0.49517  1.0000
  C   C1240     1.0  0.61062  0.13385  0.80990  1.0000
  H   H1011     1.0  0.62705  0.07159  0.87256  1.0000
  S   S183      1.0  0.67529  0.21801  0.85010  1.0000
  C   C1241     1.0  0.59577  0.03393  0.68744  1.0000
  C   C1242     1.0  0.50348  0.04044  0.71654  1.0000
  C   C1243     1.0  0.62268  0.09994  0.87803  1.0000
  H   H1012     1.0  0.55432  0.00791  0.62335  1.0000
  H   H1013     1.0  0.63058  0.15589  0.78226  1.0000
  C   C1244     1.0  0.56351  0.15256  0.91265  1.0000
  C   C1245     1.0  0.88606  0.24175  0.55982  1.0000
  H   H1014     1.0  0.72873  0.08111  0.52886  1.0000
  C   C1246     1.0  0.61979  0.14890  0.49803  1.0000
  H   H1015     1.0  0.73698  0.19940  0.94307  1.0000
  H   H1016     1.0  0.71396  0.22539  0.82541  1.0000
  C   C1247     1.0  0.62900  0.05425  0.66546  1.0000
  H   H1017     1.0  0.51984  0.04322  0.72016  1.0000
  C   C1248     1.0  0.84157  0.18566  0.51821  1.0000
  H   H1018     1.0  0.52341  0.14539  0.75057  1.0000
  H   H1019     1.0  0.59840  0.12411  0.79665  1.0000
  H   H1020     1.0  0.73925  0.06067  0.56930  1.0000
  C   C1249     1.0  0.55936  0.25030  0.92779  1.0000
  C   C1250     1.0  0.50237  0.00903  0.51241  1.0000
  H   H1021     1.0  0.85447  0.23879  0.52232  1.0000
  C   C1251     1.0  0.59611  0.02773  0.58288  1.0000
  H   H1022     1.0  0.75257  0.11154  0.50304  1.0000
  H   H1023     1.0  0.52888  0.20035  0.95083  1.0000
  C   C1252     1.0  0.55308  0.12069  0.53481  1.0000
  C   C1253     1.0  0.60115  0.20257  0.98432  1.0000
  H   H1024     1.0  0.68256  0.23971  0.93832  1.0000
  C   C1254     1.0  0.55731  0.02878  0.59311  1.0000
  C   C1255     1.0  0.57007  0.04077  0.57354  1.0000
  C   C1256     1.0  0.58960  0.04044  0.56864  1.0000
  H   H1025     1.0  0.51540  0.13004  0.50450  1.0000
  C   C1257     1.0  0.71535  0.21428  0.89484  1.0000
  P   P41       1.0  0.88347  0.21906  0.51618  1.0000
  C   C1258     1.0  0.58301  0.01512  0.60211  1.0000
  H   H1026     1.0  0.53343  0.06569  0.54102  1.0000
  H   H1027     1.0  0.54145  0.22054  0.87501  1.0000
  C   C1259     1.0  0.89234  0.19900  0.52271  1.0000
  H   H1028     1.0  0.89658  0.15713  0.49491  1.0000
  H   H1029     1.0  0.90005  0.20801  0.56122  1.0000
  C   C1260     1.0  0.89936  0.19713  0.54654  1.0000
  S   S184      1.0  0.70221  0.09421  0.49080  1.0000
  C   C1261     1.0  0.75324  0.01290  0.56518  1.0000
  C   C1262     1.0  0.53717  0.09497  0.50129  1.0000
  C   C1263     1.0  0.51815  0.13456  0.73483  1.0000
  H   H1030     1.0  0.64219  0.18323  0.89177  1.0000
  C   C1264     1.0  0.75108  0.09564  0.49939  1.0000
  C   C1265     1.0  0.71565  0.24073  0.83192  1.0000
  H   H1031     1.0  0.57866  0.15709  0.94841  1.0000
  H   H1032     1.0  0.72134  0.18706  0.90124  1.0000
  H   H1033     1.0  0.50042  0.09589  0.67847  1.0000
  H   H1034     1.0  0.53390  0.12964  0.67652  1.0000
  H   H1035     1.0  0.61925  0.02296  0.50707  1.0000
  C   C1266     1.0  0.56399  0.14700  0.88787  1.0000
  C   C1267     1.0  0.75661  0.04511  0.58572  1.0000
  H   H1036     1.0  0.60011  0.05078  0.55447  1.0000
  C   C1268     1.0  0.60221  0.01804  0.50902  1.0000
  C   C1269     1.0  0.72260  0.20199  0.90873  1.0000
  C   C1270     1.0  0.53634  0.21294  0.93731  1.0000
  H   H1037     1.0  0.84849  0.17473  0.51551  1.0000
  C   C1271     1.0  0.90562  0.18111  0.55159  1.0000
  C   C1272     1.0  0.61872  0.19799  0.98269  1.0000
  C   C1273     1.0  0.56389  0.01626  0.60752  1.0000
  H   H1038     1.0  0.56640  0.03866  0.50653  1.0000
  C   C1274     1.0  0.54335  0.22430  0.89461  1.0000
  H   H1039     1.0  0.59289  0.14850  0.51777  1.0000
  C   C1275     1.0  0.57883  0.15245  0.92925  1.0000
  C   C1276     1.0  0.54885  0.23404  0.94519  1.0000
  C   C1277     1.0  0.55190  0.10331  0.52083  1.0000
  C   C1278     1.0  0.51110  0.02682  0.49679  1.0000
  H   H1040     1.0  0.58024  0.13813  0.86011  1.0000
  H   H1041     1.0  0.90954  0.15434  0.53694  1.0000
  H   H1042     1.0  0.56874  0.23404  0.77387  1.0000
  C   C1279     1.0  0.66862  0.05259  0.53573  1.0000
  C   C1280     1.0  0.66427  0.04988  0.56105  1.0000
  C   C1281     1.0  0.67535  0.04188  0.57605  1.0000
  C   C1282     1.0  0.69110  0.03700  0.56580  1.0000
  C   C1283     1.0  0.69624  0.04071  0.54054  1.0000
  C   C1284     1.0  0.68450  0.04797  0.52552  1.0000
  P   P42       1.0  0.71657  0.03496  0.52649  1.0000
  C   C1285     1.0  0.73454  0.05750  0.50823  1.0000
  C   C1286     1.0  0.73371  0.03168  0.54940  1.0000
  C   C1287     1.0  0.66600  0.15680  0.93729  1.0000
  H   H1043     1.0  0.64339  0.12673  0.92217  1.0000
  H   H1044     1.0  0.60704  0.14802  0.93409  1.0000
  C   C1288     1.0  0.54013  0.13051  0.52878  1.0000
  C   C1289     1.0  0.73942  0.01483  0.54765  1.0000
  C   C1290     1.0  0.89626  0.24136  0.53750  1.0000
  H   H1045     1.0  0.52456  0.19163  0.90595  1.0000
  H   H1046     1.0  0.81522  0.22390  0.52545  1.0000
  H   H1047     1.0  0.65252  0.24543  0.92177  1.0000
  C   C1291     1.0  0.73739  0.07827  0.51379  1.0000
  H   H1048     1.0  0.66006  0.05879  0.52405  1.0000
  C   C1292     1.0  0.52231  0.04764  0.50663  1.0000
  C   C1293     1.0  0.60272  0.02014  0.64885  1.0000
  C   C1294     1.0  0.60777  0.12902  0.83515  1.0000
  H   H1049     1.0  0.65252  0.05433  0.56897  1.0000
  C   C1295     1.0  0.61771  0.07843  0.88173  1.0000
  H   H1050     1.0  0.69925  0.03052  0.57762  1.0000
  H   H1051     1.0  0.68766  0.05010  0.50580  1.0000
  H   H1052     1.0  0.58424  0.10272  0.91494  1.0000
  C   C1296     1.0  0.58874  0.07463  0.90913  1.0000
  C   C1297     1.0  0.57240  0.02687  0.50849  1.0000
  C   C1298     1.0  0.59945  0.14815  0.49972  1.0000
  C   C1299     1.0  0.84489  0.22156  0.52234  1.0000
  C   C1300     1.0  0.73135  0.20893  0.93228  1.0000
  C   C1301     1.0  0.82259  0.21317  0.52422  1.0000
  H   H1053     1.0  0.87099  0.22845  0.56497  1.0000
  C   C1302     1.0  0.90469  0.16674  0.53299  1.0000
  C   C1303     1.0  0.55582  0.24538  0.90246  1.0000
  C   C1304     1.0  0.89743  0.16834  0.50932  1.0000
  H   H1054     1.0  0.57926  0.10308  0.48684  1.0000
  H   H1055     1.0  0.60532  0.04962  0.50180  1.0000
  H   H1056     1.0  0.51837  0.03449  0.56783  1.0000
  H   H1057     1.0  0.73355  0.00336  0.53260  1.0000
  C   C1305     1.0  0.55832  0.00559  0.51392  1.0000
  C   C1306     1.0  0.74659  0.05460  0.48903  1.0000
  C   C1307     1.0  0.56841  0.24868  0.76782  1.0000
  H   H1058     1.0  0.57332  0.00486  0.67018  1.0000
  C   C1308     1.0  0.50490  0.01179  0.53802  1.0000
  H   H1059     1.0  0.58587  0.25080  0.73430  1.0000
  H   H1060     1.0  0.92314  0.23081  0.48781  1.0000
  C   C1309     1.0  0.51482  0.00174  0.65676  1.0000
  P   P43       1.0  0.59278  0.00162  0.62328  1.0000
  H   H1061     1.0  0.88538  0.18525  0.48582  1.0000
  P   P44       1.0  0.53333  0.07039  0.48578  1.0000
  Fe  Fe93      1.0  0.88174  0.44144  0.33581  1.0000
  S   S185      1.0  0.91198  0.43800  0.33807  1.0000
  S   S186      1.0  0.87140  0.45037  0.37188  1.0000
  Fe  Fe94      1.0  0.87372  0.42672  0.28114  1.0000
  S   S187      1.0  0.90421  0.42287  0.27955  1.0000
  S   S188      1.0  0.84607  0.41549  0.25289  1.0000
  Fe  Fe95      1.0  0.89442  0.40746  0.31709  1.0000
  S   S189      1.0  0.89658  0.37715  0.32770  1.0000
  Fe  Fe96      1.0  0.91933  0.45390  0.30109  1.0000
  S   S190      1.0  0.95161  0.48314  0.30030  1.0000
  S   S191      1.0  0.86324  0.40937  0.31764  1.0000
  S   S192      1.0  0.88965  0.45918  0.29987  1.0000
  Fe  Fe97      1.0  0.56885  0.43957  0.33892  1.0000
  S   S193      1.0  0.53704  0.44012  0.34174  1.0000
  S   S194      1.0  0.58893  0.44664  0.37385  1.0000
  Fe  Fe98      1.0  0.56197  0.42552  0.28411  1.0000
  S   S195      1.0  0.52955  0.42548  0.28268  1.0000
  S   S196      1.0  0.57980  0.41520  0.25532  1.0000
  Fe  Fe99      1.0  0.54517  0.45609  0.30482  1.0000
  C   C1310     1.0  0.99138  0.32671  0.44721  1.0000
  Fe  Fe100     1.0  0.52393  0.40952  0.32011  1.0000
  C   C1311     1.0  0.70038  0.31957  0.12512  1.0000
  S   S197      1.0  0.57817  0.45768  0.30323  1.0000
  S   S198      1.0  0.55507  0.40734  0.32019  1.0000
  Fe  Fe101     1.0  0.78152  0.38406  0.06298  1.0000
  S   S199      1.0  0.80357  0.37130  0.07827  1.0000
  S   S200      1.0  0.78016  0.39691  0.02452  1.0000
  Fe  Fe102     1.0  0.75686  0.37639  0.11159  1.0000
  S   S201      1.0  0.77650  0.36256  0.13033  1.0000
  S   S202      1.0  0.73024  0.37763  0.13413  1.0000
  Fe  Fe103     1.0  0.80493  0.38966  0.11341  1.0000
  S   S203      1.0  0.83614  0.40941  0.13479  1.0000
  Fe  Fe104     1.0  0.77330  0.34535  0.09433  1.0000
  S   S204      1.0  0.76733  0.31092  0.09473  1.0000
  S   S205      1.0  0.78535  0.40472  0.09675  1.0000
  S   S206      1.0  0.75118  0.35680  0.07694  1.0000
  Fe  Fe105     1.0  0.59611  0.38985  0.11551  1.0000
  S   S207      1.0  0.61219  0.40302  0.07869  1.0000
  S   S208      1.0  0.57751  0.40417  0.13745  1.0000
  Fe  Fe106     1.0  0.60987  0.35432  0.11515  1.0000
  S   S209      1.0  0.62684  0.36410  0.07884  1.0000
  S   S210      1.0  0.61216  0.32855  0.13809  1.0000
  Fe  Fe107     1.0  0.63931  0.39738  0.09382  1.0000
  S   S211      1.0  0.67448  0.41923  0.08841  1.0000
  Fe  Fe108     1.0  0.59857  0.36872  0.06581  1.0000
  S   S212      1.0  0.58492  0.35462  0.02765  1.0000
  S   S213      1.0  0.62462  0.38737  0.13137  1.0000
  S   S214      1.0  0.58013  0.35577  0.10145  1.0000
  Fe  Fe109     1.0  0.88564  0.32328  0.45854  1.0000
  S   S215      1.0  0.88614  0.29451  0.44035  1.0000
  S   S216      1.0  0.88509  0.35277  0.44169  1.0000
  H   H1062     1.0  0.59297  0.30539  0.22496  1.0000
  S   S217      1.0  0.94700  0.30535  0.45184  1.0000
  H   H1063     1.0  0.57596  0.47630  0.41504  1.0000
  C   C1312     1.0  0.75164  0.48329  0.37480  1.0000
  H   H1064     1.0  0.80733  0.45417  0.39427  1.0000
  H   H1065     1.0  0.90902  0.25257  0.41916  1.0000
  H   H1066     1.0  0.84698  0.33848  0.47019  1.0000
  H   H1067     1.0  0.59361  0.42993  0.45127  1.0000
  C   C1313     1.0  0.71474  0.38815  0.11920  1.0000
  C   C1314     1.0  0.72398  0.40529  0.10273  1.0000
  C   C1315     1.0  0.71159  0.41484  0.09316  1.0000
  C   C1316     1.0  0.68986  0.40689  0.09956  1.0000
  C   C1317     1.0  0.68052  0.38922  0.11519  1.0000
  C   C1318     1.0  0.69297  0.37999  0.12514  1.0000
  H   H1068     1.0  0.74076  0.41153  0.09789  1.0000
  H   H1069     1.0  0.71887  0.42849  0.08101  1.0000
  H   H1070     1.0  0.66372  0.38275  0.11992  1.0000
  H   H1071     1.0  0.68567  0.36641  0.13740  1.0000
  C   C1319     1.0  0.52749  0.36670  0.26451  1.0000
  C   C1320     1.0  0.60694  0.27160  0.11331  1.0000
  C   C1321     1.0  0.61199  0.28998  0.12784  1.0000
  C   C1322     1.0  0.60603  0.30566  0.11993  1.0000
  C   C1323     1.0  0.59494  0.30290  0.09761  1.0000
  C   C1324     1.0  0.58961  0.28442  0.08335  1.0000
  C   C1325     1.0  0.72499  0.50085  0.48285  1.0000
  H   H1072     1.0  0.62060  0.29209  0.14509  1.0000
  H   H1073     1.0  0.59018  0.31487  0.09146  1.0000
  H   H1074     1.0  0.58069  0.28222  0.06629  1.0000
  C   C1326     1.0  0.52866  0.29133  0.24360  1.0000
  C   C1327     1.0  0.73903  0.27668  0.12071  1.0000
  C   C1328     1.0  0.74129  0.29123  0.10193  1.0000
  H   H1075     1.0  0.73254  0.27153  0.04489  1.0000
  H   H1076     1.0  0.52748  0.30030  0.25942  1.0000
  H   H1077     1.0  0.75293  0.27850  0.13130  1.0000
  H   H1078     1.0  0.59547  0.29764  0.18053  1.0000
  C   C1329     1.0  0.94861  0.39908  0.29699  1.0000
  H   H1079     1.0  0.65786  0.38632  0.03937  1.0000
  C   C1330     1.0  0.95917  0.40777  0.37170  1.0000
  H   H1080     1.0  0.64479  0.30558  0.02732  1.0000
  H   H1081     1.0  0.80467  0.37297  0.01302  1.0000
  C   C1331     1.0  0.60188  0.36012  0.23824  1.0000
  C   C1332     1.0  0.59583  0.26888  0.09096  1.0000
  C   C1333     1.0  0.99457  0.49777  0.30852  1.0000
  H   H1082     1.0  0.69408  0.47934  0.16262  1.0000
  C   C1334     1.0  0.56355  0.45692  0.45837  1.0000
  C   C1335     1.0  0.88139  0.47749  0.38049  1.0000
  H   H1083     1.0  0.95759  0.39231  0.37747  1.0000
  P   P45       1.0  0.98140  0.40430  0.32994  1.0000
  C   C1336     1.0  0.57878  0.41253  0.22249  1.0000
  C   C1337     1.0  0.59215  0.40493  0.21094  1.0000
  C   C1338     1.0  0.59191  0.40223  0.18504  1.0000
  C   C1339     1.0  0.57828  0.40718  0.17025  1.0000
  C   C1340     1.0  0.56488  0.41480  0.18175  1.0000
  C   C1341     1.0  0.56505  0.41740  0.20774  1.0000
  H   H1084     1.0  0.60274  0.40104  0.22215  1.0000
  H   H1085     1.0  0.60236  0.39647  0.17650  1.0000
  H   H1086     1.0  0.55421  0.41861  0.17051  1.0000
  H   H1087     1.0  0.55455  0.42310  0.21633  1.0000
  C   C1342     1.0  0.70088  0.25670  0.11180  1.0000
  C   C1343     1.0  0.52852  0.33186  0.18660  1.0000
  H   H1088     1.0  0.75313  0.34750  0.00491  1.0000
  H   H1089     1.0  0.82507  0.46672  0.11214  1.0000
  H   H1090     1.0  0.65827  0.27570  0.14893  1.0000
  C   C1344     1.0  0.59948  0.26303  0.00112  1.0000
  C   C1345     1.0  0.97614  0.48165  0.29752  1.0000
  H   H1091     1.0  0.83765  0.35616  0.43972  1.0000
  H   H1092     1.0  0.61006  0.48386  0.34197  1.0000
  C   C1346     1.0  0.89459  0.37096  0.35957  1.0000
  C   C1347     1.0  0.89226  0.38450  0.37716  1.0000
  C   C1348     1.0  0.89001  0.37894  0.40234  1.0000
  C   C1349     1.0  0.88972  0.35968  0.41011  1.0000
  C   C1350     1.0  0.89260  0.34637  0.39264  1.0000
  C   C1351     1.0  0.89506  0.35204  0.36742  1.0000
  H   H1093     1.0  0.89184  0.39909  0.37135  1.0000
  H   H1094     1.0  0.88799  0.38939  0.41580  1.0000
  H   H1095     1.0  0.89245  0.33151  0.39848  1.0000
  H   H1096     1.0  0.89683  0.34149  0.35390  1.0000
  C   C1352     1.0  0.84418  0.41340  0.21997  1.0000
  C   C1353     1.0  0.82409  0.40042  0.20911  1.0000
  C   C1354     1.0  0.82147  0.39887  0.18314  1.0000
  C   C1355     1.0  0.83890  0.41036  0.16763  1.0000
  C   C1356     1.0  0.85908  0.42309  0.17846  1.0000
  C   C1357     1.0  0.86170  0.42467  0.20446  1.0000
  H   H1097     1.0  0.81041  0.39163  0.22089  1.0000
  H   H1098     1.0  0.80591  0.38909  0.17505  1.0000
  H   H1099     1.0  0.87272  0.43200  0.16667  1.0000
  H   H1100     1.0  0.87714  0.43499  0.21249  1.0000
  H   H1101     1.0  0.87018  0.46986  0.41804  1.0000
  Fe  Fe110     1.0  0.91426  0.30149  0.46639  1.0000
  C   C1358     1.0  0.73657  0.31377  0.17601  1.0000
  H   H1102     1.0  0.49989  0.35896  0.28775  1.0000
  C   C1359     1.0  0.50629  0.32441  0.24765  1.0000
  H   H1103     1.0  0.97732  0.45298  0.44066  1.0000
  H   H1104     1.0  0.76334  0.27262  0.02119  1.0000
  C   C1360     1.0  0.58942  0.28928  0.21912  1.0000
  C   C1361     1.0  0.56228  0.47721  0.40664  1.0000
  H   H1105     1.0  0.57409  0.48675  0.47868  1.0000
  H   H1106     1.0  0.54913  0.36595  0.18551  1.0000
  H   H1107     1.0  0.99284  0.43515  0.40462  1.0000
  H   H1108     1.0  0.68185  0.35037  0.24279  1.0000
  H   H1109     1.0  0.61140  0.25945  0.11948  1.0000
  H   H1110     1.0  0.77337  0.45850  0.42508  1.0000
  C   C1362     1.0  0.68978  0.26767  0.17812  1.0000
  H   H1111     1.0  0.98243  0.41986  0.44542  1.0000
  C   C1363     1.0  0.59688  0.29593  0.00888  1.0000
  C   C1364     1.0  0.55200  0.47843  0.20910  1.0000
  C   C1365     1.0  0.85048  0.38832  0.45504  1.0000
  C   C1366     1.0  0.58607  0.26414  0.18645  1.0000
  H   H1112     1.0  0.50445  0.29886  0.18288  1.0000
  C   C1367     1.0  0.74063  0.34383  0.99109  1.0000
  C   C1368     1.0  0.53030  0.47043  0.47079  1.0000
  H   H1113     1.0  0.57146  0.34008  0.17598  1.0000
  H   H1114     1.0  0.75074  0.49431  0.47015  1.0000
  C   C1369     1.0  0.84273  0.37288  0.43605  1.0000
  C   C1370     1.0  0.84207  0.37900  0.41156  1.0000
  C   C1371     1.0  0.84917  0.40054  0.40577  1.0000
  C   C1372     1.0  0.85694  0.41601  0.42449  1.0000
  C   C1373     1.0  0.85775  0.40999  0.44896  1.0000
  C   C1374     1.0  0.52834  0.35545  0.15380  1.0000
  C   C1375     1.0  0.58390  0.27294  0.23658  1.0000
  C   C1376     1.0  0.80461  0.49245  0.45605  1.0000
  C   C1377     1.0  0.51631  0.41484  0.46816  1.0000
  C   C1378     1.0  0.59777  0.47514  0.47972  1.0000
  H   H1115     1.0  0.69386  0.26931  0.15869  1.0000
  H   H1116     1.0  0.50577  0.34065  0.12418  1.0000
  C   C1379     1.0  0.68757  0.28413  0.19077  1.0000
  H   H1117     1.0  0.62949  0.40401  0.27223  1.0000
  H   H1118     1.0  0.67677  0.29286  0.01443  1.0000
  H   H1119     1.0  0.90234  0.45807  0.43796  1.0000
  H   H1120     1.0  0.63556  0.33020  0.99451  1.0000
  C   C1380     1.0  0.73169  0.27041  0.02485  1.0000
  H   H1121     1.0  0.98873  0.31798  0.42995  1.0000
  C   C1381     1.0  0.97970  0.35103  0.36388  1.0000
  H   H1122     1.0  0.54811  0.47298  0.24849  1.0000
  H   H1123     1.0  0.51424  0.47987  0.37335  1.0000
  H   H1124     1.0  0.83659  0.36703  0.39694  1.0000
  H   H1125     1.0  0.84895  0.40528  0.38671  1.0000
  H   H1126     1.0  0.86253  0.43269  0.41992  1.0000
  C   C1382     1.0  0.71893  0.25975  0.12585  1.0000
  C   C1383     1.0  0.71334  0.26856  0.01240  1.0000
  H   H1127     1.0  0.67562  0.26108  0.24793  1.0000
  H   H1128     1.0  0.81294  0.47978  0.17054  1.0000
  H   H1129     1.0  0.96192  0.46209  0.35105  1.0000
  C   C1384     1.0  0.72005  0.34033  0.99834  1.0000
  C   C1385     1.0  0.78671  0.44598  0.05563  1.0000
  C   C1386     1.0  0.80720  0.44703  0.05458  1.0000
  C   C1387     1.0  0.82101  0.45467  0.07492  1.0000
  C   C1388     1.0  0.81440  0.46143  0.09626  1.0000
  C   C1389     1.0  0.79402  0.46093  0.09727  1.0000
  C   C1390     1.0  0.78007  0.45284  0.07690  1.0000
  C   C1391     1.0  0.78841  0.45349  0.14982  1.0000
  C   C1392     1.0  0.80290  0.46271  0.16952  1.0000
  C   C1393     1.0  0.80497  0.44972  0.18794  1.0000
  C   C1394     1.0  0.79276  0.42752  0.18671  1.0000
  C   C1395     1.0  0.77873  0.41824  0.16685  1.0000
  C   C1396     1.0  0.77662  0.43116  0.14847  1.0000
  H   H1130     1.0  0.77578  0.43910  0.04017  1.0000
  H   H1131     1.0  0.81204  0.44111  0.03832  1.0000
  H   H1132     1.0  0.83655  0.45464  0.07443  1.0000
  H   H1133     1.0  0.76390  0.45121  0.07748  1.0000
  H   H1134     1.0  0.81636  0.45676  0.20295  1.0000
  H   H1135     1.0  0.79452  0.41751  0.20090  1.0000
  H   H1136     1.0  0.76973  0.40101  0.16531  1.0000
  H   H1137     1.0  0.76582  0.42366  0.13310  1.0000
  H   H1138     1.0  0.74520  0.44315  0.15202  1.0000
  C   C1397     1.0  0.91632  0.33718  0.20300  1.0000
  C   C1398     1.0  0.90767  0.31913  0.18765  1.0000
  C   C1399     1.0  0.88760  0.31289  0.17657  1.0000
  C   C1400     1.0  0.87607  0.32459  0.18096  1.0000
  C   C1401     1.0  0.88450  0.34259  0.19668  1.0000
  C   C1402     1.0  0.90486  0.34895  0.20738  1.0000
  P   P46       1.0  0.87016  0.35823  0.20265  1.0000
  C   C1403     1.0  0.84637  0.34925  0.18345  1.0000
  C   C1404     1.0  0.86162  0.35598  0.23455  1.0000
  C   C1405     1.0  0.84751  0.36434  0.24165  1.0000
  C   C1406     1.0  0.84199  0.36434  0.26654  1.0000
  C   C1407     1.0  0.85042  0.35589  0.28451  1.0000
  C   C1408     1.0  0.86407  0.34707  0.27754  1.0000
  C   C1409     1.0  0.86962  0.34702  0.25267  1.0000
  C   C1410     1.0  0.84462  0.36215  0.16455  1.0000
  C   C1411     1.0  0.82658  0.35429  0.14905  1.0000
  C   C1412     1.0  0.81009  0.33366  0.15239  1.0000
  C   C1413     1.0  0.81141  0.32097  0.17161  1.0000
  C   C1414     1.0  0.82933  0.32882  0.18728  1.0000
  C   C1415     1.0  0.88909  0.38548  0.19575  1.0000
  C   C1416     1.0  0.89914  0.39034  0.17251  1.0000
  C   C1417     1.0  0.91461  0.41115  0.16727  1.0000
  C   C1418     1.0  0.92043  0.42717  0.18533  1.0000
  C   C1419     1.0  0.91076  0.42238  0.20863  1.0000
  C   C1420     1.0  0.89506  0.40165  0.21382  1.0000
  H   H1139     1.0  0.93193  0.34209  0.21149  1.0000
  H   H1140     1.0  0.88099  0.29902  0.16445  1.0000
  H   H1141     1.0  0.86078  0.31960  0.17178  1.0000
  H   H1142     1.0  0.91181  0.36297  0.21924  1.0000
  H   H1143     1.0  0.84129  0.37149  0.22805  1.0000
  H   H1144     1.0  0.83164  0.37147  0.27196  1.0000
  H   H1145     1.0  0.84669  0.35648  0.30391  1.0000
  H   H1146     1.0  0.87073  0.34074  0.29164  1.0000
  H   H1147     1.0  0.88031  0.34020  0.24793  1.0000
  H   H1148     1.0  0.85697  0.37829  0.16161  1.0000
  H   H1149     1.0  0.82543  0.36422  0.13430  1.0000
  H   H1150     1.0  0.79630  0.32758  0.14004  1.0000
  H   H1151     1.0  0.83016  0.31878  0.20206  1.0000
  H   H1152     1.0  0.89489  0.37804  0.15838  1.0000
  H   H1153     1.0  0.92201  0.41489  0.14914  1.0000
  H   H1154     1.0  0.93233  0.44332  0.18125  1.0000
  H   H1155     1.0  0.91515  0.43484  0.22260  1.0000
  H   H1156     1.0  0.88760  0.39846  0.23188  1.0000
  C   C1421     1.0  0.94889  0.36811  0.43164  1.0000
  C   C1422     1.0  0.77363  0.49277  0.38011  1.0000
  C   C1423     1.0  0.50646  0.41880  0.42616  1.0000
  C   C1424     1.0  0.83009  0.48105  0.43927  1.0000
  H   H1157     1.0  0.61862  0.44680  0.11643  1.0000
  H   H1158     1.0  0.92585  0.48448  0.40417  1.0000
  C   C1425     1.0  0.94438  0.49779  0.37130  1.0000
  C   C1426     1.0  0.56509  0.48718  0.38362  1.0000
  H   H1159     1.0  0.53479  0.37131  0.14577  1.0000
  H   H1160     1.0  0.60696  0.27975  0.03600  1.0000
  H   H1161     1.0  0.92253  0.39356  0.27212  1.0000
  C   C1427     1.0  0.97744  0.33522  0.48426  1.0000
  S   S218      1.0  0.91425  0.33081  0.48278  1.0000
  H   H1162     1.0  0.84615  0.46548  0.32927  1.0000
  C   C1428     1.0  0.97354  0.32391  0.46183  1.0000
  H   H1163     1.0  0.53516  0.25905  0.18836  1.0000
  H   H1164     1.0  0.52375  0.38338  0.36467  1.0000
  H   H1165     1.0  0.95857  0.34533  0.41644  1.0000
  C   C1429     1.0  0.98296  0.40793  0.27796  1.0000
  C   C1430     1.0  0.93048  0.45949  0.45638  1.0000
  H   H1166     1.0  0.62192  0.43281  0.28919  1.0000
  C   C1431     1.0  0.75435  0.47897  0.10532  1.0000
  C   C1432     1.0  0.67402  0.33486  0.02189  1.0000
  C   C1433     1.0  0.65595  0.26514  0.99340  1.0000
  H   H1167     1.0  0.97928  0.44491  0.32590  1.0000
  C   C1434     1.0  0.54622  0.48176  0.23290  1.0000
  H   H1168     1.0  0.72989  0.29734  0.16973  1.0000
  C   C1435     1.0  0.81721  0.46511  0.38017  1.0000
  C   C1436     1.0  0.68512  0.35888  0.05743  1.0000
  C   C1437     1.0  0.74236  0.45282  0.13833  1.0000
  H   H1169     1.0  0.65844  0.25396  0.00529  1.0000
  H   H1170     1.0  0.69565  0.38153  0.17991  1.0000
  H   H1171     1.0  0.82326  0.44095  0.36157  1.0000
  H   H1172     1.0  0.91656  0.31002  0.18422  1.0000
  C   C1438     1.0  0.69850  0.42903  0.19989  1.0000
  H   H1173     1.0  0.50882  0.42775  0.40927  1.0000
  C   C1439     1.0  0.91096  0.46063  0.45537  1.0000
  H   H1174     1.0  0.70851  0.46229  0.99574  1.0000
  C   C1440     1.0  0.65771  0.39494  0.00116  1.0000
  H   H1175     1.0  0.61041  0.36571  0.25559  1.0000
  P   P47       1.0  0.53929  0.32826  0.21560  1.0000
  C   C1441     1.0  0.87815  0.48251  0.40481  1.0000
  H   H1176     1.0  0.72497  0.29940  0.07299  1.0000
  H   H1177     1.0  0.83898  0.47905  0.42393  1.0000
  H   H1178     1.0  0.55887  0.42809  0.43853  1.0000
  C   C1442     1.0  0.54778  0.48823  0.37179  1.0000
  C   C1443     1.0  0.61323  0.36332  0.21607  1.0000
  C   C1444     1.0  0.60214  0.35595  0.19376  1.0000
  H   H1179     1.0  0.86424  0.42231  0.46306  1.0000
  C   C1445     1.0  0.66762  0.34427  0.07093  1.0000
  C   C1446     1.0  0.73354  0.47698  0.10297  1.0000
  H   H1180     1.0  0.71690  0.34070  0.01788  1.0000
  C   C1447     1.0  0.70310  0.27088  0.09249  1.0000
  H   H1181     1.0  0.66516  0.34781  0.08989  1.0000
  C   C1448     1.0  0.69247  0.47202  0.20179  1.0000
  P   P48       1.0  0.53840  0.45596  0.44844  1.0000
  C   C1449     1.0  0.83887  0.47132  0.34324  1.0000
  H   H1182     1.0  0.54990  0.49543  0.35364  1.0000
  C   C1450     1.0  0.66750  0.39504  0.02374  1.0000
  C   C1451     1.0  0.63554  0.41919  0.26271  1.0000
  H   H1183     1.0  0.93214  0.35650  0.43337  1.0000
  C   C1452     1.0  0.53720  0.35921  0.24686  1.0000
  C   C1453     1.0  0.58911  0.44208  0.45765  1.0000
  C   C1454     1.0  0.53696  0.28920  0.20040  1.0000
  H   H1184     1.0  0.63057  0.37152  0.21611  1.0000
  H   H1185     1.0  0.61087  0.35815  0.17656  1.0000
  C   C1455     1.0  0.65851  0.44304  0.14920  1.0000
  H   H1186     1.0  0.58063  0.49369  0.37467  1.0000
  H   H1187     1.0  0.93661  0.48304  0.36072  1.0000
  H   H1188     1.0  0.94160  0.44414  0.38888  1.0000
  C   C1456     1.0  0.97032  0.40379  0.29943  1.0000
  C   C1457     1.0  0.96151  0.44714  0.35722  1.0000
  H   H1189     1.0  0.71444  0.49264  0.46749  1.0000
  H   H1190     1.0  0.99651  0.37130  0.41244  1.0000
  H   H1191     1.0  0.55263  0.37022  0.23944  1.0000
  C   C1458     1.0  0.69409  0.31681  0.10025  1.0000
  C   C1459     1.0  0.97271  0.37718  0.34089  1.0000
  C   C1460     1.0  0.95127  0.36175  0.33770  1.0000
  C   C1461     1.0  0.94419  0.34120  0.34750  1.0000
  C   C1462     1.0  0.95841  0.33580  0.36048  1.0000
  C   C1463     1.0  0.95569  0.38910  0.43993  1.0000
  H   H1192     1.0  0.64805  0.27043  0.10477  1.0000
  H   H1193     1.0  0.93974  0.36558  0.32830  1.0000
  C   C1464     1.0  0.56937  0.44106  0.45053  1.0000
  C   C1465     1.0  0.74903  0.27090  0.01146  1.0000
  H   H1194     1.0  0.92754  0.32953  0.34533  1.0000
  H   H1195     1.0  0.95283  0.31993  0.36829  1.0000
  C   C1466     1.0  0.74551  0.45630  0.40586  1.0000
  C   C1467     1.0  0.67657  0.34285  0.22484  1.0000
  C   C1468     1.0  0.52695  0.33784  0.23879  1.0000
  C   C1469     1.0  0.59073  0.28491  0.19409  1.0000
  C   C1470     1.0  0.75848  0.32437  0.18141  1.0000
  C   C1471     1.0  0.76779  0.34570  0.18919  1.0000
  C   C1472     1.0  0.75529  0.35669  0.19061  1.0000
  C   C1473     1.0  0.73335  0.34616  0.18496  1.0000
  C   C1474     1.0  0.72360  0.32428  0.17883  1.0000
  H   H1196     1.0  0.55841  0.46704  0.20618  1.0000
  P   P49       1.0  0.69476  0.30936  0.17533  1.0000
  C   C1475     1.0  0.68097  0.32310  0.18987  1.0000
  C   C1476     1.0  0.76748  0.46581  0.41131  1.0000
  H   H1197     1.0  0.93691  0.45592  0.43969  1.0000
  H   H1198     1.0  0.89444  0.49027  0.34476  1.0000
  C   C1477     1.0  0.65180  0.33321  0.19032  1.0000
  C   C1478     1.0  0.66302  0.32349  0.17845  1.0000
  C   C1479     1.0  0.68754  0.30491  0.14297  1.0000
  C   C1480     1.0  0.67518  0.29917  0.09297  1.0000
  C   C1481     1.0  0.66244  0.28434  0.11057  1.0000
  C   C1482     1.0  0.66846  0.28726  0.13553  1.0000
  H   H1199     1.0  0.78482  0.35385  0.19333  1.0000
  H   H1200     1.0  0.76268  0.37343  0.19580  1.0000
  H   H1201     1.0  0.72410  0.35514  0.18538  1.0000
  H   H1202     1.0  0.98387  0.41088  0.23821  1.0000
  H   H1203     1.0  0.64980  0.35026  0.22271  1.0000
  H   H1204     1.0  0.63788  0.33326  0.18142  1.0000
  H   H1205     1.0  0.65753  0.31631  0.16041  1.0000
  H   H1206     1.0  0.67062  0.29669  0.07362  1.0000
  C   C1483     1.0  0.97802  0.46586  0.28317  1.0000
  H   H1207     1.0  0.72053  0.45780  0.38358  1.0000
  H   H1208     1.0  0.60854  0.45295  0.15854  1.0000
  H   H1209     1.0  0.96392  0.45334  0.27461  1.0000
  P   P50       1.0  0.78596  0.46967  0.12521  1.0000
  H   H1210     1.0  0.94406  0.39354  0.44812  1.0000
  H   H1211     1.0  0.65846  0.37525  0.16996  1.0000
  C   C1484     1.0  0.97734  0.40396  0.43809  1.0000
  C   C1485     1.0  0.82595  0.45748  0.36153  1.0000
  H   H1212     1.0  0.70869  0.43942  0.14710  1.0000
  H   H1213     1.0  0.55366  0.48696  0.17063  1.0000
  H   H1214     1.0  0.79859  0.30497  0.17418  1.0000
  C   C1486     1.0  0.68971  0.40660  0.02627  1.0000
  C   C1487     1.0  0.66952  0.39010  0.17879  1.0000
  H   H1215     1.0  0.84676  0.47120  0.46615  1.0000
  C   C1488     1.0  0.75886  0.46667  0.12275  1.0000
  C   C1489     1.0  0.72159  0.45092  0.13595  1.0000
  C   C1490     1.0  0.60419  0.39064  0.99769  1.0000
  C   C1491     1.0  0.69048  0.39369  0.18425  1.0000
  C   C1492     1.0  0.61860  0.47829  0.40291  1.0000
  C   C1493     1.0  0.64642  0.44354  0.12877  1.0000
  C   C1494     1.0  0.97136  0.43737  0.34292  1.0000
  H   H1216     1.0  0.61301  0.46655  0.41750  1.0000
  H   H1217     1.0  0.71002  0.44403  0.20785  1.0000
  H   H1218     1.0  0.64672  0.40296  0.17953  1.0000
  H   H1219     1.0  0.70127  0.36630  0.02233  1.0000
  C   C1495     1.0  0.52762  0.47939  0.38298  1.0000
  C   C1496     1.0  0.68772  0.33299  0.21312  1.0000
  C   C1497     1.0  0.95213  0.40202  0.25242  1.0000
  H   H1220     1.0  0.93932  0.40906  0.40157  1.0000
  C   C1498     1.0  0.70494  0.41311  0.19483  1.0000
  C   C1499     1.0  0.66299  0.40592  0.18394  1.0000
  H   H1221     1.0  0.72125  0.41590  0.19873  1.0000
  H   H1222     1.0  0.50896  0.46260  0.41446  1.0000
  C   C1500     1.0  0.57970  0.34579  0.19350  1.0000
  H   H1223     1.0  0.61006  0.39981  0.01458  1.0000
  C   C1501     1.0  0.51875  0.42800  0.44754  1.0000
  H   H1224     1.0  0.69626  0.37378  0.06599  1.0000
  C   C1502     1.0  0.54205  0.46830  0.41817  1.0000
  C   C1503     1.0  0.96376  0.36190  0.42178  1.0000
  H   H1225     1.0  0.70405  0.32824  0.08659  1.0000
  H   H1226     1.0  0.71525  0.33313  0.13036  1.0000
  C   C1504     1.0  0.97047  0.41771  0.35010  1.0000
  C   C1505     1.0  0.95016  0.43708  0.37854  1.0000
  C   C1506     1.0  0.50810  0.37261  0.37176  1.0000
  C   C1507     1.0  0.65632  0.32040  0.03554  1.0000
  C   C1508     1.0  0.80075  0.37838  0.99587  1.0000
  C   C1509     1.0  0.93946  0.39776  0.27363  1.0000
  C   C1510     1.0  0.63137  0.43550  0.27244  1.0000
  C   C1511     1.0  0.68807  0.35444  0.03281  1.0000
  C   C1512     1.0  0.63498  0.49894  0.40784  1.0000
  C   C1513     1.0  0.97390  0.40720  0.25460  1.0000
  H   H1227     1.0  0.82682  0.40499  0.48440  1.0000
  P   P51       1.0  0.66915  0.44632  0.19937  1.0000
  C   C1514     1.0  0.94892  0.41737  0.38571  1.0000
  C   C1515     1.0  0.61691  0.48799  0.36032  1.0000
  C   C1516     1.0  0.53654  0.35235  0.17624  1.0000
  C   C1517     1.0  0.67750  0.42559  0.19426  1.0000
  C   C1518     1.0  0.94167  0.46299  0.47885  1.0000
  C   C1519     1.0  0.70259  0.47922  0.22484  1.0000
  C   C1520     1.0  0.63862  0.45499  0.26007  1.0000
  H   H1228     1.0  0.69718  0.40680  0.04388  1.0000
  H   H1229     1.0  0.53561  0.38319  0.27076  1.0000
  H   H1230     1.0  0.69637  0.46962  0.24133  1.0000
  H   H1231     1.0  0.89482  0.41369  0.47135  1.0000
  H   H1232     1.0  0.68018  0.29370  0.22637  1.0000
  C   C1521     1.0  0.64688  0.42229  0.24051  1.0000
  H   H1233     1.0  0.64976  0.40940  0.23325  1.0000
  C   C1522     1.0  0.52684  0.25833  0.22690  1.0000
  C   C1523     1.0  0.98534  0.37679  0.41954  1.0000
  C   C1524     1.0  0.72324  0.28844  0.08787  1.0000
  C   C1525     1.0  0.66610  0.28708  0.99859  1.0000
  H   H1234     1.0  0.63931  0.31398  0.07031  1.0000
  C   C1526     1.0  0.78916  0.39035  0.99642  1.0000
  H   H1235     1.0  0.59855  0.30880  0.02138  1.0000
  C   C1527     1.0  0.65413  0.44181  0.22787  1.0000
  H   H1236     1.0  0.76822  0.31602  0.17939  1.0000
  C   C1528     1.0  0.83372  0.33609  0.48226  1.0000
  C   C1529     1.0  0.98673  0.37173  0.35453  1.0000
  H   H1237     1.0  0.94514  0.40156  0.23436  1.0000
  C   C1530     1.0  0.82408  0.48001  0.48354  1.0000
  H   H1238     1.0  0.68930  0.26840  0.08133  1.0000
  C   C1531     1.0  0.51626  0.48540  0.30056  1.0000
  C   C1532     1.0  0.99100  0.46773  0.44607  1.0000
  H   H1239     1.0  0.95680  0.46224  0.47924  1.0000
  H   H1240     1.0  0.62965  0.45241  0.19459  1.0000
  C   C1533     1.0  0.76165  0.49570  0.98920  1.0000
  C   C1534     1.0  0.63495  0.45037  0.17642  1.0000
  C   C1535     1.0  0.83407  0.50045  0.36193  1.0000
  C   C1536     1.0  0.52474  0.46955  0.40612  1.0000
  C   C1537     1.0  0.56817  0.34311  0.21561  1.0000
  H   H1241     1.0  0.65057  0.44047  0.11033  1.0000
  H   H1242     1.0  0.97822  0.48794  0.43034  1.0000
  C   C1538     1.0  0.50731  0.35306  0.27396  1.0000
  C   C1539     1.0  0.65298  0.44659  0.17323  1.0000
  C   C1540     1.0  0.70220  0.41797  0.00621  1.0000
  C   C1541     1.0  0.65009  0.45822  0.23797  1.0000
  H   H1243     1.0  0.58343  0.27645  0.25607  1.0000
  C   C1542     1.0  0.62288  0.45079  0.15593  1.0000
  Fe  Fe111     1.0  0.86374  0.27476  0.47132  1.0000
  C   C1543     1.0  0.60159  0.27959  0.01715  1.0000
  C   C1544     1.0  0.57943  0.34984  0.23806  1.0000
  H   H1244     1.0  0.54214  0.29656  0.18241  1.0000
  H   H1245     1.0  0.52084  0.36315  0.40324  1.0000
  C   C1545     1.0  0.71716  0.46289  0.11820  1.0000
  C   C1546     1.0  0.68215  0.28148  0.21601  1.0000
  H   H1246     1.0  0.67200  0.43960  0.14615  1.0000
  C   C1547     1.0  0.65853  0.34282  0.21352  1.0000
  C   C1548     1.0  0.78162  0.48443  0.39888  1.0000
  H   H1247     1.0  0.70087  0.46074  0.11567  1.0000
  H   H1248     1.0  0.70149  0.33287  0.22232  1.0000
  C   C1549     1.0  0.60946  0.47275  0.37919  1.0000
  C   C1550     1.0  0.62854  0.44729  0.13215  1.0000
  C   C1551     1.0  0.60333  0.45915  0.47221  1.0000
  C   C1552     1.0  0.73757  0.46513  0.38774  1.0000
  C   C1553     1.0  0.65308  0.32514  0.05990  1.0000
  C   C1554     1.0  0.70128  0.48458  0.18067  1.0000
  H   H1249     1.0  0.57089  0.34729  0.25544  1.0000
  C   C1555     1.0  0.57795  0.47406  0.47290  1.0000
  C   C1556     1.0  0.99232  0.39815  0.42720  1.0000
  C   C1557     1.0  0.53409  0.30082  0.22013  1.0000
  S   S219      1.0  0.54217  0.48687  0.30141  1.0000
  H   H1250     1.0  0.53312  0.49854  0.25510  1.0000
  C   C1558     1.0  0.53315  0.26797  0.20374  1.0000
  C   C1559     1.0  0.50642  0.36111  0.39361  1.0000
  C   C1560     1.0  0.50116  0.39331  0.46784  1.0000
  C   C1561     1.0  0.82159  0.48677  0.38083  1.0000
  H   H1251     1.0  0.61885  0.46026  0.47733  1.0000
  C   C1562     1.0  0.72462  0.46856  0.98831  1.0000
  H   H1252     1.0  0.99062  0.34692  0.37432  1.0000
  C   C1563     1.0  0.89180  0.49400  0.36352  1.0000
  C   C1564     1.0  0.53780  0.49631  0.23670  1.0000
  H   H1253     1.0  0.73462  0.44201  0.41558  1.0000
  H   H1254     1.0  0.93140  0.41776  0.47833  1.0000
  H   H1255     1.0  0.74550  0.49001  0.36059  1.0000
  C   C1565     1.0  0.52866  0.48907  0.46403  1.0000
  C   C1566     1.0  0.80913  0.48799  0.47998  1.0000
  C   C1567     1.0  0.81492  0.48882  0.43549  1.0000
  C   C1568     1.0  0.83456  0.47657  0.46321  1.0000
  H   H1256     1.0  0.64048  0.38590  0.99929  1.0000
  C   C1569     1.0  0.59147  0.36850  0.99892  1.0000
  C   C1570     1.0  0.67967  0.26299  0.22844  1.0000
  C   C1571     1.0  0.84285  0.49277  0.34337  1.0000
  H   H1257     1.0  0.52029  0.26271  0.26495  1.0000
  C   C1572     1.0  0.71231  0.26721  0.98651  1.0000
  C   C1573     1.0  0.54931  0.48968  0.18912  1.0000
  H   H1258     1.0  0.58782  0.26126  0.16705  1.0000
  H   H1259     1.0  0.65550  0.47342  0.22858  1.0000
  C   C1574     1.0  0.99150  0.48739  0.44026  1.0000
  H   H1260     1.0  0.63492  0.46740  0.26745  1.0000
  H   H1261     1.0  0.71944  0.42671  0.00851  1.0000
  C   C1575     1.0  0.51193  0.33817  0.14169  1.0000
  P   P52       1.0  0.81008  0.49630  0.40503  1.0000
  P   P53       1.0  0.67673  0.32973  0.98952  1.0000
  H   H1262     1.0  0.81931  0.30174  0.47834  1.0000
  H   H1263     1.0  0.93875  0.39654  0.31324  1.0000
  C   C1576     1.0  0.52483  0.27007  0.24688  1.0000
  C   C1577     1.0  0.72079  0.49897  0.22684  1.0000
  C   C1578     1.0  0.89697  0.40168  0.48185  1.0000
  H   H1264     1.0  0.76687  0.48983  0.09324  1.0000
  C   C1579     1.0  0.99842  0.46685  0.27904  1.0000
  H   H1265     1.0  0.79345  0.49920  0.45359  1.0000
  C   C1580     1.0  0.50342  0.31779  0.15224  1.0000
  C   C1581     1.0  0.93840  0.49860  0.39581  1.0000
  C   C1582     1.0  0.51153  0.31465  0.17477  1.0000
  H   H1266     1.0  0.69994  0.26821  0.02291  1.0000
  C   C1583     1.0  0.74068  0.48750  0.99822  1.0000
  C   C1584     1.0  0.80257  0.49784  0.13089  1.0000
  H   H1267     1.0  0.88760  0.46642  0.47617  1.0000
  H   H1268     1.0  0.53187  0.49509  0.44535  1.0000
  H   H1269     1.0  0.72996  0.48599  0.08899  1.0000
  H   H1270     1.0  0.78482  0.49845  0.16348  1.0000
  H   H1271     1.0  0.49999  0.45167  0.29242  1.0000
  H   H1272     1.0  0.73685  0.49576  0.01297  1.0000
  C   C1585     1.0  0.90256  0.46515  0.47684  1.0000
  H   H1273     1.0  0.52661  0.42082  0.48419  1.0000
  C   C1586     1.0  0.52346  0.50069  0.48168  1.0000
  C   C1587     1.0  0.57918  0.25211  0.22895  1.0000
  Fe  Fe112     1.0  0.54991  0.42295  0.60273  1.0000
  S   S220      1.0  0.54696  0.45342  0.60008  1.0000
  S   S221      1.0  0.54438  0.40292  0.56795  1.0000
  Fe  Fe113     1.0  0.56380  0.43038  0.65763  1.0000
  S   S222      1.0  0.56148  0.46165  0.65916  1.0000
  S   S223      1.0  0.57492  0.41276  0.68578  1.0000
  Fe  Fe114     1.0  0.53097  0.44439  0.63703  1.0000
  H   H1274     1.0  0.74382  0.27417  0.73486  1.0000
  Fe  Fe115     1.0  0.57754  0.46834  0.62165  1.0000
  C   C1588     1.0  0.75054  0.46607  0.96022  1.0000
  S   S224      1.0  0.53184  0.41262  0.63837  1.0000
  S   S225      1.0  0.58208  0.43850  0.62154  1.0000
  Fe  Fe116     1.0  0.59158  0.39469  0.82956  1.0000
  S   S226      1.0  0.62097  0.41282  0.85319  1.0000
  S   S227      1.0  0.57800  0.41218  0.80439  1.0000
  Fe  Fe117     1.0  0.58695  0.35205  0.84907  1.0000
  S   S228      1.0  0.61582  0.36655  0.87371  1.0000
  S   S229      1.0  0.56796  0.31620  0.84792  1.0000
  Fe  Fe118     1.0  0.60353  0.39004  0.88425  1.0000
  S   S230      1.0  0.60898  0.40350  0.92372  1.0000
  Fe  Fe119     1.0  0.63118  0.38799  0.84132  1.0000
  S   S231      1.0  0.66487  0.39773  0.82728  1.0000
  S   S232      1.0  0.57304  0.37392  0.86177  1.0000
  S   S233      1.0  0.60314  0.37144  0.81562  1.0000
  Fe  Fe120     1.0  0.76934  0.33392  0.84683  1.0000
  S   S234      1.0  0.76045  0.34012  0.88461  1.0000
  S   S235      1.0  0.76264  0.30143  0.83162  1.0000
  Fe  Fe121     1.0  0.78960  0.38074  0.83200  1.0000
  S   S236      1.0  0.78160  0.39118  0.86892  1.0000
  S   S237      1.0  0.80508  0.40424  0.80005  1.0000
  Fe  Fe122     1.0  0.79267  0.36863  0.88618  1.0000
  S   S238      1.0  0.81172  0.37454  0.92215  1.0000
  Fe  Fe123     1.0  0.74980  0.36203  0.86540  1.0000
  S   S239      1.0  0.71823  0.35721  0.88152  1.0000
  S   S240      1.0  0.80313  0.36031  0.84966  1.0000
  S   S241      1.0  0.75625  0.35366  0.82716  1.0000
  H   H1275     1.0  0.80359  0.33128  0.64844  1.0000
  H   H1276     1.0  0.77822  0.29022  0.70364  1.0000
  S   S242      1.0  0.89637  0.31814  0.55121  1.0000
  Fe  Fe124     1.0  0.88216  0.42013  0.67861  1.0000
  S   S243      1.0  0.89866  0.40442  0.65621  1.0000
  S   S244      1.0  0.87042  0.40415  0.71644  1.0000
  Fe  Fe125     1.0  0.88858  0.45217  0.63691  1.0000
  S   S245      1.0  0.90509  0.43859  0.61189  1.0000
  C   C1589     1.0  0.63330  0.34998  0.96563  1.0000
  Fe  Fe126     1.0  0.87959  0.40654  0.62391  1.0000
  S   S246      1.0  0.86094  0.38044  0.59580  1.0000
  Fe  Fe127     1.0  0.92307  0.43769  0.64612  1.0000
  S   S247      1.0  0.95796  0.44381  0.64291  1.0000
  S   S248      1.0  0.86140  0.42013  0.64662  1.0000
  S   S249      1.0  0.90828  0.45341  0.67075  1.0000
  C   C1590     1.0  0.88555  0.33436  0.56449  1.0000
  C   C1591     1.0  0.86726  0.33490  0.55461  1.0000
  C   C1592     1.0  0.85968  0.34885  0.56464  1.0000
  C   C1593     1.0  0.87020  0.36221  0.58479  1.0000
  C   C1594     1.0  0.88787  0.36093  0.59545  1.0000
  C   C1595     1.0  0.89554  0.34708  0.58530  1.0000
  H   H1277     1.0  0.85904  0.32464  0.53910  1.0000
  H   H1278     1.0  0.84576  0.34947  0.55653  1.0000
  H   H1279     1.0  0.89589  0.37093  0.61121  1.0000
  H   H1280     1.0  0.90951  0.34650  0.59329  1.0000
  H   H1281     1.0  0.61149  0.49188  0.66271  1.0000
  H   H1282     1.0  0.62718  0.27813  0.87265  1.0000
  C   C1596     1.0  0.80255  0.38047  0.95052  1.0000
  C   C1597     1.0  0.79083  0.39230  0.95111  1.0000
  H   H1283     1.0  0.95590  0.43701  0.69518  1.0000
  H   H1284     1.0  0.78729  0.39803  0.93399  1.0000
  C   C1598     1.0  0.70707  0.27080  0.92728  1.0000
  C   C1599     1.0  0.82259  0.40338  0.77642  1.0000
  C   C1600     1.0  0.83066  0.38830  0.77645  1.0000
  C   C1601     1.0  0.84501  0.38865  0.75779  1.0000
  C   C1602     1.0  0.85144  0.40397  0.73874  1.0000
  C   C1603     1.0  0.84318  0.41890  0.73852  1.0000
  C   C1604     1.0  0.82885  0.41857  0.75722  1.0000
  H   H1285     1.0  0.82619  0.37663  0.79114  1.0000
  H   H1286     1.0  0.85137  0.37709  0.75832  1.0000
  H   H1287     1.0  0.84813  0.43093  0.72420  1.0000
  H   H1288     1.0  0.82281  0.43038  0.75703  1.0000
  C   C1605     1.0  0.67263  0.48324  0.57685  1.0000
  C   C1606     1.0  0.72071  0.28052  0.84928  1.0000
  C   C1607     1.0  0.73766  0.27908  0.83676  1.0000
  H   H1289     1.0  0.55242  0.28532  0.78795  1.0000
  H   H1290     1.0  0.54684  0.33860  0.81806  1.0000
  H   H1291     1.0  0.72268  0.29585  0.85621  1.0000
  H   H1292     1.0  0.81711  0.36498  0.97287  1.0000
  C   C1608     1.0  0.68013  0.38720  0.84296  1.0000
  C   C1609     1.0  0.67176  0.37383  0.86337  1.0000
  C   C1610     1.0  0.68383  0.36505  0.87524  1.0000
  C   C1611     1.0  0.70436  0.36956  0.86676  1.0000
  C   C1612     1.0  0.71299  0.38311  0.84650  1.0000
  C   C1613     1.0  0.70089  0.39203  0.83472  1.0000
  H   H1293     1.0  0.65597  0.37010  0.86993  1.0000
  H   H1294     1.0  0.67710  0.35438  0.89074  1.0000
  H   H1295     1.0  0.72888  0.38662  0.83987  1.0000
  H   H1296     1.0  0.70756  0.40268  0.81923  1.0000
  C   C1614     1.0  0.58352  0.30343  0.83858  1.0000
  C   C1615     1.0  0.60346  0.31497  0.82725  1.0000
  C   C1616     1.0  0.61507  0.30428  0.81857  1.0000
  C   C1617     1.0  0.77296  0.31496  0.68520  1.0000
  H   H1297     1.0  0.81273  0.31035  0.72302  1.0000
  C   C1618     1.0  0.57560  0.28133  0.84193  1.0000
  H   H1298     1.0  0.60979  0.33206  0.82474  1.0000
  H   H1299     1.0  0.63034  0.31318  0.80951  1.0000
  C   C1619     1.0  0.60705  0.28215  0.82168  1.0000
  H   H1300     1.0  0.52761  0.30840  0.73322  1.0000
  C   C1620     1.0  0.60203  0.38939  0.95229  1.0000
  H   H1301     1.0  0.66923  0.34149  0.69737  1.0000
  C   C1621     1.0  0.60943  0.40098  0.97452  1.0000
  H   H1302     1.0  0.58333  0.35809  0.93658  1.0000
  H   H1303     1.0  0.61924  0.41812  0.97383  1.0000
  C   C1622     1.0  0.67008  0.40647  0.98106  1.0000
  C   C1623     1.0  0.73997  0.29233  0.76497  1.0000
  H   H1304     1.0  0.68442  0.47647  0.66255  1.0000
  C   C1624     1.0  0.57628  0.41360  0.71877  1.0000
  C   C1625     1.0  0.57092  0.42732  0.73293  1.0000
  C   C1626     1.0  0.57192  0.42701  0.75908  1.0000
  C   C1627     1.0  0.57829  0.41304  0.77139  1.0000
  C   C1628     1.0  0.58398  0.39963  0.75720  1.0000
  C   C1629     1.0  0.58298  0.39989  0.73108  1.0000
  H   H1305     1.0  0.56579  0.43800  0.72379  1.0000
  H   H1306     1.0  0.56752  0.43751  0.76986  1.0000
  H   H1307     1.0  0.58890  0.38894  0.76656  1.0000
  H   H1308     1.0  0.58726  0.38930  0.72034  1.0000
  C   C1630     1.0  0.51792  0.38342  0.56147  1.0000
  H   H1309     1.0  0.54143  0.37124  0.67214  1.0000
  H   H1310     1.0  0.52630  0.37538  0.52581  1.0000
  H   H1311     1.0  0.87186  0.35510  0.64813  1.0000
  C   C1631     1.0  0.80771  0.37378  0.97305  1.0000
  C   C1632     1.0  0.98121  0.46748  0.65090  1.0000
  C   C1633     1.0  0.68588  0.25472  0.92943  1.0000
  H   H1312     1.0  0.50446  0.38763  0.59571  1.0000
  C   C1634     1.0  0.55179  0.31390  0.66283  1.0000
  C   C1635     1.0  0.52305  0.32854  0.78900  1.0000
  C   C1636     1.0  0.85719  0.35137  0.65822  1.0000
  C   C1637     1.0  0.93325  0.46741  0.50051  1.0000
  C   C1638     1.0  0.80077  0.31921  0.78162  1.0000
  H   H1313     1.0  0.56764  0.38341  0.63834  1.0000
  H   H1314     1.0  0.69805  0.26610  0.97736  1.0000
  H   H1315     1.0  0.83630  0.43286  0.55709  1.0000
  H   H1316     1.0  0.97540  0.49187  0.72104  1.0000
  H   H1317     1.0  0.54663  0.31411  0.64392  1.0000
  H   H1318     1.0  0.62272  0.44564  0.70437  1.0000
  C   C1639     1.0  0.69248  0.41793  0.98337  1.0000
  H   H1319     1.0  0.72000  0.28167  0.70633  1.0000
  C   C1640     1.0  0.96184  0.42593  0.73034  1.0000
  C   C1641     1.0  0.55873  0.25831  0.78262  1.0000
  C   C1642     1.0  0.94665  0.40332  0.69420  1.0000
  C   C1643     1.0  0.94505  0.38554  0.70745  1.0000
  C   C1644     1.0  0.95175  0.38788  0.73218  1.0000
  C   C1645     1.0  0.96012  0.40801  0.74365  1.0000
  H   H1320     1.0  0.66797  0.46763  0.56860  1.0000
  H   H1321     1.0  0.81362  0.36292  0.51852  1.0000
  C   C1646     1.0  0.75299  0.27678  0.67684  1.0000
  C   C1647     1.0  0.78327  0.39710  0.70097  1.0000
  C   C1648     1.0  0.52339  0.35060  0.60527  1.0000
  H   H1322     1.0  0.89931  0.39658  0.55068  1.0000
  C   C1649     1.0  0.63102  0.47926  0.64484  1.0000
  C   C1650     1.0  0.56502  0.31353  0.71201  1.0000
  C   C1651     1.0  0.93635  0.48977  0.57092  1.0000
  C   C1652     1.0  0.92105  0.38886  0.49951  1.0000
  C   C1653     1.0  0.83464  0.40779  0.50231  1.0000
  H   H1323     1.0  0.89897  0.44604  0.74197  1.0000
  H   H1324     1.0  0.75006  0.26046  0.68057  1.0000
  H   H1325     1.0  0.99818  0.48286  0.59900  1.0000
  C   C1654     1.0  0.66410  0.36649  0.93885  1.0000
  H   H1326     1.0  0.86630  0.39318  0.53778  1.0000
  H   H1327     1.0  0.66598  0.26380  0.82584  1.0000
  H   H1328     1.0  0.85938  0.41563  0.56818  1.0000
  H   H1329     1.0  0.93856  0.36997  0.69856  1.0000
  H   H1330     1.0  0.95037  0.37406  0.74250  1.0000
  H   H1331     1.0  0.96502  0.40941  0.76283  1.0000
  H   H1332     1.0  0.69075  0.36026  0.94685  1.0000
  H   H1333     1.0  0.53705  0.36617  0.75011  1.0000
  H   H1334     1.0  0.68833  0.26290  0.86330  1.0000
  C   C1655     1.0  0.94286  0.49255  0.54609  1.0000
  C   C1656     1.0  0.72942  0.45765  0.96923  1.0000
  C   C1657     1.0  0.58755  0.27074  0.83397  1.0000
  C   C1658     1.0  0.73639  0.28406  0.74090  1.0000
  H   H1335     1.0  0.98575  0.44932  0.84820  1.0000
  C   C1659     1.0  0.85797  0.35617  0.68345  1.0000
  C   C1660     1.0  0.80719  0.38081  0.69513  1.0000
  C   C1661     1.0  0.80362  0.39896  0.69542  1.0000
  C   C1662     1.0  0.56028  0.29136  0.93550  1.0000
  C   C1663     1.0  0.55921  0.27775  0.77557  1.0000
  H   H1336     1.0  0.84010  0.35624  0.71570  1.0000
  H   H1337     1.0  0.87330  0.36392  0.69294  1.0000
  H   H1338     1.0  0.82326  0.38281  0.69137  1.0000
  H   H1339     1.0  0.81683  0.41455  0.69179  1.0000
  H   H1340     1.0  0.54908  0.32307  0.89609  1.0000
  H   H1341     1.0  0.78636  0.33964  0.79167  1.0000
  C   C1664     1.0  0.91390  0.41083  0.55500  1.0000
  C   C1665     1.0  0.60238  0.35545  0.75173  1.0000
  C   C1666     1.0  0.52160  0.47552  0.51324  1.0000
  H   H1342     1.0  0.70341  0.42796  0.61198  1.0000
  H   H1343     1.0  0.78954  0.29538  0.50723  1.0000
  C   C1667     1.0  0.64907  0.29362  0.96257  1.0000
  H   H1344     1.0  0.73694  0.49674  0.56461  1.0000
  C   C1668     1.0  0.70391  0.33604  0.98049  1.0000
  H   H1345     1.0  0.59910  0.26036  0.90391  1.0000
  P   P54       1.0  0.72894  0.26638  0.93932  1.0000
  C   C1669     1.0  0.56899  0.28746  0.75323  1.0000
  S   S250      1.0  0.62106  0.26900  0.80873  1.0000
  H   H1346     1.0  0.60566  0.32215  0.92750  1.0000
  H   H1347     1.0  0.58645  0.28497  0.72122  1.0000
  C   C1670     1.0  0.58386  0.35690  0.97669  1.0000
  H   H1348     1.0  0.51196  0.33235  0.79952  1.0000
  C   C1671     1.0  0.60738  0.42686  0.57090  1.0000
  C   C1672     1.0  0.60041  0.40587  0.57902  1.0000
  C   C1673     1.0  0.61023  0.40169  0.59950  1.0000
  C   C1674     1.0  0.62712  0.41854  0.61178  1.0000
  C   C1675     1.0  0.63452  0.43964  0.60334  1.0000
  C   C1676     1.0  0.62425  0.44367  0.58312  1.0000
  C   C1677     1.0  0.67601  0.45551  0.63051  1.0000
  C   C1678     1.0  0.64070  0.46554  0.64676  1.0000
  C   C1679     1.0  0.58989  0.29564  0.98455  1.0000
  H   H1349     1.0  0.52264  0.34351  0.71282  1.0000
  C   C1680     1.0  0.64369  0.34022  0.97893  1.0000
  H   H1350     1.0  0.82021  0.42766  0.51506  1.0000
  C   C1681     1.0  0.71102  0.44824  0.64431  1.0000
  C   C1682     1.0  0.83055  0.42036  0.51976  1.0000
  H   H1351     1.0  0.58288  0.34793  0.70734  1.0000
  H   H1352     1.0  0.80823  0.33022  0.90198  1.0000
  C   C1683     1.0  0.54443  0.29459  0.67566  1.0000
  C   C1684     1.0  0.55217  0.31918  0.76183  1.0000
  H   H1353     1.0  0.55621  0.37051  0.59529  1.0000
  H   H1354     1.0  0.78073  0.41129  0.70167  1.0000
  H   H1355     1.0  0.88647  0.26035  0.59198  1.0000
  H   H1356     1.0  0.69695  0.30868  0.89840  1.0000
  H   H1357     1.0  0.59919  0.43016  0.55564  1.0000
  H   H1358     1.0  0.58703  0.39299  0.56971  1.0000
  H   H1359     1.0  0.60442  0.38546  0.60616  1.0000
  H   H1360     1.0  0.63407  0.41518  0.62813  1.0000
  H   H1361     1.0  0.62888  0.45984  0.57721  1.0000
  C   C1685     1.0  0.74099  0.28082  0.65870  1.0000
  C   C1686     1.0  0.88181  0.48620  0.59398  1.0000
  C   C1687     1.0  0.98302  0.44971  0.82849  1.0000
  H   H1362     1.0  0.52722  0.32376  0.93209  1.0000
  C   C1688     1.0  0.52044  0.48922  0.64679  1.0000
  C   C1689     1.0  0.57816  0.25822  0.74556  1.0000
  C   C1690     1.0  0.93824  0.44825  0.54803  1.0000
  C   C1691     1.0  0.95144  0.44727  0.56721  1.0000
  C   C1692     1.0  0.57236  0.33285  0.69887  1.0000
  C   C1693     1.0  0.67276  0.27759  0.90965  1.0000
  C   C1694     1.0  0.89485  0.25973  0.57534  1.0000
  H   H1363     1.0  0.58998  0.36002  0.74676  1.0000
  H   H1364     1.0  0.74954  0.34802  0.76280  1.0000
  C   C1695     1.0  0.95489  0.42339  0.70563  1.0000
  H   H1365     1.0  0.76443  0.33510  0.66174  1.0000
  C   C1696     1.0  0.76671  0.30471  0.94170  1.0000
  H   H1366     1.0  0.73283  0.33780  0.92884  1.0000
  C   C1697     1.0  0.63832  0.36573  0.76720  1.0000
  C   C1698     1.0  0.70850  0.33427  0.95548  1.0000
  C   C1699     1.0  0.54274  0.33218  0.79942  1.0000
  C   C1700     1.0  0.64244  0.30137  0.73815  1.0000
  C   C1701     1.0  0.64590  0.31492  0.71794  1.0000
  C   C1702     1.0  0.66655  0.33096  0.71303  1.0000
  C   C1703     1.0  0.68374  0.33349  0.72836  1.0000
  C   C1704     1.0  0.68031  0.32017  0.74898  1.0000
  C   C1705     1.0  0.65951  0.30398  0.75365  1.0000
  P   P55       1.0  0.70263  0.32360  0.76871  1.0000
  C   C1706     1.0  0.69215  0.31256  0.79861  1.0000
  C   C1707     1.0  0.71635  0.30880  0.75721  1.0000
  H   H1367     1.0  0.81533  0.30041  0.76630  1.0000
  C   C1708     1.0  0.69182  0.32548  0.81840  1.0000
  C   C1709     1.0  0.68208  0.31606  0.84071  1.0000
  C   C1710     1.0  0.67272  0.29390  0.84338  1.0000
  C   C1711     1.0  0.67333  0.28103  0.82393  1.0000
  C   C1712     1.0  0.68316  0.29028  0.80174  1.0000
  C   C1713     1.0  0.72087  0.35179  0.77058  1.0000
  C   C1714     1.0  0.71298  0.36678  0.77511  1.0000
  C   C1715     1.0  0.72702  0.38868  0.77569  1.0000
  C   C1716     1.0  0.74896  0.39574  0.77166  1.0000
  C   C1717     1.0  0.75681  0.38094  0.76667  1.0000
  C   C1718     1.0  0.74290  0.35907  0.76625  1.0000
  H   H1368     1.0  0.62650  0.28887  0.74216  1.0000
  H   H1369     1.0  0.63257  0.31302  0.70615  1.0000
  H   H1370     1.0  0.69965  0.34594  0.72425  1.0000
  H   H1371     1.0  0.65614  0.29337  0.76932  1.0000
  C   C1719     1.0  0.76656  0.48499  0.97021  1.0000
  H   H1372     1.0  0.69891  0.34269  0.81685  1.0000
  H   H1373     1.0  0.68169  0.32593  0.85593  1.0000
  H   H1374     1.0  0.66493  0.28667  0.86045  1.0000
  C   C1720     1.0  0.51450  0.35127  0.64867  1.0000
  H   H1375     1.0  0.68311  0.27990  0.78678  1.0000
  H   H1376     1.0  0.69603  0.36155  0.77845  1.0000
  H   H1377     1.0  0.72094  0.40018  0.77952  1.0000
  H   H1378     1.0  0.75999  0.41265  0.77271  1.0000
  H   H1379     1.0  0.77382  0.38642  0.76346  1.0000
  C   C1721     1.0  0.74501  0.30187  0.65361  1.0000
  H   H1380     1.0  0.78548  0.29896  0.87571  1.0000
  H   H1381     1.0  0.75154  0.38710  0.91562  1.0000
  H   H1382     1.0  0.66587  0.46832  0.92798  1.0000
  H   H1383     1.0  0.95663  0.42737  0.59408  1.0000
  C   C1722     1.0  0.52205  0.38639  0.74189  1.0000
  H   H1384     1.0  0.69614  0.32993  0.94142  1.0000
  H   H1385     1.0  0.53355  0.27977  0.66668  1.0000
  C   C1723     1.0  0.53213  0.31513  0.75161  1.0000
  C   C1724     1.0  0.55717  0.32736  0.78599  1.0000
  H   H1386     1.0  0.73597  0.30503  0.63923  1.0000
  H   H1387     1.0  0.52855  0.39633  0.75820  1.0000
  C   C1725     1.0  0.81516  0.34986  0.50946  1.0000
  H   H1388     1.0  0.87823  0.45557  0.58136  1.0000
  H   H1389     1.0  0.70238  0.30345  0.72046  1.0000
  C   C1726     1.0  0.93110  0.44900  0.74297  1.0000
  H   H1390     1.0  0.92587  0.43318  0.75075  1.0000
  H   H1391     1.0  0.92381  0.39505  0.58283  1.0000
  H   H1392     1.0  0.97144  0.44959  0.51338  1.0000
  C   C1727     1.0  0.66289  0.44282  0.90346  1.0000
  H   H1393     1.0  0.53443  0.48696  0.65119  1.0000
  C   C1728     1.0  0.69911  0.43839  0.62310  1.0000
  C   C1729     1.0  0.74339  0.39574  0.92354  1.0000
  C   C1730     1.0  0.83907  0.35179  0.69632  1.0000
  H   H1394     1.0  0.90589  0.35928  0.51971  1.0000
  H   H1395     1.0  0.92039  0.29161  0.58040  1.0000
  C   C1731     1.0  0.73498  0.25914  0.82811  1.0000
  H   H1396     1.0  0.90684  0.47200  0.51570  1.0000
  H   H1397     1.0  0.94149  0.40165  0.67501  1.0000
  C   C1732     1.0  0.73989  0.41047  0.90922  1.0000
  C   C1733     1.0  0.66883  0.25800  0.92033  1.0000
  C   C1734     1.0  0.58926  0.36722  0.95349  1.0000
  C   C1735     1.0  0.60940  0.48436  0.56648  1.0000
  H   H1398     1.0  0.52555  0.30280  0.96975  1.0000
  H   H1399     1.0  0.59614  0.46943  0.57203  1.0000
  C   C1736     1.0  0.87903  0.47078  0.57594  1.0000
  C   C1737     1.0  0.73622  0.39198  0.94797  1.0000
  C   C1738     1.0  0.79030  0.36057  0.70016  1.0000
  C   C1739     1.0  0.76986  0.35880  0.70567  1.0000
  C   C1740     1.0  0.72928  0.42153  0.91940  1.0000
  C   C1741     1.0  0.72535  0.40274  0.95811  1.0000
  H   H1400     1.0  0.67289  0.43466  0.59938  1.0000
  H   H1401     1.0  0.76173  0.27002  0.97554  1.0000
  H   H1402     1.0  0.62572  0.38803  0.75897  1.0000
  C   C1742     1.0  0.62291  0.28767  0.88525  1.0000
  P   P56       1.0  0.57116  0.31332  0.74463  1.0000
  H   H1403     1.0  0.61625  0.47098  0.53355  1.0000
  C   C1743     1.0  0.90346  0.37117  0.50911  1.0000
  C   C1744     1.0  0.81920  0.34247  0.68404  1.0000
  C   C1745     1.0  0.56573  0.33300  0.67444  1.0000
  C   C1746     1.0  0.72151  0.41742  0.94381  1.0000
  C   C1747     1.0  0.91579  0.45626  0.73805  1.0000
  H   H1404     1.0  0.93710  0.39057  0.50262  1.0000
  C   C1748     1.0  0.61054  0.31235  0.91606  1.0000
  C   C1749     1.0  0.62081  0.48527  0.54468  1.0000
  C   C1750     1.0  0.63763  0.45338  0.66835  1.0000
  C   C1751     1.0  0.62561  0.45547  0.68799  1.0000
  H   H1405     1.0  0.78284  0.49127  0.96327  1.0000
  C   C1752     1.0  0.53615  0.36504  0.65369  1.0000
  C   C1753     1.0  0.83752  0.34234  0.64578  1.0000
  H   H1406     1.0  0.91004  0.48179  0.72331  1.0000
  H   H1407     1.0  0.66203  0.40632  0.96385  1.0000
  C   C1754     1.0  0.79323  0.31791  0.90908  1.0000
  C   C1755     1.0  0.55120  0.37187  0.63451  1.0000
  C   C1756     1.0  0.76102  0.31889  0.66664  1.0000
  C   C1757     1.0  0.73002  0.30465  0.77312  1.0000
  P   P57       1.0  0.70884  0.43255  0.95747  1.0000
  H   H1408     1.0  0.63534  0.37067  0.93521  1.0000
  H   H1409     1.0  0.73276  0.31066  0.79202  1.0000
  P   P58       1.0  0.79481  0.33704  0.70063  1.0000
  C   C1758     1.0  0.87711  0.47497  0.55086  1.0000
  C   C1759     1.0  0.52699  0.46397  0.49571  1.0000
  H   H1410     1.0  0.69119  0.46363  0.95618  1.0000
  H   H1411     1.0  0.54611  0.28184  0.97185  1.0000
  H   H1412     1.0  0.50302  0.48543  0.58795  1.0000
  H   H1413     1.0  0.68766  0.41116  0.91060  1.0000
  H   H1414     1.0  0.78694  0.32613  0.52736  1.0000
  C   C1760     1.0  0.69182  0.43728  0.93546  1.0000
  C   C1761     1.0  0.68345  0.42394  0.91462  1.0000
  C   C1762     1.0  0.63915  0.27170  0.95733  1.0000
  C   C1763     1.0  0.79026  0.33878  0.75211  1.0000
  H   H1415     1.0  0.78381  0.35000  0.74892  1.0000
  H   H1416     1.0  0.96602  0.46121  0.57240  1.0000
  C   C1764     1.0  0.92479  0.27671  0.54735  1.0000
  C   C1765     1.0  0.66918  0.42681  0.89864  1.0000
  C   C1766     1.0  0.61633  0.46946  0.68608  1.0000
  C   C1767     1.0  0.97602  0.45095  0.77740  1.0000
  H   H1417     1.0  0.73927  0.38084  0.95917  1.0000
  C   C1768     1.0  0.80135  0.31162  0.50329  1.0000
  P   P59       1.0  0.94739  0.47232  0.52978  1.0000
  C   C1769     1.0  0.81857  0.33794  0.65859  1.0000
  P   P60       1.0  0.65470  0.46161  0.62065  1.0000
  H   H1418     1.0  0.63218  0.48789  0.62788  1.0000
  S   S251      1.0  0.88448  0.48146  0.62567  1.0000
  C   C1770     1.0  0.61911  0.48141  0.66453  1.0000
  H   H1419     1.0  0.74533  0.41316  0.89017  1.0000
  H   H1420     1.0  0.93358  0.47536  0.58083  1.0000
  C   C1771     1.0  0.83953  0.42326  0.54345  1.0000
  H   H1421     1.0  0.90847  0.43030  0.52794  1.0000
  C   C1772     1.0  0.62258  0.37136  0.75881  1.0000
  C   C1773     1.0  0.78041  0.30033  0.89433  1.0000
  P   P61       1.0  0.97229  0.45213  0.74442  1.0000
  H   H1422     1.0  0.61063  0.31175  0.76299  1.0000
  C   C1774     1.0  0.57842  0.27751  0.73824  1.0000
  C   C1775     1.0  0.98291  0.46555  0.51907  1.0000
  H   H1423     1.0  0.64635  0.30433  0.95021  1.0000
  H   H1424     1.0  0.74803  0.25787  0.81860  1.0000
  C   C1776     1.0  0.76894  0.29376  0.69000  1.0000
  H   H1425     1.0  0.83708  0.33921  0.62604  1.0000
  C   C1777     1.0  0.68547  0.45341  0.94006  1.0000
  H   H1426     1.0  0.96404  0.33326  0.49587  1.0000
  C   C1778     1.0  0.96233  0.45376  0.79457  1.0000
  H   H1427     1.0  0.75105  0.27152  0.89133  1.0000
  C   C1779     1.0  0.51767  0.31986  0.76516  1.0000
  C   C1780     1.0  0.87839  0.49473  0.54345  1.0000
  C   C1781     1.0  0.75401  0.28663  0.92732  1.0000
  H   H1428     1.0  0.64596  0.33983  0.77537  1.0000
  C   C1782     1.0  0.71093  0.29021  0.91588  1.0000
  H   H1429     1.0  0.57217  0.32986  0.79460  1.0000
  H   H1430     1.0  0.80148  0.49122  0.49582  1.0000
  H   H1431     1.0  0.50756  0.45091  0.58013  1.0000
  C   C1783     1.0  0.79743  0.33041  0.73244  1.0000
  H   H1432     1.0  0.75024  0.28899  0.77755  1.0000
  H   H1433     1.0  0.56006  0.27237  0.85039  1.0000
  C   C1784     1.0  0.91406  0.27731  0.56894  1.0000
  C   C1785     1.0  0.60661  0.27766  0.90264  1.0000
  C   C1786     1.0  0.76637  0.37701  0.70599  1.0000
  C   C1787     1.0  0.71299  0.30066  0.73297  1.0000
  H   H1434     1.0  0.56315  0.25779  0.88875  1.0000
  C   C1788     1.0  0.53522  0.30264  0.95411  1.0000
  C   C1789     1.0  0.91915  0.42997  0.54229  1.0000
  H   H1435     1.0  0.65360  0.37802  0.77386  1.0000
  Fe  Fe128     1.0  0.89071  0.30902  0.51043  1.0000
  H   H1436     1.0  0.65944  0.28027  0.90324  1.0000
  C   C1790     1.0  0.80660  0.31661  0.73777  1.0000
  C   C1791     1.0  0.79187  0.33312  0.77654  1.0000
  C   C1792     1.0  0.59788  0.33378  0.75228  1.0000
  H   H1437     1.0  0.54440  0.27933  0.71002  1.0000
  C   C1793     1.0  0.97587  0.48070  0.52634  1.0000
  C   C1794     1.0  0.64260  0.25754  0.97273  1.0000
  H   H1438     1.0  0.63494  0.33952  0.89742  1.0000
  C   C1795     1.0  0.76084  0.28475  0.90334  1.0000
  H   H1439     1.0  0.71489  0.46958  0.67491  1.0000
  H   H1440     1.0  0.57128  0.34804  0.66460  1.0000
  C   C1796     1.0  0.56037  0.30250  0.91388  1.0000
  C   C1797     1.0  0.68824  0.46560  0.65157  1.0000
  H   H1441     1.0  0.94908  0.45667  0.78855  1.0000
  C   C1798     1.0  0.72918  0.33815  0.94828  1.0000
  C   C1799     1.0  0.63304  0.30994  0.88328  1.0000
  C   C1800     1.0  0.55087  0.29439  0.70017  1.0000
  C   C1801     1.0  0.64343  0.36304  0.94548  1.0000
  H   H1442     1.0  0.64513  0.31763  0.86923  1.0000
  C   C1802     1.0  0.66438  0.34344  0.97226  1.0000
  H   H1443     1.0  0.75068  0.37563  0.71063  1.0000
  H   H1444     1.0  0.67197  0.37655  0.92323  1.0000
  H   H1445     1.0  0.51673  0.42762  0.55246  1.0000
  H   H1446     1.0  0.51914  0.47045  0.53241  1.0000
  C   C1803     1.0  0.80820  0.31101  0.76226  1.0000
  H   H1447     1.0  0.87465  0.46284  0.53709  1.0000
  H   H1448     1.0  0.80198  0.31491  0.80064  1.0000
  C   C1804     1.0  0.98012  0.48539  0.66110  1.0000
  C   C1805     1.0  0.99325  0.44756  0.78610  1.0000
  H   H1449     1.0  0.64399  0.44186  0.66984  1.0000
  C   C1806     1.0  0.54851  0.31415  0.91270  1.0000
  C   C1807     1.0  0.54480  0.36466  0.61032  1.0000
  C   C1808     1.0  0.62713  0.32227  0.89901  1.0000
  C   C1809     1.0  0.95289  0.46198  0.73774  1.0000
  C   C1810     1.0  0.54704  0.29093  0.95532  1.0000
  C   C1811     1.0  0.61381  0.32828  0.76087  1.0000
  C   C1812     1.0  0.74523  0.34285  0.96607  1.0000
  C   C1813     1.0  0.69381  0.29362  0.90719  1.0000
  C   C1814     1.0  0.53613  0.31442  0.93291  1.0000
  C   C1815     1.0  0.51355  0.37191  0.53909  1.0000
  C   C1816     1.0  0.92760  0.40987  0.57331  1.0000
  C   C1817     1.0  0.96584  0.45311  0.82000  1.0000
  C   C1818     1.0  0.59960  0.28994  0.91735  1.0000
  H   H1450     1.0  0.75675  0.34339  0.71018  1.0000
  H   H1451     1.0  0.56970  0.30236  0.89791  1.0000
  P   P62       1.0  0.57667  0.27741  0.93758  1.0000
  H   H1452     1.0  0.50659  0.40487  0.72817  1.0000
  H   H1453     1.0  0.66274  0.41639  0.88264  1.0000
  C   C1819     1.0  0.67107  0.45615  0.92411  1.0000
  C   C1820     1.0  0.94624  0.42811  0.57955  1.0000
  C   C1821     1.0  0.78638  0.32002  0.93277  1.0000
  H   H1454     1.0  0.58251  0.49680  0.52436  1.0000
  C   C1822     1.0  0.52672  0.36924  0.73739  1.0000
  H   H1455     1.0  0.65138  0.44467  0.89143  1.0000
  H   H1456     1.0  0.72718  0.43326  0.90816  1.0000
  C   C1823     1.0  0.63395  0.34420  0.76816  1.0000
  H   H1457     1.0  0.72711  0.30270  0.91356  1.0000
  H   H1458     1.0  0.52905  0.45034  0.50191  1.0000
  C   C1824     1.0  0.85693  0.40127  0.53220  1.0000
  H   H1459     1.0  0.58127  0.25366  0.83641  1.0000
  H   H1460     1.0  0.60646  0.47053  0.70101  1.0000
  C   C1825     1.0  0.70560  0.46187  0.65851  1.0000
  H   H1461     1.0  0.57386  0.33981  0.97742  1.0000
  H   H1462     1.0  0.51835  0.34548  0.58636  1.0000
  C   C1826     1.0  0.72298  0.28829  0.72488  1.0000
  H   H1463     1.0  0.95525  0.45534  0.83316  1.0000
  H   H1464     1.0  0.79622  0.33377  0.94407  1.0000
  C   C1827     1.0  0.70116  0.26194  0.85298  1.0000
  C   C1828     1.0  0.67467  0.35693  0.95227  1.0000
  H   H1465     1.0  0.62877  0.26559  0.94129  1.0000
  C   C1829     1.0  0.85272  0.41372  0.54964  1.0000
  C   C1830     1.0  0.50823  0.34410  0.62428  1.0000
  C   C1831     1.0  0.68171  0.44208  0.61612  1.0000
  H   H1466     1.0  0.77601  0.40717  0.97424  1.0000
  C   C1832     1.0  0.88265  0.36860  0.50487  1.0000
  C   C1833     1.0  0.72962  0.26749  0.97287  1.0000
  C   C1834     1.0  0.92203  0.47639  0.72751  1.0000
  C   C1835     1.0  0.74801  0.26939  0.98562  1.0000
  C   C1836     1.0  0.79988  0.32893  0.51457  1.0000
  C   C1837     1.0  0.84835  0.39861  0.50821  1.0000
  H   H1467     1.0  0.58661  0.30862  0.97843  1.0000
  H   H1468     1.0  0.92443  0.25919  0.51484  1.0000
  C   C1838     1.0  0.51857  0.35652  0.71624  1.0000
  C   C1839     1.0  0.91605  0.25878  0.53178  1.0000
  C   C1840     1.0  0.78449  0.39748  0.97395  1.0000
  H   H1469     1.0  0.76150  0.30719  0.95979  1.0000
  C   C1841     1.0  0.94356  0.48913  0.72150  1.0000
  H   H1470     1.0  0.75483  0.45802  0.94567  1.0000
  H   H1471     1.0  0.68531  0.49965  0.54258  1.0000
  C   C1842     1.0  0.66797  0.48525  0.60175  1.0000
  H   H1472     1.0  0.96984  0.49479  0.59976  1.0000
  C   C1843     1.0  0.50959  0.39113  0.72501  1.0000
  H   H1473     1.0  0.72450  0.44538  0.64971  1.0000
  C   C1844     1.0  0.95896  0.48195  0.72647  1.0000
  C   C1845     1.0  0.59233  0.26261  0.97684  1.0000
  C   C1846     1.0  0.58692  0.27860  0.96857  1.0000
  S   S252      1.0  0.89215  0.27949  0.49576  1.0000
  C   C1847     1.0  0.83223  0.35366  0.49314  1.0000
  C   C1848     1.0  0.50134  0.37840  0.70388  1.0000
  H   H1474     1.0  0.96464  0.48484  0.66492  1.0000
  H   H1475     1.0  0.93951  0.29050  0.54218  1.0000
  S   S253      1.0  0.87524  0.49873  0.51168  1.0000
  C   C1849     1.0  0.50132  0.37881  0.57850  1.0000
  H   H1476     1.0  0.50233  0.31693  0.75718  1.0000
  H   H1477     1.0  0.61744  0.34754  0.97112  1.0000
  H   H1478     1.0  0.72012  0.39946  0.97710  1.0000
  H   H1479     1.0  0.72874  0.26765  0.64840  1.0000
  C   C1850     1.0  0.50114  0.47164  0.64040  1.0000
  H   H1480     1.0  0.71502  0.48614  0.60256  1.0000
  C   C1851     1.0  0.50554  0.36082  0.69949  1.0000
  C   C1852     1.0  0.87918  0.38377  0.49122  1.0000
  C   C1853     1.0  0.91357  0.46839  0.49930  1.0000
  H   H1481     1.0  0.76127  0.34590  0.96044  1.0000
  H   H1482     1.0  0.86930  0.35468  0.51210  1.0000
  C   C1854     1.0  0.81818  0.31521  0.48705  1.0000
  C   C1855     1.0  0.99101  0.50079  0.53508  1.0000
  S   S254      1.0  0.86189  0.30378  0.48774  1.0000
  C   C1856     1.0  0.51976  0.49381  0.50621  1.0000
  H   H1483     1.0  0.82807  0.47711  0.50211  1.0000
  H   H1484     1.0  0.60904  0.48850  0.49058  1.0000
  P   P63       1.0  0.85224  0.38079  0.48670  1.0000
  C   C1857     1.0  0.99849  0.46962  0.73230  1.0000
  C   C1858     1.0  0.99875  0.34847  0.49220  1.0000
  C   C1859     1.0  0.99672  0.44695  0.81154  1.0000
  C   C1860     1.0  0.66254  0.30143  0.98336  1.0000
  C   C1861     1.0  0.50020  0.42496  0.55422  1.0000
  C   C1862     1.0  0.50831  0.50010  0.57748  1.0000
  C   C1863     1.0  0.68282  0.50140  0.56209  1.0000
  S   S255      1.0  0.60241  0.50130  0.60978  1.0000
  C   C1864     1.0  0.91781  0.40413  0.48587  1.0000
  Fe  Fe129     1.0  0.89528  0.55113  0.44353  1.0000
  S   S256      1.0  0.90186  0.54705  0.40342  1.0000
  S   S257      1.0  0.90134  0.58366  0.45752  1.0000
  Fe  Fe130     1.0  0.54380  0.65054  0.44315  1.0000
  S   S258      1.0  0.57277  0.67784  0.42695  1.0000
  C   C1865     1.0  0.97517  0.71024  0.45432  1.0000
  H   H1485     1.0  0.56456  0.52280  0.41002  1.0000
  H   H1486     1.0  0.56602  0.59585  0.18206  1.0000
  H   H1487     1.0  0.57659  0.51522  0.45000  1.0000
  C   C1866     1.0  0.51385  0.50414  0.30386  1.0000
  C   C1867     1.0  0.94994  0.56870  0.35917  1.0000
  Fe  Fe131     1.0  0.67494  0.54869  0.43382  1.0000
  S   S259      1.0  0.69836  0.58264  0.44354  1.0000
  S   S260      1.0  0.66369  0.53988  0.39419  1.0000
  C   C1868     1.0  0.62800  0.64117  0.45301  1.0000
  H   H1488     1.0  0.55613  0.54051  0.33999  1.0000
  C   C1869     1.0  0.64952  0.62133  0.44821  1.0000
  C   C1870     1.0  0.64085  0.63463  0.43846  1.0000
  H   H1489     1.0  0.65969  0.61691  0.43684  1.0000
  H   H1490     1.0  0.64449  0.64022  0.41960  1.0000
  S   S261      1.0  0.51367  0.62459  0.42549  1.0000
  H   H1491     1.0  0.55612  0.57461  0.31088  1.0000
  C   C1871     1.0  0.52427  0.62616  0.37562  1.0000
  C   C1872     1.0  0.98395  0.54659  0.30836  1.0000
  C   C1873     1.0  0.77876  0.55817  0.46897  1.0000
  H   H1492     1.0  0.79422  0.61061  0.48127  1.0000
  H   H1493     1.0  0.53772  0.64150  0.37947  1.0000
  C   C1874     1.0  0.56454  0.70159  0.35422  1.0000
  H   H1494     1.0  0.83726  0.55864  0.14376  1.0000
  H   H1495     1.0  0.85441  0.52936  0.40356  1.0000
  H   H1496     1.0  0.84515  0.54152  0.10743  1.0000
  C   C1875     1.0  0.54987  0.56515  0.29421  1.0000
  C   C1876     1.0  0.51090  0.61436  0.39495  1.0000
  H   H1497     1.0  0.94278  0.51863  0.42783  1.0000
  H   H1498     1.0  0.56422  0.53969  0.24956  1.0000
  C   C1877     1.0  0.63020  0.71565  0.43047  1.0000
  C   C1878     1.0  0.56232  0.55746  0.28113  1.0000
  C   C1879     1.0  0.93973  0.65209  0.47186  1.0000
  Fe  Fe132     1.0  0.87051  0.56604  0.47942  1.0000
  C   C1880     1.0  0.83200  0.53207  0.11969  1.0000
  H   H1499     1.0  0.96711  0.60081  0.45330  1.0000
  C   C1881     1.0  0.52120  0.54845  0.26422  1.0000
  H   H1500     1.0  0.63957  0.52012  0.35036  1.0000
  H   H1501     1.0  0.50543  0.52316  0.17274  1.0000
  S   S262      1.0  0.56612  0.73007  0.45670  1.0000
  S   S263      1.0  0.86384  0.53390  0.46334  1.0000
  H   H1502     1.0  0.99322  0.50987  0.31986  1.0000
  C   C1882     1.0  0.95954  0.51628  0.35982  1.0000
  C   C1883     1.0  0.93778  0.57909  0.35181  1.0000
  C   C1884     1.0  0.94549  0.59482  0.33354  1.0000
  C   C1885     1.0  0.89460  0.52033  0.39491  1.0000
  C   C1886     1.0  0.98682  0.67481  0.47874  1.0000
  H   H1503     1.0  0.77412  0.51033  0.99693  1.0000
  Fe  Fe133     1.0  0.67495  0.57922  0.47431  1.0000
  S   S264      1.0  0.75109  0.57835  0.47249  1.0000
  H   H1504     1.0  0.98282  0.74370  0.45256  1.0000
  H   H1505     1.0  0.90582  0.52806  0.35734  1.0000
  C   C1887     1.0  0.82754  0.54172  0.14014  1.0000
  S   S265      1.0  0.91469  0.54555  0.47302  1.0000
  H   H1506     1.0  0.82950  0.61051  0.48508  1.0000
  C   C1888     1.0  0.54093  0.57411  0.15809  1.0000
  C   C1889     1.0  0.81553  0.59576  0.48050  1.0000
  C   C1890     1.0  0.84076  0.56970  0.41346  1.0000
  H   H1507     1.0  0.87094  0.56848  0.40894  1.0000
  H   H1508     1.0  0.52824  0.57805  0.45515  1.0000
  C   C1891     1.0  0.63357  0.50853  0.36511  1.0000
  H   H1509     1.0  0.84809  0.58681  0.41682  1.0000
  C   C1892     1.0  0.51096  0.57195  0.45402  1.0000
  H   H1510     1.0  0.94914  0.67369  0.40883  1.0000
  C   C1893     1.0  0.96994  0.57393  0.34817  1.0000
  C   C1894     1.0  0.81953  0.51024  0.11497  1.0000
  H   H1511     1.0  0.94330  0.59914  0.40912  1.0000
  C   C1895     1.0  0.51983  0.61829  0.35113  1.0000
  C   C1896     1.0  0.81788  0.57701  0.47690  1.0000
  C   C1897     1.0  0.58430  0.54624  0.46548  1.0000
  C   C1898     1.0  0.50670  0.54467  0.35552  1.0000
  S   S266      1.0  0.84445  0.57853  0.48064  1.0000
  P   P64       1.0  0.59338  0.73933  0.37770  1.0000
  C   C1899     1.0  0.53355  0.54062  0.25096  1.0000
  C   C1900     1.0  0.89825  0.51539  0.37069  1.0000
  C   C1901     1.0  0.62306  0.73026  0.43899  1.0000
  C   C1902     1.0  0.97761  0.58981  0.32984  1.0000
  H   H1512     1.0  0.51472  0.66308  0.36933  1.0000
  C   C1903     1.0  0.88481  0.50386  0.41204  1.0000
  H   H1513     1.0  0.59269  0.57897  0.47500  1.0000
  C   C1904     1.0  0.99234  0.54241  0.28663  1.0000
  C   C1905     1.0  0.96543  0.60021  0.32259  1.0000
  H   H1514     1.0  0.88205  0.50755  0.43079  1.0000
  C   C1906     1.0  0.82175  0.52513  0.40665  1.0000
  C   C1907     1.0  0.53280  0.69196  0.39027  1.0000
  H   H1515     1.0  0.97262  0.61523  0.37838  1.0000
  H   H1516     1.0  0.54285  0.67149  0.33743  1.0000
  H   H1517     1.0  0.93598  0.60278  0.32784  1.0000
  H   H1518     1.0  0.94345  0.55656  0.37331  1.0000
  H   H1519     1.0  0.53001  0.62760  0.33618  1.0000
  C   C1908     1.0  0.52389  0.55363  0.15555  1.0000
  C   C1909     1.0  0.64587  0.61464  0.47295  1.0000
  C   C1910     1.0  0.55425  0.54531  0.25954  1.0000
  H   H1520     1.0  0.72609  0.51402  0.16641  1.0000
  C   C1911     1.0  0.96782  0.65016  0.43201  1.0000
  H   H1521     1.0  0.62538  0.73530  0.45822  1.0000
  C   C1912     1.0  0.53042  0.54482  0.19723  1.0000
  H   H1522     1.0  0.50527  0.54520  0.25807  1.0000
  C   C1913     1.0  0.71953  0.50430  0.18274  1.0000
  C   C1914     1.0  0.55193  0.71090  0.39198  1.0000
  H   H1523     1.0  0.63153  0.69675  0.39965  1.0000
  S   S267      1.0  0.61919  0.65972  0.44041  1.0000
  C   C1915     1.0  0.85360  0.55938  0.40916  1.0000
  Fe  Fe134     1.0  0.71405  0.56756  0.46884  1.0000
  C   C1916     1.0  0.96576  0.69033  0.44212  1.0000
  H   H1524     1.0  0.94043  0.62101  0.44334  1.0000
  H   H1525     1.0  0.80857  0.56583  0.41830  1.0000
  C   C1917     1.0  0.60661  0.74783  0.34826  1.0000
  C   C1918     1.0  0.98597  0.64659  0.39510  1.0000
  C   C1919     1.0  0.79801  0.50771  0.15120  1.0000
  H   H1526     1.0  0.96328  0.51520  0.34062  1.0000
  C   C1920     1.0  0.94793  0.51784  0.40907  1.0000
  C   C1921     1.0  0.58539  0.56638  0.46126  1.0000
  C   C1922     1.0  0.95663  0.68889  0.41855  1.0000
  H   H1527     1.0  0.79173  0.52669  0.41325  1.0000
  C   C1923     1.0  0.56948  0.53480  0.42452  1.0000
  C   C1924     1.0  0.57026  0.55493  0.42011  1.0000
  C   C1925     1.0  0.57827  0.57073  0.43875  1.0000
  P   P65       1.0  0.56473  0.56132  0.38933  1.0000
  C   C1926     1.0  0.57323  0.58979  0.38801  1.0000
  C   C1927     1.0  0.58045  0.55347  0.36874  1.0000
  C   C1928     1.0  0.60086  0.55616  0.37624  1.0000
  C   C1929     1.0  0.61226  0.54820  0.36166  1.0000
  C   C1930     1.0  0.60353  0.53771  0.33936  1.0000
  C   C1931     1.0  0.92088  0.65206  0.46254  1.0000
  C   C1932     1.0  0.57190  0.54313  0.34614  1.0000
  C   C1933     1.0  0.55984  0.59820  0.39764  1.0000
  C   C1934     1.0  0.56714  0.62032  0.39929  1.0000
  C   C1935     1.0  0.58768  0.63421  0.39105  1.0000
  C   C1936     1.0  0.60107  0.62599  0.38138  1.0000
  C   C1937     1.0  0.59393  0.60385  0.37990  1.0000
  C   C1938     1.0  0.53659  0.54722  0.38101  1.0000
  C   C1939     1.0  0.52332  0.52704  0.39101  1.0000
  C   C1940     1.0  0.95696  0.70706  0.40737  1.0000
  C   C1941     1.0  0.96886  0.53582  0.37278  1.0000
  C   C1942     1.0  0.95469  0.61596  0.41047  1.0000
  C   C1943     1.0  0.52806  0.55595  0.36321  1.0000
  C   C1944     1.0  0.50192  0.59871  0.34581  1.0000
  H   H1528     1.0  0.96975  0.55135  0.40788  1.0000
  C   C1945     1.0  0.96320  0.53637  0.39767  1.0000
  H   H1529     1.0  0.55705  0.57027  0.21643  1.0000
  H   H1530     1.0  0.58013  0.58678  0.43575  1.0000
  H   H1531     1.0  0.60785  0.56400  0.39363  1.0000
  H   H1532     1.0  0.62777  0.54985  0.36792  1.0000
  H   H1533     1.0  0.50711  0.54937  0.42494  1.0000
  H   H1534     1.0  0.61220  0.53118  0.32831  1.0000
  C   C1946     1.0  0.84416  0.53718  0.40595  1.0000
  H   H1535     1.0  0.54398  0.58776  0.40458  1.0000
  H   H1536     1.0  0.55706  0.62673  0.40756  1.0000
  H   H1537     1.0  0.59349  0.65136  0.39296  1.0000
  H   H1538     1.0  0.61728  0.63684  0.37586  1.0000
  H   H1539     1.0  0.60484  0.59789  0.37309  1.0000
  C   C1947     1.0  0.96641  0.72680  0.41961  1.0000
  S   S268      1.0  0.69167  0.53395  0.45686  1.0000
  H   H1540     1.0  0.57823  0.56092  0.28772  1.0000
  Fe  Fe135     1.0  0.57045  0.69859  0.45857  1.0000
  H   H1541     1.0  0.53791  0.57140  0.35499  1.0000
  H   H1542     1.0  0.55446  0.72135  0.40773  1.0000
  H   H1543     1.0  0.51465  0.54909  0.13852  1.0000
  C   C1948     1.0  0.52933  0.56064  0.28575  1.0000
  H   H1544     1.0  0.63807  0.70931  0.44305  1.0000
  H   H1545     1.0  0.82317  0.50326  0.09883  1.0000
  C   C1949     1.0  0.81051  0.52956  0.15585  1.0000
  H   H1546     1.0  0.76463  0.54364  0.46430  1.0000
  H   H1547     1.0  0.52940  0.51980  0.40454  1.0000
  P   P66       1.0  0.98585  0.56054  0.35713  1.0000
  H   H1548     1.0  0.52085  0.68795  0.40468  1.0000
  C   C1950     1.0  0.57645  0.53048  0.44712  1.0000
  S   S269      1.0  0.65118  0.54596  0.46313  1.0000
  C   C1951     1.0  0.62652  0.70859  0.40589  1.0000
  C   C1952     1.0  0.77656  0.57706  0.47303  1.0000
  Fe  Fe136     1.0  0.59164  0.66713  0.45341  1.0000
  H   H1549     1.0  0.88642  0.63894  0.46603  1.0000
  C   C1953     1.0  0.98111  0.60994  0.46455  1.0000
  H   H1550     1.0  0.97139  0.61236  0.30835  1.0000
  C   C1954     1.0  0.95305  0.62846  0.42988  1.0000
  H   H1551     1.0  0.80052  0.54344  0.46788  1.0000
  C   C1955     1.0  0.54763  0.56538  0.19958  1.0000
  H   H1552     1.0  0.92136  0.66163  0.44666  1.0000
  C   C1956     1.0  0.64263  0.51407  0.38888  1.0000
  C   C1957     1.0  0.61573  0.71615  0.38980  1.0000
  H   H1553     1.0  0.85303  0.50350  0.32928  1.0000
  C   C1958     1.0  0.97549  0.72838  0.44306  1.0000
  C   C1959     1.0  0.52941  0.67794  0.37042  1.0000
  P   P67       1.0  0.52343  0.52588  0.22234  1.0000
  C   C1960     1.0  0.79534  0.59582  0.47836  1.0000
  H   H1554     1.0  0.96694  0.54222  0.30918  1.0000
  C   C1961     1.0  0.99724  0.55568  0.32906  1.0000
  C   C1962     1.0  0.51866  0.53901  0.17500  1.0000
  H   H1555     1.0  0.54491  0.58546  0.14305  1.0000
  C   C1963     1.0  0.79922  0.55812  0.47089  1.0000
  C   C1964     1.0  0.97121  0.62500  0.39318  1.0000
  H   H1556     1.0  0.61249  0.71008  0.37100  1.0000
  C   C1965     1.0  0.81845  0.55783  0.41435  1.0000
  C   C1966     1.0  0.53520  0.50782  0.21689  1.0000
  P   P68       1.0  0.96517  0.66669  0.45633  1.0000
  H   H1557     1.0  0.80700  0.53706  0.17165  1.0000
  C   C1967     1.0  0.80895  0.53559  0.41127  1.0000
  H   H1558     1.0  0.51964  0.56660  0.29584  1.0000
  S   S270      1.0  0.56250  0.63908  0.46761  1.0000
  H   H1559     1.0  0.57666  0.52703  0.31432  1.0000
  C   C1968     1.0  0.50195  0.51577  0.38320  1.0000
  C   C1969     1.0  0.55282  0.57996  0.18007  1.0000
  C   C1970     1.0  0.58348  0.53537  0.33151  1.0000
  H   H1560     1.0  0.94987  0.70582  0.38920  1.0000
  C   C1971     1.0  0.54530  0.68272  0.35243  1.0000
  H   H1561     1.0  0.57695  0.70460  0.34061  1.0000
  C   C1972     1.0  0.98415  0.65919  0.41427  1.0000
  C   C1973     1.0  0.72922  0.51154  0.20582  1.0000
  H   H1562     1.0  0.92228  0.57480  0.36031  1.0000
  H   H1563     1.0  0.52777  0.51908  0.30776  1.0000
  C   C1974     1.0  0.60867  0.73098  0.39818  1.0000
  C   C1975     1.0  0.56780  0.71607  0.37377  1.0000
  S   S271      1.0  0.54014  0.67128  0.47280  1.0000
  H   H1564     1.0  0.53879  0.51264  0.17717  1.0000
  H   H1565     1.0  0.74324  0.52692  0.20744  1.0000
  H   H1566     1.0  0.83717  0.51704  0.36141  1.0000
  C   C1976     1.0  0.90101  0.63921  0.47344  1.0000
  H   H1567     1.0  0.98178  0.53456  0.27114  1.0000
  C   C1977     1.0  0.62358  0.63371  0.47741  1.0000
  H   H1568     1.0  0.96667  0.74088  0.41094  1.0000
  H   H1569     1.0  0.99301  0.59411  0.32113  1.0000
  H   H1570     1.0  0.72831  0.50455  0.24476  1.0000
  S   S272      1.0  0.59186  0.69009  0.48338  1.0000
  C   C1978     1.0  0.61221  0.73778  0.42299  1.0000
  H   H1571     1.0  0.98232  0.71193  0.47246  1.0000
  C   C1979     1.0  0.54087  0.50427  0.19294  1.0000
  H   H1572     1.0  0.78440  0.50664  0.36967  1.0000
  H   H1573     1.0  0.57797  0.74471  0.32928  1.0000
  H   H1574     1.0  0.59027  0.54313  0.48265  1.0000
  H   H1575     1.0  0.60611  0.74840  0.43029  1.0000
  H   H1576     1.0  0.50393  0.69733  0.48244  1.0000
  C   C1980     1.0  0.50066  0.58077  0.46906  1.0000
  H   H1577     1.0  0.50030  0.55150  0.34169  1.0000
  H   H1578     1.0  0.52257  0.51522  0.47643  1.0000
  H   H1579     1.0  0.64189  0.50304  0.42620  1.0000
  C   C1981     1.0  0.74544  0.50182  0.48437  1.0000
  H   H1580     1.0  0.99560  0.67596  0.41540  1.0000
  H   H1581     1.0  0.99888  0.65357  0.38179  1.0000
  H   H1582     1.0  0.55754  0.75107  0.37800  1.0000
  C   C1982     1.0  0.59496  0.74918  0.32768  1.0000
  H   H1583     1.0  0.50995  0.59369  0.48181  1.0000
  C   C1983     1.0  0.63253  0.52192  0.57378  1.0000
  H   H1584     1.0  0.57182  0.59901  0.49211  1.0000
  H   H1585     1.0  0.70241  0.51016  0.49964  1.0000
  H   H1586     1.0  0.60814  0.57426  0.54102  1.0000
  H   H1587     1.0  0.76391  0.60322  0.52395  1.0000
  C   C1984     1.0  0.57680  0.61442  0.55245  1.0000
  H   H1588     1.0  0.53556  0.68101  0.52693  1.0000
  C   C1985     1.0  0.50763  0.64827  0.70957  1.0000
  S   S273      1.0  0.88925  0.56247  0.51228  1.0000
  C   C1986     1.0  0.50632  0.60522  0.57166  1.0000
  H   H1589     1.0  0.83914  0.54133  0.51888  1.0000
  S   S274      1.0  0.55557  0.65306  0.53601  1.0000
  H   H1590     1.0  0.51837  0.65115  0.60255  1.0000
  S   S275      1.0  0.69270  0.56732  0.50094  1.0000
  C   C1987     1.0  0.81070  0.51219  0.56816  1.0000
  C   C1988     1.0  0.75468  0.53002  0.57546  1.0000
  H   H1591     1.0  0.78098  0.51059  0.58123  1.0000
  C   C1989     1.0  0.99745  0.62208  0.50457  1.0000
  H   H1592     1.0  0.95774  0.57896  0.56821  1.0000
  C   C1990     1.0  0.67479  0.50580  0.61197  1.0000
  H   H1593     1.0  0.80918  0.55083  0.51789  1.0000
  H   H1594     1.0  0.91751  0.61561  0.51805  1.0000
  C   C1991     1.0  0.88143  0.51032  0.56141  1.0000
  H   H1595     1.0  0.63081  0.56189  0.51762  1.0000
  H   H1596     1.0  0.98976  0.57278  0.56404  1.0000
  C   C1992     1.0  0.56395  0.73498  0.52233  1.0000
  S   S276      1.0  0.95306  0.59812  0.50505  1.0000
  C   C1993     1.0  0.68884  0.52174  0.57213  1.0000
  C   C1994     1.0  0.64377  0.52291  0.55176  1.0000
  C   C1995     1.0  0.52149  0.50973  0.64836  1.0000
  C   C1996     1.0  0.57631  0.61576  0.52669  1.0000
  H   H1597     1.0  0.65697  0.53785  0.54614  1.0000
  C   C1997     1.0  0.58444  0.55807  0.64546  1.0000
  C   C1998     1.0  0.50346  0.51292  0.64289  1.0000
  H   H1598     1.0  0.57423  0.59472  0.58367  1.0000
  C   C1999     1.0  0.55967  0.71348  0.52333  1.0000
  C   C2000     1.0  0.51366  0.62503  0.52519  1.0000
  H   H1599     1.0  0.54157  0.51006  0.58563  1.0000
  C   C2001     1.0  0.53037  0.63161  0.54249  1.0000
  C   C2002     1.0  0.82711  0.52069  0.55061  1.0000
  C   C2003     1.0  0.73191  0.52176  0.52056  1.0000
  H   H1600     1.0  0.53258  0.64734  0.68665  1.0000
  H   H1601     1.0  0.53968  0.62642  0.57895  1.0000
  C   C2004     1.0  0.61505  0.55038  0.52392  1.0000
  C   C2005     1.0  0.97880  0.61065  0.49021  1.0000
  C   C2006     1.0  0.79346  0.51737  0.56745  1.0000
  H   H1602     1.0  0.57247  0.70895  0.52041  1.0000
  C   C2007     1.0  0.94181  0.52687  0.54602  1.0000
  C   C2008     1.0  0.53873  0.69767  0.52725  1.0000
  H   H1603     1.0  0.71986  0.51304  0.63514  1.0000
  C   C2009     1.0  0.99191  0.52842  0.59824  1.0000
  C   C2010     1.0  0.52638  0.72495  0.52988  1.0000
  H   H1604     1.0  0.72630  0.52928  0.53443  1.0000
  H   H1605     1.0  0.51778  0.66433  0.71601  1.0000
  C   C2011     1.0  0.80933  0.53988  0.53187  1.0000
  C   C2012     1.0  0.56713  0.56159  0.63779  1.0000
  C   C2013     1.0  0.96672  0.57883  0.58460  1.0000
  C   C2014     1.0  0.99916  0.50414  0.66621  1.0000
  H   H1606     1.0  0.88244  0.52561  0.55593  1.0000
  C   C2015     1.0  0.57366  0.55528  0.59503  1.0000
  H   H1607     1.0  0.77512  0.51386  0.50424  1.0000
  H   H1608     1.0  0.63718  0.53613  0.58507  1.0000
  C   C2016     1.0  0.98498  0.57549  0.58229  1.0000
  H   H1609     1.0  0.99822  0.51795  0.67406  1.0000
  H   H1610     1.0  0.51634  0.63266  0.50729  1.0000
  C   C2017     1.0  0.98644  0.50657  0.59859  1.0000
  H   H1611     1.0  0.98611  0.51256  0.54170  1.0000
  C   C2018     1.0  0.80848  0.60281  0.54918  1.0000
  C   C2019     1.0  0.71822  0.51076  0.50098  1.0000
  H   H1612     1.0  0.57973  0.62840  0.56363  1.0000
  H   H1613     1.0  0.57914  0.63077  0.51807  1.0000
  C   C2020     1.0  0.52675  0.62147  0.56559  1.0000
  H   H1614     1.0  0.74694  0.55080  0.62967  1.0000
  H   H1615     1.0  0.81142  0.50162  0.58239  1.0000
  C   C2021     1.0  0.53727  0.53342  0.56298  1.0000
  H   H1616     1.0  0.88516  0.51800  0.60049  1.0000
  C   C2022     1.0  0.75927  0.51302  0.50381  1.0000
  H   H1617     1.0  0.51571  0.50278  0.51986  1.0000
  C   C2023     1.0  0.79505  0.61097  0.53955  1.0000
  C   C2024     1.0  0.60206  0.55731  0.53709  1.0000
  C   C2025     1.0  0.50879  0.68883  0.74975  1.0000
  C   C2026     1.0  0.53020  0.51407  0.57596  1.0000
  C   C2027     1.0  0.75267  0.52323  0.52203  1.0000
  C   C2028     1.0  0.93318  0.50568  0.58337  1.0000
  C   C2029     1.0  0.50007  0.52489  0.55397  1.0000
  C   C2030     1.0  0.89978  0.62622  0.49358  1.0000
  H   H1618     1.0  0.97914  0.53319  0.59832  1.0000
  C   C2031     1.0  0.58768  0.51374  0.52736  1.0000
  H   H1619     1.0  0.51374  0.72981  0.53163  1.0000
  H   H1620     1.0  0.53513  0.71959  0.75804  1.0000
  H   H1621     1.0  0.81169  0.57480  0.55923  1.0000
  C   C2032     1.0  0.73937  0.50866  0.57875  1.0000
  C   C2033     1.0  0.56940  0.57706  0.54917  1.0000
  C   C2034     1.0  0.56861  0.57848  0.52326  1.0000
  H   H1622     1.0  0.80084  0.62808  0.53748  1.0000
  C   C2035     1.0  0.75743  0.54515  0.59405  1.0000
  C   C2036     1.0  0.78027  0.56647  0.54338  1.0000
  C   C2037     1.0  0.57348  0.59519  0.56372  1.0000
  H   H1623     1.0  0.56540  0.56467  0.51172  1.0000
  Fe  Fe137     1.0  0.88399  0.53126  0.49463  1.0000
  C   C2038     1.0  0.98424  0.68163  0.50250  1.0000
  H   H1624     1.0  0.62962  0.61586  0.50647  1.0000
  H   H1625     1.0  0.60929  0.54958  0.63395  1.0000
  H   H1626     1.0  0.60017  0.54725  0.58988  1.0000
  H   H1627     1.0  0.58839  0.55881  0.66496  1.0000
  H   H1628     1.0  0.99602  0.62278  0.52446  1.0000
  S   S277      1.0  0.50491  0.53863  0.64615  1.0000
  C   C2039     1.0  0.68496  0.52395  0.59710  1.0000
  H   H1629     1.0  0.52678  0.55397  0.54289  1.0000
  H   H1630     1.0  0.75088  0.56461  0.52734  1.0000
  C   C2040     1.0  0.77421  0.59700  0.53209  1.0000
  H   H1631     1.0  0.94571  0.58432  0.60980  1.0000
  C   C2041     1.0  0.59628  0.55300  0.62802  1.0000
  H   H1632     1.0  0.61797  0.52341  0.50863  1.0000
  H   H1633     1.0  0.53625  0.52306  0.65420  1.0000
  H   H1634     1.0  0.69605  0.53573  0.56038  1.0000
  H   H1635     1.0  0.55747  0.56488  0.65131  1.0000
  C   C2042     1.0  0.56153  0.55986  0.61275  1.0000
  C   C2043     1.0  0.58161  0.54252  0.54527  1.0000
  C   C2044     1.0  0.97163  0.58187  0.62908  1.0000
  C   C2045     1.0  0.52200  0.53880  0.55210  1.0000
  C   C2046     1.0  0.52195  0.70325  0.53098  1.0000
  H   H1636     1.0  0.82470  0.61364  0.55479  1.0000
  C   C2047     1.0  0.74490  0.53901  0.61550  1.0000
  H   H1637     1.0  0.50351  0.59774  0.58967  1.0000
  C   C2048     1.0  0.79261  0.53123  0.54917  1.0000
  C   C2049     1.0  0.51995  0.71114  0.74840  1.0000
  C   C2050     1.0  0.72967  0.51773  0.61861  1.0000
  C   C2051     1.0  0.60778  0.52863  0.51885  1.0000
  C   C2052     1.0  0.57215  0.59780  0.51209  1.0000
  C   C2053     1.0  0.95998  0.58192  0.60800  1.0000
  H   H1638     1.0  0.94319  0.54093  0.53617  1.0000
  C   C2054     1.0  0.76687  0.57488  0.53391  1.0000
  C   C2055     1.0  0.80108  0.58068  0.55134  1.0000
  H   H1639     1.0  0.68946  0.53973  0.60480  1.0000
  C   C2056     1.0  0.59100  0.55168  0.60288  1.0000
  P   P69       1.0  0.77031  0.53787  0.54735  1.0000
  C   C2057     1.0  0.82641  0.53455  0.53247  1.0000
  H   H1640     1.0  0.61395  0.63866  0.48902  1.0000
  C   C2058     1.0  0.93569  0.52410  0.57089  1.0000
  P   P70       1.0  0.56551  0.55201  0.56293  1.0000
  C   C2059     1.0  0.91844  0.62606  0.50283  1.0000
  C   C2060     1.0  0.51613  0.63867  0.69289  1.0000
  H   H1641     1.0  0.54748  0.56174  0.60730  1.0000
  H   H1642     1.0  0.52453  0.67704  0.56943  1.0000
  H   H1643     1.0  0.93222  0.53588  0.58037  1.0000
  H   H1644     1.0  0.99930  0.55496  0.50447  1.0000
  C   C2061     1.0  0.61548  0.50257  0.58136  1.0000
  C   C2062     1.0  0.63814  0.50447  0.53734  1.0000
  H   H1645     1.0  0.76910  0.56173  0.59201  1.0000
  H   H1646     1.0  0.88431  0.61593  0.50164  1.0000
  C   C2063     1.0  0.50481  0.65082  0.59238  1.0000
  H   H1647     1.0  0.95004  0.51348  0.51432  1.0000
  H   H1648     1.0  0.67207  0.50789  0.63129  1.0000
  H   H1649     1.0  0.95246  0.63798  0.49889  1.0000
  C   C2064     1.0  0.94552  0.51122  0.53367  1.0000
  H   H1650     1.0  0.55925  0.50878  0.54709  1.0000
  H   H1651     1.0  0.52017  0.73985  0.73372  1.0000
  C   C2065     1.0  0.57457  0.52063  0.54045  1.0000
  Fe  Fe138     1.0  0.56138  0.66216  0.49570  1.0000
  H   H1652     1.0  0.51556  0.68021  0.76042  1.0000
  C   C2066     1.0  0.51153  0.72255  0.73469  1.0000
  H   H1653     1.0  0.50995  0.61040  0.67130  1.0000
  C   C2067     1.0  0.88291  0.50596  0.58663  1.0000
  C   C2068     1.0  0.50825  0.66540  0.57322  1.0000
  H   H1654     1.0  0.96632  0.58414  0.64723  1.0000
  C   C2069     1.0  0.50344  0.61787  0.68425  1.0000
  H   H1655     1.0  0.96928  0.68175  0.50767  1.0000
  C   C2070     1.0  0.54731  0.74072  0.52553  1.0000
  S   S278      1.0  0.65267  0.50450  0.51050  1.0000
  H   H1656     1.0  0.84044  0.51664  0.55113  1.0000
  Fe  Fe139     1.0  0.66992  0.53450  0.48746  1.0000
  Fe  Fe140     1.0  0.91939  0.57711  0.48853  1.0000
  C   C2071     1.0  0.99013  0.57892  0.62679  1.0000
  C   C2072     1.0  0.93829  0.63882  0.49193  1.0000
  H   H1657     1.0  0.58006  0.74714  0.51835  1.0000
  C   C2073     1.0  0.72694  0.50257  0.60026  1.0000
  H   H1658     1.0  0.92800  0.50334  0.60255  1.0000
  H   H1659     1.0  0.99881  0.69344  0.53813  1.0000
  H   H1660     1.0  0.99892  0.57896  0.64334  1.0000
  C   C2074     1.0  0.99704  0.57588  0.60334  1.0000
  H   H1661     1.0  0.94826  0.50442  0.71257  1.0000
  S   S279      1.0  0.65839  0.59988  0.48736  1.0000
  C   C2075     1.0  0.63259  0.62077  0.48731  1.0000
  Fe  Fe141     1.0  0.56369  0.88281  0.43021  1.0000
  S   S280      1.0  0.55645  0.88738  0.39036  1.0000
  S   S281      1.0  0.59687  0.88765  0.44086  1.0000
  H   H1662     1.0  0.58667  0.81359  0.41117  1.0000
  H   H1663     1.0  0.51487  0.79269  0.32993  1.0000
  H   H1664     1.0  0.50985  0.91906  0.43367  1.0000
  H   H1665     1.0  0.55018  0.79275  0.45431  1.0000
  C   C2076     1.0  0.60731  0.79833  0.40676  1.0000
  C   C2077     1.0  0.51835  0.91595  0.47118  1.0000
  H   H1666     1.0  0.52303  0.95841  0.43696  1.0000
  H   H1667     1.0  0.62103  0.81153  0.41513  1.0000
  C   C2078     1.0  0.53066  0.88444  0.38285  1.0000
  C   C2079     1.0  0.51485  0.87947  0.40096  1.0000
  C   C2080     1.0  0.58599  0.98164  0.44069  1.0000
  C   C2081     1.0  0.52411  0.94951  0.45273  1.0000
  C   C2082     1.0  0.57299  0.75821  0.46063  1.0000
  C   C2083     1.0  0.52562  0.88616  0.35806  1.0000
  H   H1668     1.0  0.51877  0.87851  0.42014  1.0000
  C   C2084     1.0  0.50474  0.88242  0.35126  1.0000
  H   H1669     1.0  0.53775  0.88974  0.34400  1.0000
  H   H1670     1.0  0.57786  0.94813  0.43991  1.0000
  H   H1671     1.0  0.62409  0.77946  0.40050  1.0000
  H   H1672     1.0  0.66806  0.95967  0.46967  1.0000
  C   C2085     1.0  0.51908  0.99236  0.27463  1.0000
  H   H1673     1.0  0.50906  0.92209  0.37649  1.0000
  S   S282      1.0  0.59039  0.83121  0.46893  1.0000
  H   H1674     1.0  0.68556  0.99494  0.44893  1.0000
  H   H1675     1.0  0.53344  0.99013  0.27305  1.0000
  C   C2086     1.0  0.51670  0.92739  0.45086  1.0000
  H   H1676     1.0  0.60551  0.76825  0.47275  1.0000
  C   C2087     1.0  0.54590  0.99091  0.35554  1.0000
  C   C2088     1.0  0.51098  0.81644  0.35196  1.0000
  H   H1677     1.0  0.51631  0.94469  0.32939  1.0000
  C   C2089     1.0  0.56931  0.99378  0.40912  1.0000
  H   H1678     1.0  0.64747  0.99964  0.42143  1.0000
  C   C2090     1.0  0.58279  0.80280  0.46610  1.0000
  H   H1679     1.0  0.54171  0.75425  0.44951  1.0000
  C   C2091     1.0  0.57150  0.76400  0.38623  1.0000
  H   H1680     1.0  0.55425  0.91644  0.29823  1.0000
  H   H1681     1.0  0.51263  0.89879  0.46973  1.0000
  C   C2092     1.0  0.63272  0.97455  0.44861  1.0000
  C   C2093     1.0  0.60886  0.78000  0.39880  1.0000
  H   H1682     1.0  0.58055  0.93146  0.33261  1.0000
  C   C2094     1.0  0.60521  0.75651  0.30496  1.0000
  H   H1683     1.0  0.57545  0.95362  0.36478  1.0000
  C   C2095     1.0  0.55174  0.92594  0.31258  1.0000
  Fe  Fe142     1.0  0.59443  0.90863  0.47152  1.0000
  H   H1684     1.0  0.63517  0.76855  0.28515  1.0000
  C   C2096     1.0  0.56231  0.78756  0.45841  1.0000
  C   C2097     1.0  0.50215  0.93202  0.38396  1.0000
  C   C2098     1.0  0.52876  0.99397  0.34582  1.0000
  H   H1685     1.0  0.51229  0.98198  0.34794  1.0000
  C   C2099     1.0  0.49973  0.86913  0.26339  1.0000
  H   H1686     1.0  0.55499  0.78332  0.39265  1.0000
  C   C2100     1.0  0.56658  0.93445  0.33191  1.0000
  C   C2101     1.0  0.57529  0.96080  0.43139  1.0000
  C   C2102     1.0  0.56159  0.95636  0.41092  1.0000
  C   C2103     1.0  0.53029  0.94173  0.33051  1.0000
  C   C2104     1.0  0.56340  0.94675  0.35046  1.0000
  C   C2105     1.0  0.55754  0.76560  0.45563  1.0000
  S   S283      1.0  0.56215  0.90481  0.45942  1.0000
  H   H1687     1.0  0.55335  0.94003  0.40408  1.0000
  P   P71       1.0  0.54110  0.96714  0.37281  1.0000
  H   H1688     1.0  0.52328  0.81805  0.36529  1.0000
  H   H1689     1.0  0.52214  0.92327  0.29681  1.0000
  C   C2106     1.0  0.58792  0.79953  0.40445  1.0000
  H   H1690     1.0  0.51423  0.88323  0.26848  1.0000
  C   C2107     1.0  0.62877  0.75454  0.34602  1.0000
  C   C2108     1.0  0.54504  0.95021  0.35009  1.0000
  C   C2109     1.0  0.53362  0.92962  0.31187  1.0000
  C   C2110     1.0  0.59083  0.76248  0.38898  1.0000
  Fe  Fe143     1.0  0.54818  0.87569  0.48350  1.0000
  C   C2111     1.0  0.55883  0.97292  0.39928  1.0000
  C   C2112     1.0  0.50626  0.80221  0.33201  1.0000
  H   H1691     1.0  0.62785  0.96173  0.43512  1.0000
  Fe  Fe144     1.0  0.57964  0.85856  0.46566  1.0000
  C   C2113     1.0  0.57005  0.78240  0.39412  1.0000
  S   S284      1.0  0.54669  0.85296  0.45283  1.0000
  H   H1692     1.0  0.59683  0.98506  0.45634  1.0000
  C   C2114     1.0  0.50480  0.96674  0.39507  1.0000
  H   H1693     1.0  0.51388  0.98399  0.39621  1.0000
  C   C2115     1.0  0.51395  0.95439  0.38438  1.0000
  C   C2116     1.0  0.67781  0.97394  0.48035  1.0000
  H   H1694     1.0  0.59614  0.75748  0.28912  1.0000
  C   C2117     1.0  0.53357  0.96028  0.47469  1.0000
  C   C2118     1.0  0.59335  0.77338  0.46865  1.0000
  C   C2119     1.0  0.63899  0.76185  0.32326  1.0000
  C   C2120     1.0  0.59816  0.79532  0.47125  1.0000
  C   C2121     1.0  0.62721  0.76278  0.30273  1.0000
  C   C2122     1.0  0.64395  0.99617  0.44087  1.0000
  H   H1695     1.0  0.61404  0.80669  0.47723  1.0000
  C   C2123     1.0  0.62892  0.96960  0.47382  1.0000
  C   C2124     1.0  0.50000  0.82883  0.35460  1.0000
  H   H1696     1.0  0.63826  0.75439  0.36185  1.0000
  H   H1697     1.0  0.65609  0.76698  0.32162  1.0000
  C   C2125     1.0  0.68772  0.99380  0.46866  1.0000
  H   H1698     1.0  0.50376  0.83995  0.36998  1.0000
  H   H1699     1.0  0.53955  0.97744  0.47543  1.0000
  H   H1700     1.0  0.50088  0.88334  0.33203  1.0000
  S   S285      1.0  0.61808  0.94269  0.48535  1.0000
  C   C2126     1.0  0.58301  0.99812  0.42959  1.0000
  C   C2127     1.0  0.52642  0.96142  0.54397  1.0000
  C   C2128     1.0  0.55247  0.96580  0.62158  1.0000
  C   C2129     1.0  0.53553  0.94891  0.49513  1.0000
  C   C2130     1.0  0.63575  0.98670  0.49091  1.0000
  H   H1701     1.0  0.52902  0.91741  0.50868  1.0000
  H   H1702     1.0  0.54597  0.94715  0.57478  1.0000
  H   H1703     1.0  0.66087  0.99552  0.62010  1.0000
  S   S286      1.0  0.51755  0.87035  0.50362  1.0000
  S   S287      1.0  0.58025  0.88021  0.49779  1.0000
  H   H1704     1.0  0.56361  0.92823  0.59543  1.0000
  C   C2131     1.0  0.57234  0.97608  0.63372  1.0000
  S   S288      1.0  0.50449  0.88759  0.61660  1.0000
  C   C2132     1.0  0.58380  0.93099  0.53757  1.0000
  C   C2133     1.0  0.51536  0.97530  0.57975  1.0000
  P   P72       1.0  0.54758  0.96268  0.52367  1.0000
  H   H1705     1.0  0.59473  0.98541  0.51664  1.0000
  C   C2134     1.0  0.51539  0.87720  0.53472  1.0000
  C   C2135     1.0  0.53095  0.87978  0.55251  1.0000
  C   C2136     1.0  0.52752  0.88316  0.57753  1.0000
  H   H1706     1.0  0.53937  0.88462  0.59132  1.0000
  C   C2137     1.0  0.60941  0.98745  0.58448  1.0000
  C   C2138     1.0  0.53709  0.94572  0.62946  1.0000
  H   H1707     1.0  0.54530  0.87854  0.54713  1.0000
  C   C2139     1.0  0.67943  0.97264  0.50600  1.0000
  H   H1708     1.0  0.52175  0.93770  0.61998  1.0000
  H   H1709     1.0  0.51877  0.98753  0.59381  1.0000
  C   C2140     1.0  0.55700  0.94346  0.56422  1.0000
  C   C2141     1.0  0.56695  0.93255  0.57608  1.0000
  H   H1710     1.0  0.59204  0.97337  0.66319  1.0000
  H   H1711     1.0  0.67094  0.95729  0.51504  1.0000
  C   C2142     1.0  0.57671  0.96584  0.65371  1.0000
  H   H1712     1.0  0.65490  0.98147  0.57698  1.0000
  C   C2143     1.0  0.64659  0.99346  0.61009  1.0000
  C   C2144     1.0  0.58032  0.92626  0.56274  1.0000
  C   C2145     1.0  0.56068  0.94866  0.53897  1.0000
  H   H1713     1.0  0.52957  0.92003  0.65537  1.0000
  H   H1714     1.0  0.55062  0.75738  0.52400  1.0000
  C   C2146     1.0  0.53052  0.97773  0.56150  1.0000
  H   H1715     1.0  0.62174  0.97578  0.55448  1.0000
  C   C2147     1.0  0.54150  0.93570  0.64945  1.0000
  C   C2148     1.0  0.52775  0.92662  0.49322  1.0000
  H   H1716     1.0  0.58750  0.91718  0.57170  1.0000
  H   H1717     1.0  0.63328  0.98324  0.51044  1.0000
  H   H1718     1.0  0.50354  0.92946  0.53240  1.0000
  C   C2149     1.0  0.50861  0.88409  0.58490  1.0000
  C   C2150     1.0  0.56610  0.99032  0.51716  1.0000
  C   C2151     1.0  0.56131  0.94574  0.66156  1.0000
  C   C2152     1.0  0.51389  0.98129  0.65823  1.0000
  H   H1719     1.0  0.52834  0.97968  0.66208  1.0000
  H   H1720     1.0  0.54891  0.97307  0.60587  1.0000
  H   H1721     1.0  0.57694  0.94554  0.50605  1.0000
  H   H1722     1.0  0.56470  0.93785  0.67699  1.0000
  C   C2153     1.0  0.57416  0.94226  0.52568  1.0000
  H   H1723     1.0  0.59367  0.92549  0.52718  1.0000
  C   C2154     1.0  0.62458  0.98238  0.57310  1.0000
  C   C2155     1.0  0.63143  0.99856  0.62153  1.0000
  H   H1724     1.0  0.54585  0.99183  0.56191  1.0000
  C   C2156     1.0  0.69138  0.99115  0.51993  1.0000
  H   H1725     1.0  0.59491  0.98468  0.57447  1.0000
  C   C2157     1.0  0.64321  0.98548  0.58584  1.0000
  C   C2158     1.0  0.61290  0.99590  0.60863  1.0000
  C   C2159     1.0  0.50684  0.94273  0.54491  1.0000
  H   H1726     1.0  0.69214  0.98994  0.53984  1.0000
  C   C2160     1.0  0.58820  0.99674  0.51458  1.0000
  H   H1727     1.0  0.54135  0.00105  0.51561  1.0000
  H   H1728     1.0  0.75753  0.99982  0.56380  1.0000
