data_image0
_chemical_formula_structural       HFeSHCSFeSFeS3C2H2C4H3CH3C2H2CHC3HCH3CHCHC2H2C5HC3PHC2H3C3H2CSH2C2HC5H2C5H6FeH4CH3C2HCHC2H3C4HC5H3C2HC3H4C5SHC4HC3HC2HC3HC3SHFeSCFe2SHSFeS2FeS2FeSFeS3PHC3H4CHC7HCH2C7H4CHCHC4SCSHC7HCH6C4PCHPH6C4SH3CHCHCHC3PH2C2H3C5H2CHC3H2C2H2C6H3CHCHCPCHC8HC5PHCHC2H2CH2C3H3CHCH3CH3C2H2C2H2C2HCHCH4CFeHCH3C3H9C2FeS2FeSCFeSFeCSFeCSC2SCHC6H5CPSCHCHCH5CH2C2H2C2H2C3HCHCH2C6HPCSCSHCHCHCH2C2H5CSH3C5HPH4C2H5CHC4HC2HCHPC3HC13HSCH3CH5CHC6HC2HSCHC3HCHC2H3CHCFeS2FeS2Fe2S4C2SC3HC9H2CHC2HSHC6H2C4H2C3HC4H2CHC4HC3PC8HFeHC4HC2HCHCH7CH6C2HC2H2CHCH4C4H2CHC2H3CHSH2PC4H3C2H5C2H2C4HCHC2FeH2C2HC2HCSC2H5C2FeHCH2CHCHC3H3PH2CHCFeS2FeS2FeSFeS3FeS2FeSCHFeS4HC3HCHCH3C2H2C7H4C6H7CHC3H3C5H2CHC6HC2HPC4H2C2HC3H3CPHCHPC2HC2H5C4H4CH2C2HPCHCFeC10H2C2H7C2SCSH2C2HCH2C2H2C2HC2H3CH2CHCHC5HC2HCHC3PC5H3C2HCH2FeS2FeS2FeCFeS3FeSC2SHFeSFeSHSCHC3HCH2C6H7SC6H3CH3CH2C2PHCH2C2HC3H2CHCH3C3H2C13H3FeH3C2HCPC2HCSH2CHC2HC3HC4PH3CHCHCH4C4HC6H3C9HCH2C2FeS2FeS2Fe2HS2H4CHC4HCH2C6H4CHC3H2CH2C5H2C3HC3H4CHC6H2PC2HC6HCH3PCHCH3C8HCH7C8HCH3CHCHSH2C4HC2H2CH2CSCPC3H3C2SCHCH3C2H3CHCHCH2C3HPC3H3CH2C2SCH2C2HC2H2CH2C2HCH6C3H2C2SHC3HC2H3CH4CH2CHCFeS2FeSHFeSFeHSFeS2C4HSH4C6H6C7PC9HC8H11CSH7CHC2H2CSHCHCHCHC2H2CHC3HC4H4CH2FeCHC3H2CHCSH2CSC2FeS2FeS2FeCFeS3FeS2FeSFeSFeS3C2H2C7H4C3H2C8H6CHCHCPCPC2H3CHC7HC4HCH4C6H3C2H3CH7C2HCHCH3C4HCH2CH4C2H2C2H2C2HC4HC2HCHCHC5H2C3HCH3CHCHCHC2SCSFeS2FeSFeS6C2H3C4H2C6H4C3HC5H2C8PCHFeH3C2HC9H5C4H4CH4PH3CPC2HCHCHC3H2C2H2C4HCH2C4H2CHC2HCH2C2H3SCHC3H3FeCHC7HC2FeH2C3H5C2H6CHCH2C3HCHCHC5H
_chemical_formula_sum              "H768 Fe64 S128 C960 P32"
_cell_length_a       47.3865
_cell_length_b       49.2042
_cell_length_c       30.7403
_cell_angle_alpha    87.5324
_cell_angle_beta     111.546
_cell_angle_gamma    90.2233

_space_group_name_H-M_alt    "P 1"
_space_group_IT_number       1

loop_
  _space_group_symop_operation_xyz
  'x, y, z'

loop_
  _atom_site_type_symbol
  _atom_site_label
  _atom_site_symmetry_multiplicity
  _atom_site_fract_x
  _atom_site_fract_y
  _atom_site_fract_z
  _atom_site_occupancy
  H   H1        1.0  0.19800  0.28025  0.24696  1.0000
  Fe  Fe1       1.0  0.07993  0.25362  0.27085  1.0000
  S   S1        1.0  0.09264  0.21556  0.24487  1.0000
  H   H2        1.0  0.24331  0.13938  0.17851  1.0000
  C   C1        1.0  0.35404  0.25501  0.46600  1.0000
  S   S2        1.0  0.02271  0.19439  0.21941  1.0000
  Fe  Fe2       1.0  0.06616  0.19343  0.28267  1.0000
  S   S3        1.0  0.08073  0.15532  0.33031  1.0000
  Fe  Fe3       1.0  0.04776  0.22076  0.18399  1.0000
  S   S4        1.0  0.04999  0.21834  0.11108  1.0000
  S   S5        1.0  0.05578  0.23113  0.31237  1.0000
  S   S6        1.0  0.03613  0.26023  0.20857  1.0000
  C   C2        1.0  0.08625  0.11558  0.17916  1.0000
  C   C3        1.0  0.02006  0.21694  0.05547  1.0000
  H   H3        1.0  0.17337  0.22604  0.28206  1.0000
  H   H4        1.0  0.05528  0.27807  0.43863  1.0000
  C   C4        1.0  0.19037  0.28903  0.27237  1.0000
  C   C5        1.0  0.09962  0.16168  0.39015  1.0000
  C   C6        1.0  0.10974  0.18780  0.40355  1.0000
  C   C7        1.0  0.10475  0.14066  0.42479  1.0000
  H   H5        1.0  0.10672  0.20393  0.37728  1.0000
  H   H6        1.0  0.09694  0.12037  0.41469  1.0000
  H   H7        1.0  0.21655  0.14227  0.31981  1.0000
  C   C8        1.0  0.47139  0.26719  0.03075  1.0000
  H   H8        1.0  0.07024  0.13104  0.23076  1.0000
  H   H9        1.0  0.21026  0.21267  0.23021  1.0000
  H   H10       1.0  0.00090  0.05748  0.41804  1.0000
  C   C9        1.0  0.16146  0.28237  0.27285  1.0000
  C   C10       1.0  0.35947  0.24138  0.00399  1.0000
  H   H11       1.0  0.14696  0.26877  0.24764  1.0000
  H   H12       1.0  0.40490  0.18666  0.00985  1.0000
  C   C11       1.0  0.31070  0.21770  0.47118  1.0000
  H   H13       1.0  0.26304  0.11868  0.32397  1.0000
  C   C12       1.0  0.42378  0.26121  0.21347  1.0000
  C   C13       1.0  0.46218  0.29348  0.31799  1.0000
  C   C14       1.0  0.44078  0.28694  0.33861  1.0000
  H   H14       1.0  0.13278  0.21315  0.46086  1.0000
  C   C15       1.0  0.08005  0.17669  0.04215  1.0000
  H   H15       1.0  0.15171  0.26743  0.12304  1.0000
  H   H16       1.0  0.44276  0.26767  0.35786  1.0000
  H   H17       1.0  0.34792  0.16740  0.99949  1.0000
  C   C16       1.0  0.20269  0.15450  0.24616  1.0000
  H   H18       1.0  0.04745  0.23389  0.01866  1.0000
  C   C17       1.0  0.10931  0.11654  0.16099  1.0000
  H   H19       1.0  0.20307  0.25411  0.17896  1.0000
  C   C18       1.0  0.13663  0.14912  0.21858  1.0000
  C   C19       1.0  0.17311  0.20043  0.38581  1.0000
  H   H20       1.0  0.47067  0.25962  0.22100  1.0000
  H   H21       1.0  0.41129  0.24327  0.11529  1.0000
  C   C20       1.0  0.20938  0.30726  0.30394  1.0000
  C   C21       1.0  0.12275  0.27134  0.42346  1.0000
  C   C22       1.0  0.16741  0.29502  0.47293  1.0000
  C   C23       1.0  0.13008  0.23261  0.14148  1.0000
  C   C24       1.0  0.06682  0.15655  0.06149  1.0000
  H   H22       1.0  0.04435  0.18851  0.38439  1.0000
  C   C25       1.0  0.15264  0.27074  0.45563  1.0000
  C   C26       1.0  0.23854  0.27125  0.41149  1.0000
  C   C27       1.0  0.22065  0.27387  0.43858  1.0000
  P   P1        1.0  0.16813  0.17199  0.24180  1.0000
  H   H23       1.0  0.11174  0.25274  0.40877  1.0000
  C   C28       1.0  0.16946  0.16405  0.33342  1.0000
  C   C29       1.0  0.23730  0.14004  0.20924  1.0000
  H   H24       1.0  0.04130  0.11954  0.04953  1.0000
  H   H25       1.0  0.22998  0.26058  0.37915  1.0000
  H   H26       1.0  0.48806  0.26583  0.10668  1.0000
  C   C30       1.0  0.05193  0.13493  0.03465  1.0000
  C   C31       1.0  0.02571  0.22530  0.01507  1.0000
  C   C32       1.0  0.17088  0.17274  0.37691  1.0000
  H   H27       1.0  0.09095  0.19374  0.06282  1.0000
  H   H28       1.0  0.43071  0.20262  0.08972  1.0000
  C   C33       1.0  0.17380  0.21944  0.35122  1.0000
  S   S7        1.0  0.11509  0.28554  0.30827  1.0000
  H   H29       1.0  0.27675  0.11708  0.25363  1.0000
  H   H30       1.0  0.00443  0.14642  0.31625  1.0000
  C   C34       1.0  0.23093  0.28889  0.47923  1.0000
  C   C35       1.0  0.17082  0.18302  0.29871  1.0000
  H   H31       1.0  0.01880  0.10184  0.29568  1.0000
  C   C36       1.0  0.44701  0.29327  0.17511  1.0000
  C   C37       1.0  0.37397  0.25005  0.04957  1.0000
  C   C38       1.0  0.39596  0.30114  0.99352  1.0000
  C   C39       1.0  0.33446  0.24352  0.42534  1.0000
  C   C40       1.0  0.31294  0.22469  0.42797  1.0000
  H   H32       1.0  0.36557  0.26785  0.06081  1.0000
  H   H33       1.0  0.06743  0.15824  0.09690  1.0000
  C   C41       1.0  0.37063  0.21867  0.98889  1.0000
  C   C42       1.0  0.11318  0.14815  0.23626  1.0000
  C   C43       1.0  0.44911  0.27016  0.20424  1.0000
  C   C44       1.0  0.49786  0.29705  0.99460  1.0000
  C   C45       1.0  0.15496  0.24879  0.14452  1.0000
  H   H34       1.0  0.11420  0.19707  0.16769  1.0000
  H   H35       1.0  0.07200  0.07650  0.45700  1.0000
  H   H36       1.0  0.37087  0.26948  0.46393  1.0000
  H   H37       1.0  0.33601  0.24926  0.39183  1.0000
  H   H38       1.0  0.29797  0.21557  0.39645  1.0000
  H   H39       1.0  0.37632  0.26788  0.19939  1.0000
  Fe  Fe4       1.0  0.01352  0.23335  0.24768  1.0000
  H   H40       1.0  0.16445  0.25138  0.46620  1.0000
  H   H41       1.0  0.06675  0.10276  0.16397  1.0000
  H   H42       1.0  0.10764  0.10448  0.13149  1.0000
  H   H43       1.0  0.42599  0.24401  0.23780  1.0000
  C   C46       1.0  0.12007  0.14587  0.47255  1.0000
  H   H44       1.0  0.17398  0.24102  0.35698  1.0000
  H   H45       1.0  0.19850  0.26487  0.42664  1.0000
  H   H46       1.0  0.45350  0.25281  0.02762  1.0000
  C   C47       1.0  0.15120  0.29360  0.30549  1.0000
  C   C48       1.0  0.13428  0.13339  0.18034  1.0000
  H   H47       1.0  0.19640  0.16308  0.17339  1.0000
  C   C49       1.0  0.02674  0.18575  0.39874  1.0000
  H   H48       1.0  0.05441  0.16009  0.45665  1.0000
  C   C50       1.0  0.41068  0.21332  0.06586  1.0000
  C   C51       1.0  0.41666  0.30500  0.33426  1.0000
  H   H49       1.0  0.03494  0.11380  0.44433  1.0000
  H   H50       1.0  0.06360  0.22835  0.44134  1.0000
  H   H51       1.0  0.15152  0.13425  0.16511  1.0000
  C   C52       1.0  0.18388  0.24125  0.17600  1.0000
  C   C53       1.0  0.26664  0.28393  0.42425  1.0000
  C   C54       1.0  0.08818  0.13144  0.21671  1.0000
  C   C55       1.0  0.22184  0.14186  0.28856  1.0000
  H   H52       1.0  0.16664  0.14261  0.32656  1.0000
  C   C56       1.0  0.13397  0.20893  0.17005  1.0000
  C   C57       1.0  0.16291  0.20137  0.20214  1.0000
  C   C58       1.0  0.18786  0.21771  0.20489  1.0000
  C   C59       1.0  0.12495  0.19293  0.45087  1.0000
  C   C60       1.0  0.17307  0.21079  0.30816  1.0000
  H   H53       1.0  0.16910  0.15809  0.40316  1.0000
  H   H54       1.0  0.10758  0.23880  0.11766  1.0000
  H   H55       1.0  0.11383  0.16034  0.26500  1.0000
  C   C61       1.0  0.39973  0.23621  0.08032  1.0000
  C   C62       1.0  0.25615  0.12751  0.25153  1.0000
  H   H56       1.0  0.08466  0.29655  0.38160  1.0000
  C   C63       1.0  0.41075  0.30909  0.03944  1.0000
  C   C64       1.0  0.24842  0.12842  0.29115  1.0000
  C   C65       1.0  0.21070  0.15346  0.20650  1.0000
  H   H57       1.0  0.17326  0.20718  0.41892  1.0000
  H   H58       1.0  0.29903  0.30864  0.47433  1.0000
  H   H59       1.0  0.27981  0.28301  0.40197  1.0000
  H   H60       1.0  0.40031  0.29954  0.35002  1.0000
  C   C66       1.0  0.39593  0.27476  0.19207  1.0000
  C   C67       1.0  0.13041  0.17211  0.48547  1.0000
  C   C68       1.0  0.07756  0.17582  0.99548  1.0000
  C   C69       1.0  0.03209  0.16917  0.43911  1.0000
  C   C70       1.0  0.99887  0.19920  0.37722  1.0000
  S   S8        1.0  0.49160  0.26952  0.32327  1.0000
  H   H61       1.0  0.46710  0.29983  0.16885  1.0000
  C   C71       1.0  0.10734  0.29612  0.40818  1.0000
  C   C72       1.0  0.39606  0.20442  0.02050  1.0000
  C   C73       1.0  0.00886  0.16466  0.45664  1.0000
  C   C74       1.0  0.39359  0.29764  0.16227  1.0000
  H   H62       1.0  0.43323  0.30104  0.05961  1.0000
  C   C75       1.0  0.27730  0.29857  0.46489  1.0000
  C   C76       1.0  0.47463  0.27847  0.98991  1.0000
  C   C77       1.0  0.49090  0.27457  0.07568  1.0000
  H   H63       1.0  0.29443  0.20253  0.47248  1.0000
  C   C78       1.0  0.06810  0.26747  0.47166  1.0000
  C   C79       1.0  0.17020  0.31180  0.33723  1.0000
  H   H64       1.0  0.37183  0.30794  0.14593  1.0000
  C   C80       1.0  0.04691  0.10558  0.47958  1.0000
  C   C81       1.0  0.41941  0.30775  0.15520  1.0000
  C   C82       1.0  0.07255  0.23938  0.47317  1.0000
  H   H65       1.0  0.31296  0.12939  0.99408  1.0000
  C   C83       1.0  0.04960  0.13383  0.98803  1.0000
  C   C84       1.0  0.00059  0.10302  0.30895  1.0000
  C   C85       1.0  0.08838  0.22554  0.51578  1.0000
  S   S9        1.0  0.42717  0.26341  0.72610  1.0000
  H   H66       1.0  0.09912  0.05614  0.53718  1.0000
  Fe  Fe5       1.0  0.44610  0.27327  0.85842  1.0000
  S   S10       1.0  0.45869  0.23571  0.82944  1.0000
  C   C86       1.0  0.44936  0.24693  0.61653  1.0000
  Fe  Fe6       1.0  0.47338  0.26492  0.78296  1.0000
  Fe  Fe7       1.0  0.41112  0.23866  0.77530  1.0000
  S   S11       1.0  0.38030  0.20206  0.74812  1.0000
  H   H67       1.0  0.24558  0.98907  0.71947  1.0000
  S   S12       1.0  0.39816  0.27528  0.80478  1.0000
  Fe  Fe8       1.0  0.16020  0.15321  0.60866  1.0000
  S   S13       1.0  0.16663  0.17698  0.67205  1.0000
  S   S14       1.0  0.15060  0.18057  0.54382  1.0000
  Fe  Fe9       1.0  0.17300  0.09858  0.66503  1.0000
  S   S15       1.0  0.18180  0.11933  0.73314  1.0000
  S   S16       1.0  0.15938  0.05403  0.64826  1.0000
  Fe  Fe10      1.0  0.14012  0.14499  0.69385  1.0000
  S   S17       1.0  0.09952  0.14714  0.71774  1.0000
  Fe  Fe11      1.0  0.20817  0.15048  0.70664  1.0000
  S   S18       1.0  0.24770  0.17726  0.75014  1.0000
  S   S19       1.0  0.13047  0.12346  0.62717  1.0000
  S   S20       1.0  0.20259  0.12783  0.64156  1.0000
  P   P2        1.0  0.35287  0.20809  0.92934  1.0000
  H   H68       1.0  0.00825  0.22905  0.93938  1.0000
  C   C87       1.0  0.17735  0.02126  0.66322  1.0000
  C   C88       1.0  0.20835  0.01780  0.68948  1.0000
  C   C89       1.0  0.15977  0.99794  0.64741  1.0000
  H   H69       1.0  0.22224  0.03542  0.70181  1.0000
  H   H70       1.0  0.13582  0.00034  0.62695  1.0000
  H   H71       1.0  0.26147  0.15710  0.61544  1.0000
  H   H72       1.0  0.32115  0.28076  0.54684  1.0000
  C   C90       1.0  0.10534  0.11753  0.84143  1.0000
  H   H73       1.0  0.33758  0.16431  0.55583  1.0000
  C   C91       1.0  0.00853  0.18699  0.56162  1.0000
  C   C92       1.0  0.07737  0.17351  0.72822  1.0000
  C   C93       1.0  0.04831  0.16736  0.72822  1.0000
  C   C94       1.0  0.02981  0.18752  0.73611  1.0000
  C   C95       1.0  0.04015  0.21420  0.74424  1.0000
  C   C96       1.0  0.06955  0.22018  0.74553  1.0000
  C   C97       1.0  0.08805  0.20000  0.73762  1.0000
  H   H74       1.0  0.03987  0.14691  0.72144  1.0000
  C   C98       1.0  0.08919  0.19754  0.88749  1.0000
  H   H75       1.0  0.07806  0.24055  0.75264  1.0000
  H   H76       1.0  0.11052  0.20487  0.73883  1.0000
  C   C99       1.0  0.07655  0.08197  0.56926  1.0000
  C   C100      1.0  0.34288  0.19621  0.74729  1.0000
  C   C101      1.0  0.32849  0.21386  0.76730  1.0000
  C   C102      1.0  0.29907  0.20817  0.76652  1.0000
  C   C103      1.0  0.28350  0.18480  0.74566  1.0000
  C   C104      1.0  0.29758  0.16751  0.72457  1.0000
  C   C105      1.0  0.32711  0.17313  0.72563  1.0000
  H   H77       1.0  0.34027  0.23166  0.78406  1.0000
  H   H78       1.0  0.28849  0.22179  0.78286  1.0000
  H   H79       1.0  0.28614  0.14933  0.70877  1.0000
  H   H80       1.0  0.33799  0.15929  0.71007  1.0000
  C   C106      1.0  0.00360  0.22239  0.96996  1.0000
  H   H81       1.0  0.07501  0.15183  0.82636  1.0000
  C   C107      1.0  0.36687  0.31112  0.96714  1.0000
  H   H82       1.0  0.09111  0.20364  0.51701  1.0000
  C   C108      1.0  0.28713  0.13714  0.92068  1.0000
  C   C109      1.0  0.04222  0.11642  0.51801  1.0000
  C   C110      1.0  0.11456  0.09261  0.91506  1.0000
  C   C111      1.0  0.38120  0.15335  0.60766  1.0000
  S   S21       1.0  0.01690  0.24085  0.75112  1.0000
  C   C112      1.0  0.23535  0.18270  0.55572  1.0000
  S   S22       1.0  0.46391  0.30232  0.81542  1.0000
  H   H83       1.0  0.07521  0.30343  0.51096  1.0000
  C   C113      1.0  0.21412  0.26790  0.55826  1.0000
  C   C114      1.0  0.24416  0.26160  0.58769  1.0000
  C   C115      1.0  0.25021  0.24175  0.62412  1.0000
  C   C116      1.0  0.22639  0.22796  0.63131  1.0000
  C   C117      1.0  0.19647  0.23444  0.60279  1.0000
  C   C118      1.0  0.19025  0.25461  0.56696  1.0000
  C   C119      1.0  0.04958  0.20894  0.62128  1.0000
  H   H84       1.0  0.05271  0.11152  0.59274  1.0000
  C   C120      1.0  0.02831  0.28394  0.66255  1.0000
  H   H85       1.0  0.26293  0.27193  0.58247  1.0000
  H   H86       1.0  0.27337  0.23662  0.64647  1.0000
  H   H87       1.0  0.23109  0.21218  0.65894  1.0000
  H   H88       1.0  0.17800  0.22378  0.60860  1.0000
  H   H89       1.0  0.16677  0.25957  0.54653  1.0000
  H   H90       1.0  0.35141  0.16938  0.85737  1.0000
  C   C121      1.0  0.32346  0.29874  0.61013  1.0000
  C   C122      1.0  0.32852  0.29444  0.65762  1.0000
  C   C123      1.0  0.33303  0.26804  0.67761  1.0000
  C   C124      1.0  0.33250  0.24604  0.65007  1.0000
  P   P3        1.0  0.05515  0.15508  0.90575  1.0000
  C   C125      1.0  0.44842  0.26917  0.53069  1.0000
  H   H91       1.0  0.42737  0.19590  0.68687  1.0000
  P   P4        1.0  0.01600  0.14442  0.51001  1.0000
  H   H92       1.0  0.09952  0.99036  0.68735  1.0000
  H   H93       1.0  0.33728  0.26457  0.71453  1.0000
  H   H94       1.0  0.33537  0.22564  0.66563  1.0000
  H   H95       1.0  0.45488  0.20754  0.92037  1.0000
  H   H96       1.0  0.02447  0.25100  0.85950  1.0000
  H   H97       1.0  0.07378  0.26459  0.85598  1.0000
  C   C126      1.0  0.35720  0.17145  0.58411  1.0000
  C   C127      1.0  0.28739  0.26458  0.85620  1.0000
  C   C128      1.0  0.28378  0.15361  0.88090  1.0000
  C   C129      1.0  0.41062  0.20711  0.92484  1.0000
  S   S23       1.0  0.44787  0.26986  0.93430  1.0000
  H   H98       1.0  0.26609  0.14951  0.84755  1.0000
  H   H99       1.0  0.38995  0.15505  0.82716  1.0000
  H   H100      1.0  0.26853  0.31228  0.52390  1.0000
  C   C130      1.0  0.23614  0.20402  0.52466  1.0000
  H   H101      1.0  0.45008  0.23834  0.65001  1.0000
  C   C131      1.0  0.46415  0.27137  0.61490  1.0000
  H   H102      1.0  0.37999  0.13239  0.59773  1.0000
  C   C132      1.0  0.38422  0.20732  0.63387  1.0000
  H   H103      1.0  0.21803  0.27254  0.69852  1.0000
  C   C133      1.0  0.05654  0.10395  0.56271  1.0000
  C   C134      1.0  0.04663  0.28102  0.59898  1.0000
  C   C135      1.0  0.09383  0.22451  0.87575  1.0000
  P   P5        1.0  0.20679  0.29429  0.51233  1.0000
  H   H104      1.0  0.21382  0.17399  0.55350  1.0000
  H   H105      1.0  0.03727  0.11733  0.96729  1.0000
  C   C136      1.0  0.35165  0.24833  0.50920  1.0000
  C   C137      1.0  0.00883  0.13182  0.83153  1.0000
  H   H106      1.0  0.44178  0.17379  0.85835  1.0000
  H   H107      1.0  0.40732  0.29570  0.58111  1.0000
  H   H108      1.0  0.26362  0.26824  0.84970  1.0000
  C   C138      1.0  0.31023  0.14232  0.96334  1.0000
  C   C139      1.0  0.08172  0.29004  0.67706  1.0000
  C   C140      1.0  0.46320  0.28306  0.57181  1.0000
  C   C141      1.0  0.30348  0.17523  0.88373  1.0000
  C   C142      1.0  0.04254  0.23605  0.86760  1.0000
  H   H109      1.0  0.10784  0.18313  0.89631  1.0000
  H   H110      1.0  0.02561  0.12802  0.81636  1.0000
  C   C143      1.0  0.43248  0.19866  0.90763  1.0000
  H   H111      1.0  0.30072  0.18744  0.85230  1.0000
  C   C144      1.0  0.39594  0.16902  0.85540  1.0000
  C   C145      1.0  0.09631  0.26806  0.55562  1.0000
  C   C146      1.0  0.10052  0.23978  0.55683  1.0000
  H   H112      1.0  0.13961  0.30909  0.55082  1.0000
  H   H113      1.0  0.42235  0.21482  0.57659  1.0000
  C   C147      1.0  0.19534  0.26604  0.69435  1.0000
  C   C148      1.0  0.17005  0.27873  0.66005  1.0000
  H   H114      1.0  0.29119  0.29954  0.81402  1.0000
  H   H115      1.0  0.10908  0.12020  0.80873  1.0000
  C   C149      1.0  0.06079  0.18947  0.88797  1.0000
  C   C150      1.0  0.08606  0.13548  0.85162  1.0000
  C   C151      1.0  0.33356  0.27755  0.84479  1.0000
  C   C152      1.0  0.09526  0.11056  0.92538  1.0000
  C   C153      1.0  0.07977  0.28178  0.51269  1.0000
  C   C154      1.0  0.07641  0.28583  0.62977  1.0000
  H   H116      1.0  0.08846  0.07303  0.60416  1.0000
  H   H117      1.0  0.11273  0.22853  0.58934  1.0000
  H   H118      1.0  0.21110  0.23397  0.74812  1.0000
  C   C155      1.0  0.32871  0.25030  0.60286  1.0000
  H   H119      1.0  0.15945  0.21873  0.73841  1.0000
  C   C156      1.0  0.07049  0.24376  0.86581  1.0000
  H   H120      1.0  0.04164  0.27760  0.56241  1.0000
  C   C157      1.0  0.08103  0.13228  0.89385  1.0000
  P   P6        1.0  0.10768  0.28606  0.60924  1.0000
  C   C158      1.0  0.14061  0.26976  0.65343  1.0000
  H   H121      1.0  0.47624  0.28103  0.64746  1.0000
  C   C159      1.0  0.32678  0.18064  0.92641  1.0000
  C   C160      1.0  0.19148  0.24438  0.72245  1.0000
  C   C161      1.0  0.03752  0.20896  0.87805  1.0000
  C   C162      1.0  0.26386  0.21562  0.52814  1.0000
  C   C163      1.0  0.06185  0.15459  0.96773  1.0000
  C   C164      1.0  0.11962  0.09612  0.87313  1.0000
  C   C165      1.0  0.08253  0.07238  0.53138  1.0000
  C   C166      1.0  0.43389  0.23371  0.57530  1.0000
  H   H122      1.0  0.35560  0.30502  0.93152  1.0000
  C   C167      1.0  0.02932  0.16901  0.55467  1.0000
  C   C168      1.0  0.32409  0.27683  0.58300  1.0000
  C   C169      1.0  0.30249  0.24213  0.88452  1.0000
  C   C170      1.0  0.37403  0.17736  0.87265  1.0000
  C   C171      1.0  0.07045  0.19143  0.61403  1.0000
  P   P7        1.0  0.32674  0.22128  0.56801  1.0000
  H   H123      1.0  0.42102  0.30380  0.66449  1.0000
  C   C172      1.0  0.33311  0.23683  0.89221  1.0000
  H   H124      1.0  0.40710  0.28722  0.97837  1.0000
  C   C173      1.0  0.16230  0.23567  0.71671  1.0000
  C   C174      1.0  0.13697  0.24800  0.68198  1.0000
  H   H125      1.0  0.27196  0.12024  0.91825  1.0000
  H   H126      1.0  0.07694  0.15874  0.57461  1.0000
  C   C175      1.0  0.43358  0.24474  0.53247  1.0000
  H   H127      1.0  0.36696  0.25767  0.54028  1.0000
  H   H128      1.0  0.31049  0.17731  0.62200  1.0000
  C   C176      1.0  0.35830  0.19843  0.59766  1.0000
  C   C177      1.0  0.42514  0.17966  0.87283  1.0000
  C   C178      1.0  0.38127  0.19634  0.90789  1.0000
  H   H129      1.0  0.12554  0.07590  0.93947  1.0000
  H   H130      1.0  0.38605  0.22813  0.64460  1.0000
  H   H131      1.0  0.13449  0.08220  0.86498  1.0000
  C   C179      1.0  0.29001  0.18455  0.59397  1.0000
  H   H132      1.0  0.01553  0.20337  0.87860  1.0000
  C   C180      1.0  0.40650  0.16215  0.64465  1.0000
  H   H133      1.0  0.44844  0.27696  0.49726  1.0000
  H   H134      1.0  0.99838  0.16168  0.92277  1.0000
  H   H135      1.0  0.09152  0.10740  0.95786  1.0000
  C   C181      1.0  0.26224  0.17314  0.59058  1.0000
  H   H136      1.0  0.29020  0.22885  0.90014  1.0000
  H   H137      1.0  0.05725  0.22404  0.64756  1.0000
  H   H138      1.0  0.37260  0.25195  0.87948  1.0000
  C   C182      1.0  0.33002  0.16396  0.96625  1.0000
  C   C183      1.0  0.30288  0.28220  0.83613  1.0000
  H   H139      1.0  0.34569  0.29137  0.82966  1.0000
  H   H140      1.0  0.11461  0.24041  0.67733  1.0000
  C   C184      1.0  0.29110  0.20551  0.56211  1.0000
  C   C185      1.0  0.34874  0.25507  0.87301  1.0000
  H   H141      1.0  0.42481  0.14802  0.66365  1.0000
  H   H142      1.0  0.17374  0.29523  0.63855  1.0000
  C   C186      1.0  0.22153  0.99143  0.69944  1.0000
  C   C187      1.0  0.06041  0.17173  0.58042  1.0000
  H   H143      1.0  0.09437  0.19268  0.63513  1.0000
  C   C188      1.0  0.02274  0.28010  0.61540  1.0000
  H   H144      1.0  0.11545  0.23046  0.87416  1.0000
  C   C189      1.0  0.40804  0.18914  0.65759  1.0000
  H   H145      1.0  0.41658  0.22257  0.95059  1.0000
  H   H146      1.0  0.21513  0.21192  0.49870  1.0000
  H   H147      1.0  0.12410  0.12965  0.49912  1.0000
  H   H148      1.0  0.10441  0.29382  0.70153  1.0000
  C   C190      1.0  0.39642  0.31201  0.59156  1.0000
  Fe  Fe12      1.0  0.41732  0.30016  0.75906  1.0000
  H   H149      1.0  0.00987  0.28266  0.67549  1.0000
  C   C191      1.0  0.01865  0.20666  0.59520  1.0000
  H   H150      1.0  0.00733  0.18251  0.73512  1.0000
  H   H151      1.0  0.32959  0.31162  0.67909  1.0000
  H   H152      1.0  0.08704  0.19228  0.98099  1.0000
  C   C192      1.0  0.32941  0.23014  0.51196  1.0000
  C   C193      1.0  0.01647  0.14504  0.87392  1.0000
  C   C194      1.0  0.05773  0.28904  0.69329  1.0000
  H   H153      1.0  0.26403  0.23270  0.50482  1.0000
  H   H154      1.0  0.42185  0.23435  0.50055  1.0000
  H   H155      1.0  0.99988  0.27604  0.59171  1.0000
  H   H156      1.0  0.00246  0.21992  0.60148  1.0000
  H   H157      1.0  0.06185  0.29166  0.72996  1.0000
  H   H158      1.0  0.21342  0.31246  0.60586  1.0000
  H   H159      1.0  0.01693  0.05244  0.50403  1.0000
  H   H160      1.0  0.99986  0.98259  0.82993  1.0000
  H   H161      1.0  0.33985  0.25267  0.98055  1.0000
  C   C195      1.0  0.25978  0.30072  0.49268  1.0000
  C   C196      1.0  0.06747  0.08400  0.48644  1.0000
  Fe  Fe13      1.0  0.34947  0.35577  0.33902  1.0000
  S   S24       1.0  0.36227  0.37899  0.40491  1.0000
  S   S25       1.0  0.38298  0.35316  0.30070  1.0000
  Fe  Fe14      1.0  0.28583  0.34168  0.34112  1.0000
  S   S26       1.0  0.29468  0.36341  0.40778  1.0000
  C   C197      1.0  0.19903  0.31870  0.33640  1.0000
  Fe  Fe15      1.0  0.31517  0.39698  0.37602  1.0000
  S   S27       1.0  0.30520  0.44034  0.39214  1.0000
  Fe  Fe16      1.0  0.34118  0.34473  0.43195  1.0000
  C   C198      1.0  0.39177  0.39010  0.10457  1.0000
  S   S28       1.0  0.30318  0.37640  0.30711  1.0000
  Fe  Fe17      1.0  0.34647  0.60533  0.36941  1.0000
  C   C199      1.0  0.47293  0.35728  0.17218  1.0000
  S   S29       1.0  0.35216  0.55952  0.36085  1.0000
  C   C200      1.0  0.46056  0.53994  0.43416  1.0000
  C   C201      1.0  0.43402  0.52587  0.41093  1.0000
  S   S30       1.0  0.39229  0.62516  0.39462  1.0000
  C   C202      1.0  0.12183  0.32038  0.42476  1.0000
  H   H162      1.0  0.39860  0.39184  0.07457  1.0000
  C   C203      1.0  0.31909  0.47318  0.38375  1.0000
  C   C204      1.0  0.30868  0.49604  0.39992  1.0000
  C   C205      1.0  0.31850  0.52256  0.39346  1.0000
  C   C206      1.0  0.33888  0.52662  0.37051  1.0000
  C   C207      1.0  0.34953  0.50374  0.35476  1.0000
  C   C208      1.0  0.33987  0.47720  0.36148  1.0000
  H   H163      1.0  0.29259  0.49323  0.41715  1.0000
  H   H164      1.0  0.31002  0.53984  0.40574  1.0000
  H   H165      1.0  0.36503  0.50662  0.33650  1.0000
  H   H166      1.0  0.34804  0.45994  0.34867  1.0000
  H   H167      1.0  0.41477  0.53648  0.38474  1.0000
  C   C209      1.0  0.48540  0.52620  0.46754  1.0000
  P   P8        1.0  0.45400  0.44811  0.46668  1.0000
  S   S31       1.0  0.32829  0.63426  0.30568  1.0000
  C   C210      1.0  0.36922  0.41062  0.15457  1.0000
  H   H168      1.0  0.44145  0.62461  0.05613  1.0000
  C   C211      1.0  0.39683  0.32765  0.05889  1.0000
  H   H169      1.0  0.36867  0.38545  0.21338  1.0000
  C   C212      1.0  0.45382  0.35063  0.12695  1.0000
  H   H170      1.0  0.44973  0.35033  0.05416  1.0000
  H   H171      1.0  0.41176  0.48736  0.40178  1.0000
  H   H172      1.0  0.48008  0.42298  0.33168  1.0000
  H   H173      1.0  0.41212  0.34389  0.41282  1.0000
  H   H174      1.0  0.36572  0.56601  0.46269  1.0000
  C   C213      1.0  0.45659  0.48431  0.45597  1.0000
  H   H175      1.0  0.11017  0.33961  0.41127  1.0000
  H   H176      1.0  0.39845  0.42708  0.39614  1.0000
  C   C214      1.0  0.46398  0.35466  0.08960  1.0000
  C   C215      1.0  0.45933  0.31855  0.29337  1.0000
  H   H177      1.0  0.35835  0.42784  0.16318  1.0000
  H   H178      1.0  0.39386  0.34658  0.19524  1.0000
  C   C216      1.0  0.37771  0.41234  0.11554  1.0000
  C   C217      1.0  0.39718  0.36583  0.13232  1.0000
  H   H179      1.0  0.11504  0.62431  0.99071  1.0000
  H   H180      1.0  0.46544  0.35452  0.20141  1.0000
  C   C218      1.0  0.41682  0.42570  0.38335  1.0000
  C   C219      1.0  0.41356  0.32990  0.30902  1.0000
  C   C220      1.0  0.38911  0.36449  0.17201  1.0000
  H   H181      1.0  0.47561  0.32395  0.27748  1.0000
  C   C221      1.0  0.43224  0.49810  0.42113  1.0000
  H   H182      1.0  0.22026  0.34769  0.47889  1.0000
  C   C222      1.0  0.46878  0.43375  0.39068  1.0000
  H   H183      1.0  0.37355  0.43100  0.09396  1.0000
  H   H184      1.0  0.47038  0.64182  0.34214  1.0000
  C   C223      1.0  0.47735  0.63996  0.11570  1.0000
  C   C224      1.0  0.44322  0.33173  0.48203  1.0000
  C   C225      1.0  0.45831  0.35142  0.42040  1.0000
  C   C226      1.0  0.44628  0.43388  0.41033  1.0000
  C   C227      1.0  0.37500  0.38674  0.18281  1.0000
  C   C228      1.0  0.15179  0.31990  0.45670  1.0000
  H   H185      1.0  0.38764  0.40978  0.31825  1.0000
  P   P9        1.0  0.41641  0.33787  0.11805  1.0000
  C   C229      1.0  0.41045  0.41611  0.33870  1.0000
  S   S32       1.0  0.24588  0.31422  0.30159  1.0000
  C   C230      1.0  0.48873  0.34870  0.44979  1.0000
  S   S33       1.0  0.32836  0.63104  0.41366  1.0000
  H   H186      1.0  0.49803  0.62292  0.44400  1.0000
  C   C231      1.0  0.36725  0.33708  0.03259  1.0000
  H   H187      1.0  0.45226  0.35987  0.38495  1.0000
  C   C232      1.0  0.48343  0.49850  0.47872  1.0000
  H   H188      1.0  0.21331  0.33270  0.36100  1.0000
  C   C233      1.0  0.43562  0.34268  0.43636  1.0000
  H   H189      1.0  0.35552  0.35065  0.04725  1.0000
  H   H190      1.0  0.42830  0.40671  0.28603  1.0000
  C   C234      1.0  0.43523  0.33659  0.28900  1.0000
  C   C235      1.0  0.46248  0.42361  0.34628  1.0000
  H   H191      1.0  0.43349  0.35592  0.27011  1.0000
  H   H192      1.0  0.49118  0.44150  0.40965  1.0000
  H   H193      1.0  0.49045  0.62117  0.12357  1.0000
  H   H194      1.0  0.16252  0.32072  0.36254  1.0000
  H   H195      1.0  0.46188  0.56143  0.42582  1.0000
  C   C236      1.0  0.43334  0.41461  0.32042  1.0000
  S   S34       1.0  0.33141  0.32025  0.36816  1.0000
  H   H196      1.0  0.16268  0.33907  0.46744  1.0000
  H   H197      1.0  0.40198  0.52743  0.48273  1.0000
  H   H198      1.0  0.40258  0.48002  0.47412  1.0000
  C   C237      1.0  0.49325  0.36420  0.09783  1.0000
  C   C238      1.0  0.44978  0.64192  0.07768  1.0000
  C   C239      1.0  0.42291  0.43960  0.48544  1.0000
  C   C240      1.0  0.35240  0.32889  0.98678  1.0000
  C   C241      1.0  0.40097  0.45904  0.48429  1.0000
  H   H199      1.0  0.35655  0.36954  0.63013  1.0000
  P   P10       1.0  0.48369  0.31401  0.57083  1.0000
  H   H200      1.0  0.36025  0.64174  0.53664  1.0000
  H   H201      1.0  0.38229  0.61062  0.49734  1.0000
  H   H202      1.0  0.13898  0.39451  0.57348  1.0000
  H   H203      1.0  0.09704  0.33913  0.64217  1.0000
  C   C242      1.0  0.23098  0.37693  0.58182  1.0000
  C   C243      1.0  0.39806  0.59361  0.50665  1.0000
  H   H204      1.0  0.42529  0.32483  0.49356  1.0000
  H   H205      1.0  0.11082  0.38580  0.62651  1.0000
  H   H206      1.0  0.23705  0.39629  0.59819  1.0000
  H   H207      1.0  0.15333  0.35615  0.53593  1.0000
  H   H208      1.0  0.22669  0.35664  0.64251  1.0000
  C   C244      1.0  0.47549  0.33717  0.60893  1.0000
  H   H209      1.0  0.45422  0.62417  0.70146  1.0000
  C   C245      1.0  0.36806  0.35374  0.61935  1.0000
  C   C246      1.0  0.41948  0.41243  0.49845  1.0000
  C   C247      1.0  0.48935  0.60605  0.62765  1.0000
  C   C248      1.0  0.13301  0.37389  0.58030  1.0000
  H   H210      1.0  0.45056  0.59075  0.64221  1.0000
  C   C249      1.0  0.02852  0.63060  0.96320  1.0000
  C   C250      1.0  0.36170  0.35039  0.57120  1.0000
  H   H211      1.0  0.42372  0.38545  0.60789  1.0000
  C   C251      1.0  0.11727  0.32053  0.59767  1.0000
  H   H212      1.0  0.02890  0.58675  0.96662  1.0000
  P   P11       1.0  0.48776  0.58045  0.58624  1.0000
  C   C252      1.0  0.21773  0.32950  0.58585  1.0000
  C   C253      1.0  0.49358  0.60401  0.50553  1.0000
  C   C254      1.0  0.47045  0.62451  0.68408  1.0000
  H   H213      1.0  0.34549  0.36365  0.54497  1.0000
  C   C255      1.0  0.37570  0.45127  0.49481  1.0000
  C   C256      1.0  0.11716  0.36898  0.61018  1.0000
  C   C257      1.0  0.45976  0.36978  0.66961  1.0000
  C   C258      1.0  0.47373  0.32913  0.51212  1.0000
  C   C259      1.0  0.49268  0.64448  0.69434  1.0000
  C   C260      1.0  0.44874  0.57527  0.54905  1.0000
  C   C261      1.0  0.48433  0.35167  0.68751  1.0000
  C   C262      1.0  0.10933  0.34241  0.61893  1.0000
  C   C263      1.0  0.22915  0.37431  0.53579  1.0000
  C   C264      1.0  0.22518  0.35457  0.60678  1.0000
  C   C265      1.0  0.37541  0.32890  0.55749  1.0000
  C   C266      1.0  0.45103  0.35565  0.59126  1.0000
  C   C267      1.0  0.38828  0.33580  0.65342  1.0000
  H   H214      1.0  0.45486  0.53289  0.53749  1.0000
  S   S35       1.0  0.39305  0.33702  0.71319  1.0000
  C   C268      1.0  0.42793  0.59709  0.53719  1.0000
  H   H215      1.0  0.46909  0.60615  0.49121  1.0000
  H   H216      1.0  0.43570  0.39695  0.49848  1.0000
  H   H217      1.0  0.49679  0.34967  0.72492  1.0000
  C   C269      1.0  0.09083  0.62608  0.98255  1.0000
  H   H218      1.0  0.48200  0.45750  0.56619  1.0000
  H   H219      1.0  0.43485  0.61700  0.55078  1.0000
  H   H220      1.0  0.23375  0.39162  0.51642  1.0000
  H   H221      1.0  0.45295  0.38157  0.69319  1.0000
  H   H222      1.0  0.32974  0.33646  0.96639  1.0000
  C   C270      1.0  0.44330  0.37195  0.62148  1.0000
  H   H223      1.0  0.43710  0.35674  0.55455  1.0000
  C   C271      1.0  0.46848  0.60561  0.65045  1.0000
  C   C272      1.0  0.21609  0.32664  0.53970  1.0000
  C   C273      1.0  0.14104  0.35224  0.55906  1.0000
  C   C274      1.0  0.13319  0.32566  0.56759  1.0000
  C   C275      1.0  0.39429  0.40480  0.50937  1.0000
  C   C276      1.0  0.22165  0.34932  0.51472  1.0000
  H   H224      1.0  0.31981  0.31918  0.59460  1.0000
  C   C277      1.0  0.49647  0.33768  0.49544  1.0000
  C   C278      1.0  0.43922  0.54995  0.52960  1.0000
  H   H225      1.0  0.48696  0.55360  0.67363  1.0000
  S   S36       1.0  0.36694  0.32092  0.49889  1.0000
  C   C279      1.0  0.49223  0.33544  0.65739  1.0000
  H   H226      1.0  0.35812  0.46610  0.49174  1.0000
  C   C280      1.0  0.40348  0.31596  0.63908  1.0000
  C   C281      1.0  0.37228  0.42416  0.50712  1.0000
  C   C282      1.0  0.38875  0.56847  0.48723  1.0000
  H   H227      1.0  0.00455  0.63194  0.95715  1.0000
  C   C283      1.0  0.49564  0.44228  0.55822  1.0000
  H   H228      1.0  0.08410  0.58273  0.98318  1.0000
  C   C284      1.0  0.04231  0.60492  0.96901  1.0000
  C   C285      1.0  0.40931  0.54666  0.49869  1.0000
  H   H229      1.0  0.35212  0.41805  0.51360  1.0000
  H   H230      1.0  0.39103  0.38365  0.51750  1.0000
  H   H231      1.0  0.24652  0.63783  0.51321  1.0000
  C   C286      1.0  0.07342  0.60265  0.97845  1.0000
  H   H232      1.0  0.35986  0.63645  0.61744  1.0000
  C   C287      1.0  0.48771  0.43382  0.51220  1.0000
  Fe  Fe18      1.0  0.10159  0.80442  0.30961  1.0000
  S   S37       1.0  0.08983  0.76654  0.34181  1.0000
  S   S38       1.0  0.12381  0.84003  0.35365  1.0000
  Fe  Fe19      1.0  0.07473  0.78250  0.21046  1.0000
  S   S39       1.0  0.06140  0.74322  0.23757  1.0000
  S   S40       1.0  0.07242  0.79188  0.13547  1.0000
  Fe  Fe20      1.0  0.04500  0.76997  0.28206  1.0000
  Fe  Fe21      1.0  0.10778  0.74408  0.29517  1.0000
  S   S41       1.0  0.13833  0.70640  0.32396  1.0000
  S   S42       1.0  0.05582  0.80908  0.25174  1.0000
  S   S43       1.0  0.12195  0.78189  0.26599  1.0000
  S   S44       1.0  0.35754  0.68389  0.37379  1.0000
  C   C288      1.0  0.44607  0.74929  0.09590  1.0000
  C   C289      1.0  0.42999  0.72351  0.44010  1.0000
  S   S45       1.0  0.27386  0.69252  0.32834  1.0000
  C   C290      1.0  0.47130  0.68663  0.13312  1.0000
  C   C291      1.0  0.06736  0.71868  0.09131  1.0000
  C   C292      1.0  0.05207  0.85877  0.40728  1.0000
  H   H233      1.0  0.09545  0.76233  0.43901  1.0000
  C   C293      1.0  0.15993  0.70571  0.45118  1.0000
  C   C294      1.0  0.02227  0.79507  0.99538  1.0000
  C   C295      1.0  0.48159  0.79629  0.11742  1.0000
  C   C296      1.0  0.42864  0.68695  0.28508  1.0000
  C   C297      1.0  0.43194  0.71158  0.30750  1.0000
  C   C298      1.0  0.45323  0.73083  0.30365  1.0000
  C   C299      1.0  0.47216  0.72535  0.27881  1.0000
  C   C300      1.0  0.46923  0.70052  0.25717  1.0000
  C   C301      1.0  0.44722  0.68173  0.25953  1.0000
  H   H234      1.0  0.41778  0.71601  0.32708  1.0000
  H   H235      1.0  0.45503  0.75010  0.32001  1.0000
  C   C302      1.0  0.15965  0.74791  0.01654  1.0000
  H   H236      1.0  0.05267  0.89870  0.43253  1.0000
  C   C303      1.0  0.04265  0.78681  0.08070  1.0000
  C   C304      1.0  0.04522  0.79837  0.03965  1.0000
  H   H237      1.0  0.39929  0.67473  0.12650  1.0000
  S   S46       1.0  0.00258  0.76352  0.30008  1.0000
  H   H238      1.0  0.25084  0.73200  0.45159  1.0000
  C   C305      1.0  0.17652  0.70297  0.32714  1.0000
  C   C306      1.0  0.19119  0.67735  0.33889  1.0000
  C   C307      1.0  0.22110  0.67370  0.34024  1.0000
  C   C308      1.0  0.23679  0.69574  0.33015  1.0000
  C   C309      1.0  0.22243  0.72149  0.31990  1.0000
  C   C310      1.0  0.19250  0.72509  0.31818  1.0000
  H   H239      1.0  0.23458  0.73877  0.31305  1.0000
  H   H240      1.0  0.18172  0.74494  0.30987  1.0000
  C   C311      1.0  0.01686  0.77165  0.07686  1.0000
  C   C312      1.0  0.14066  0.85602  0.44480  1.0000
  C   C313      1.0  0.13448  0.83417  0.41477  1.0000
  C   C314      1.0  0.13673  0.80767  0.43380  1.0000
  H   H241      1.0  0.13929  0.87664  0.43043  1.0000
  H   H242      1.0  0.13353  0.79071  0.41173  1.0000
  C   C315      1.0  0.44997  0.76581  0.06008  1.0000
  C   C316      1.0  0.21127  0.76304  0.47156  1.0000
  C   C317      1.0  0.48126  0.72818  0.44067  1.0000
  H   H243      1.0  0.31151  0.75168  0.20814  1.0000
  C   C318      1.0  0.46041  0.75651  0.14261  1.0000
  C   C319      1.0  0.13039  0.69595  0.43870  1.0000
  C   C320      1.0  0.02416  0.69236  0.09139  1.0000
  C   C321      1.0  0.06137  0.71220  0.04495  1.0000
  H   H244      1.0  0.45773  0.74428  0.17102  1.0000
  H   H245      1.0  0.39596  0.76260  0.12177  1.0000
  C   C322      1.0  0.02037  0.84619  0.15441  1.0000
  H   H246      1.0  0.04137  0.84279  0.14881  1.0000
  C   C323      1.0  0.33625  0.71879  0.46470  1.0000
  C   C324      1.0  0.07594  0.76071  0.44922  1.0000
  C   C325      1.0  0.13045  0.70961  0.20887  1.0000
  C   C326      1.0  0.48795  0.66222  0.14366  1.0000
  H   H247      1.0  0.23181  0.65378  0.34843  1.0000
  C   C327      1.0  0.17992  0.70195  0.18174  1.0000
  C   C328      1.0  0.16822  0.72831  0.18031  1.0000
  C   C329      1.0  0.14281  0.73186  0.19268  1.0000
  P   P12       1.0  0.18311  0.75692  0.15738  1.0000
  C   C330      1.0  0.16242  0.75743  0.09495  1.0000
  C   C331      1.0  0.17732  0.78735  0.18403  1.0000
  C   C332      1.0  0.18814  0.78794  0.23302  1.0000
  C   C333      1.0  0.18379  0.81109  0.25477  1.0000
  C   C334      1.0  0.16841  0.83378  0.22770  1.0000
  C   C335      1.0  0.15816  0.83361  0.17888  1.0000
  C   C336      1.0  0.16294  0.81063  0.15704  1.0000
  C   C337      1.0  0.17605  0.74797  0.06477  1.0000
  H   H248      1.0  0.13438  0.66672  0.22719  1.0000
  Fe  Fe22      1.0  0.31327  0.66124  0.35136  1.0000
  H   H249      1.0  0.46984  0.80221  0.04302  1.0000
  C   C338      1.0  0.13166  0.76532  0.07642  1.0000
  C   C339      1.0  0.22378  0.75464  0.17313  1.0000
  C   C340      1.0  0.24193  0.73836  0.21198  1.0000
  C   C341      1.0  0.43293  0.66622  0.06733  1.0000
  H   H250      1.0  0.17917  0.66011  0.34626  1.0000
  C   C342      1.0  0.03706  0.83396  0.39808  1.0000
  C   C343      1.0  0.49084  0.65337  0.35845  1.0000
  H   H251      1.0  0.11141  0.71253  0.21969  1.0000
  C   C344      1.0  0.37019  0.71693  0.18417  1.0000
  H   H252      1.0  0.24511  0.82490  0.47863  1.0000
  C   C345      1.0  0.26526  0.69061  0.45453  1.0000
  H   H253      1.0  0.13247  0.75178  0.18986  1.0000
  H   H254      1.0  0.19970  0.77036  0.25434  1.0000
  H   H255      1.0  0.19168  0.81119  0.29260  1.0000
  H   H256      1.0  0.16428  0.85141  0.24459  1.0000
  H   H257      1.0  0.14622  0.85120  0.15789  1.0000
  H   H258      1.0  0.15522  0.81121  0.11928  1.0000
  H   H259      1.0  0.19919  0.74036  0.07830  1.0000
  C   C346      1.0  0.39274  0.69372  0.13680  1.0000
  H   H260      1.0  0.43903  0.78595  0.39580  1.0000
  H   H261      1.0  0.99896  0.81149  0.11695  1.0000
  H   H262      1.0  0.12025  0.77162  0.09921  1.0000
  H   H263      1.0  0.23207  0.72661  0.23325  1.0000
  H   H264      1.0  0.46415  0.69221  0.46576  1.0000
  H   H265      1.0  0.04599  0.81770  0.38384  1.0000
  C   C347      1.0  0.02602  0.75561  0.47663  1.0000
  C   C348      1.0  0.24998  0.71173  0.46607  1.0000
  H   H266      1.0  0.29050  0.77330  0.41360  1.0000
  C   C349      1.0  0.04874  0.70883  0.11448  1.0000
  C   C350      1.0  0.31737  0.73649  0.42937  1.0000
  H   H267      1.0  0.37066  0.76069  0.17913  1.0000
  H   H268      1.0  0.31123  0.73167  0.39296  1.0000
  C   C351      1.0  0.42271  0.74983  0.42038  1.0000
  H   H269      1.0  0.17648  0.74907  0.40831  1.0000
  C   C352      1.0  0.39089  0.74299  0.13439  1.0000
  H   H270      1.0  0.48916  0.78518  0.18942  1.0000
  H   H271      1.0  0.09096  0.69257  0.45752  1.0000
  H   H272      1.0  0.48005  0.70356  0.15526  1.0000
  H   H273      1.0  0.43949  0.76089  0.02374  1.0000
  C   C353      1.0  0.03783  0.94600  0.46482  1.0000
  C   C354      1.0  0.47380  0.75485  0.42143  1.0000
  C   C355      1.0  0.16791  0.67982  0.19894  1.0000
  C   C356      1.0  0.23785  0.77083  0.14840  1.0000
  H   H274      1.0  0.41294  0.71141  0.44719  1.0000
  H   H275      1.0  0.05329  0.71412  0.15022  1.0000
  C   C357      1.0  0.47815  0.77984  0.15324  1.0000
  H   H276      1.0  0.03704  0.88077  0.19666  1.0000
  C   C358      1.0  0.39971  0.71882  0.11986  1.0000
  C   C359      1.0  0.30576  0.75996  0.44106  1.0000
  H   H277      1.0  0.41134  0.66710  0.03830  1.0000
  H   H278      1.0  0.48352  0.69599  0.23790  1.0000
  H   H279      1.0  0.06494  0.81030  0.04217  1.0000
  C   C360      1.0  0.26936  0.76964  0.16077  1.0000
  H   H280      1.0  0.00988  0.68457  0.10949  1.0000
  S   S47       1.0  0.40127  0.66226  0.28637  1.0000
  H   H281      1.0  0.17520  0.79096  0.36145  1.0000
  H   H282      1.0  0.40004  0.75797  0.41221  1.0000
  P   P13       1.0  0.42153  0.72003  0.08234  1.0000
  C   C361      1.0  0.23045  0.80813  0.46331  1.0000
  C   C362      1.0  0.01797  0.68598  0.04491  1.0000
  C   C363      1.0  0.04921  0.74923  0.41947  1.0000
  C   C364      1.0  0.19122  0.78895  0.39724  1.0000
  H   H283      1.0  0.28714  0.72426  0.25394  1.0000
  H   H284      1.0  0.08621  0.73167  0.10918  1.0000
  H   H285      1.0  0.35895  0.74061  0.03392  1.0000
  C   C365      1.0  0.19175  0.76527  0.42434  1.0000
  C   C366      1.0  0.44400  0.68905  0.09420  1.0000
  H   H286      1.0  0.12027  0.68542  0.40639  1.0000
  H   H287      1.0  0.01453  0.76251  0.10799  1.0000
  H   H288      1.0  0.35993  0.71600  0.21045  1.0000
  H   H289      1.0  0.44479  0.66284  0.24184  1.0000
  H   H290      1.0  0.34472  0.70021  0.45593  1.0000
  C   C367      1.0  0.11536  0.76530  0.02817  1.0000
  C   C368      1.0  0.27340  0.73718  0.22422  1.0000
  H   H291      1.0  0.07279  0.86159  0.40035  1.0000
  H   H292      1.0  0.17235  0.70209  0.42852  1.0000
  C   C369      1.0  0.37800  0.69284  0.16874  1.0000
  C   C370      1.0  0.03622  0.69628  0.02109  1.0000
  C   C371      1.0  0.37639  0.74201  0.16671  1.0000
  C   C372      1.0  0.36766  0.73441  0.00785  1.0000
  H   H293      1.0  0.28005  0.78199  0.14127  1.0000
  C   C373      1.0  0.45909  0.71271  0.45038  1.0000
  H   H294      1.0  0.17789  0.65972  0.20206  1.0000
  C   C374      1.0  0.01793  0.86754  0.18138  1.0000
  C   C375      1.0  0.02426  0.74670  0.43311  1.0000
  Fe  Fe23      1.0  0.37301  0.65262  0.43331  1.0000
  H   H295      1.0  0.47095  0.67637  0.39729  1.0000
  H   H296      1.0  0.04784  0.74213  0.38588  1.0000
  C   C376      1.0  0.11393  0.70000  0.46744  1.0000
  C   C377      1.0  0.28711  0.75267  0.19848  1.0000
  H   H297      1.0  0.19862  0.69848  0.17033  1.0000
  C   C378      1.0  0.04045  0.87982  0.42537  1.0000
  C   C379      1.0  0.49123  0.67324  0.38986  1.0000
  H   H298      1.0  0.02758  0.94763  0.42701  1.0000
  C   C380      1.0  0.44464  0.76553  0.41120  1.0000
  S   S48       1.0  0.49753  0.75081  0.27288  1.0000
  C   C381      1.0  0.21020  0.81053  0.41687  1.0000
  C   C382      1.0  0.39700  0.72322  0.02119  1.0000
  H   H299      1.0  0.37364  0.67342  0.18301  1.0000
  H   H300      1.0  0.20880  0.82925  0.39624  1.0000
  H   H301      1.0  0.22445  0.78444  0.11963  1.0000
  H   H302      1.0  0.07636  0.71965  0.02790  1.0000
  H   H303      1.0  0.09177  0.77182  0.01406  1.0000
  C   C383      1.0  0.12941  0.75677  0.99822  1.0000
  C   C384      1.0  0.14329  0.68369  0.21279  1.0000
  Fe  Fe24      1.0  0.37366  0.65497  0.33343  1.0000
  H   H304      1.0  0.47818  0.68705  0.03307  1.0000
  C   C385      1.0  0.49766  0.69754  0.03088  1.0000
  H   H305      1.0  0.27728  0.69461  0.43105  1.0000
  H   H306      1.0  0.43049  0.70780  0.99540  1.0000
  C   C386      1.0  0.46736  0.78935  0.07086  1.0000
  H   H307      1.0  0.49016  0.76755  0.41383  1.0000
  C   C387      1.0  0.01036  0.83018  0.40678  1.0000
  H   H308      1.0  0.00358  0.73779  0.40974  1.0000
  C   C388      1.0  0.26428  0.66408  0.47185  1.0000
  C   C389      1.0  0.01360  0.87616  0.43430  1.0000
  C   C390      1.0  0.14408  0.80287  0.48186  1.0000
  H   H309      1.0  0.17036  0.74094  0.99329  1.0000
  H   H310      1.0  0.49541  0.81433  0.12585  1.0000
  H   H311      1.0  0.99894  0.67306  0.02754  1.0000
  P   P14       1.0  0.99866  0.90271  0.45924  1.0000
  H   H312      1.0  0.06906  0.97863  0.46838  1.0000
  H   H313      1.0  0.27597  0.64780  0.46236  1.0000
  C   C391      1.0  0.99845  0.85123  0.42429  1.0000
  H   H314      1.0  0.99863  0.81101  0.39924  1.0000
  C   C392      1.0  0.40773  0.71585  0.98626  1.0000
  Fe  Fe25      1.0  0.20513  0.89148  0.69196  1.0000
  S   S49       1.0  0.21281  0.86708  0.75946  1.0000
  S   S50       1.0  0.22227  0.93545  0.69667  1.0000
  Fe  Fe26      1.0  0.17696  0.84295  0.63299  1.0000
  S   S51       1.0  0.18250  0.81610  0.69653  1.0000
  S   S52       1.0  0.15605  0.81656  0.57104  1.0000
  Fe  Fe27      1.0  0.16535  0.85147  0.72304  1.0000
  S   S53       1.0  0.12844  0.85139  0.75488  1.0000
  Fe  Fe28      1.0  0.22945  0.83335  0.72672  1.0000
  S   S54       1.0  0.26636  0.80088  0.76256  1.0000
  S   S55       1.0  0.15695  0.87784  0.65766  1.0000
  S   S56       1.0  0.22477  0.85833  0.66152  1.0000
  Fe  Fe29      1.0  0.46389  0.70128  0.85975  1.0000
  S   S57       1.0  0.47774  0.74097  0.83515  1.0000
  S   S58       1.0  0.47044  0.69099  0.93623  1.0000
  Fe  Fe30      1.0  0.43015  0.68463  0.75842  1.0000
  S   S59       1.0  0.44184  0.72348  0.72906  1.0000
  C   C393      1.0  0.21599  0.76393  0.58339  1.0000
  H   H315      1.0  0.02067  0.85777  0.52824  1.0000
  Fe  Fe31      1.0  0.42939  0.74393  0.78347  1.0000
  S   S60       1.0  0.40047  0.78301  0.76348  1.0000
  S   S61       1.0  0.47742  0.67592  0.81053  1.0000
  S   S62       1.0  0.41504  0.70541  0.81020  1.0000
  S   S63       1.0  0.03263  0.76133  0.76427  1.0000
  H   H316      1.0  0.15923  0.95391  0.64468  1.0000
  C   C394      1.0  0.31419  0.83488  0.58184  1.0000
  C   C395      1.0  0.24699  0.75197  0.66406  1.0000
  C   C396      1.0  0.06396  0.75165  0.88126  1.0000
  H   H317      1.0  0.19971  0.77771  0.55822  1.0000
  C   C397      1.0  0.42638  0.78769  0.66761  1.0000
  H   H318      1.0  0.43425  0.80104  0.69673  1.0000
  C   C398      1.0  0.42348  0.67737  0.59499  1.0000
  H   H319      1.0  0.44096  0.68344  0.66878  1.0000
  H   H320      1.0  0.21849  0.67474  0.53264  1.0000
  H   H321      1.0  0.16072  0.75836  0.67247  1.0000
  C   C399      1.0  0.43702  0.75653  0.61677  1.0000
  C   C400      1.0  0.20399  0.96811  0.68373  1.0000
  H   H322      1.0  0.04448  0.92044  0.78401  1.0000
  H   H323      1.0  0.12078  0.78864  0.61915  1.0000
  C   C401      1.0  0.28908  0.80676  0.62271  1.0000
  C   C402      1.0  0.30295  0.79591  0.75984  1.0000
  C   C403      1.0  0.31872  0.77127  0.77822  1.0000
  C   C404      1.0  0.34820  0.76670  0.77850  1.0000
  C   C405      1.0  0.36249  0.78691  0.76090  1.0000
  C   C406      1.0  0.34659  0.81140  0.74195  1.0000
  C   C407      1.0  0.31697  0.81586  0.74121  1.0000
  H   H324      1.0  0.30814  0.75569  0.79272  1.0000
  H   H325      1.0  0.36007  0.74777  0.79318  1.0000
  H   H326      1.0  0.35736  0.82718  0.72816  1.0000
  H   H327      1.0  0.30524  0.83494  0.72710  1.0000
  C   C408      1.0  0.05931  0.78650  0.76220  1.0000
  C   C409      1.0  0.05997  0.81205  0.78076  1.0000
  C   C410      1.0  0.08121  0.83157  0.77802  1.0000
  C   C411      1.0  0.10230  0.82578  0.75713  1.0000
  C   C412      1.0  0.10188  0.80012  0.73894  1.0000
  C   C413      1.0  0.08059  0.78059  0.74166  1.0000
  H   H328      1.0  0.04398  0.81688  0.79702  1.0000
  H   H329      1.0  0.08132  0.85130  0.79228  1.0000
  H   H330      1.0  0.11810  0.79527  0.72310  1.0000
  H   H331      1.0  0.08076  0.76071  0.72804  1.0000
  H   H332      1.0  0.21768  0.78733  0.64197  1.0000
  H   H333      1.0  0.07520  0.71817  0.84773  1.0000
  H   H334      1.0  0.06903  0.82209  0.50042  1.0000
  C   C414      1.0  0.37779  0.65092  0.56541  1.0000
  H   H335      1.0  0.34607  0.73344  0.88918  1.0000
  C   C415      1.0  0.10936  0.92251  0.71399  1.0000
  C   C416      1.0  0.38930  0.71923  0.93893  1.0000
  C   C417      1.0  0.36018  0.73047  0.92594  1.0000
  H   H336      1.0  0.32647  0.66552  0.69163  1.0000
  H   H337      1.0  0.30236  0.66681  0.60491  1.0000
  H   H338      1.0  0.07701  0.93964  0.60009  1.0000
  C   C418      1.0  0.31367  0.76613  0.48807  1.0000
  C   C419      1.0  0.33339  0.74880  0.52383  1.0000
  C   C420      1.0  0.10229  0.71376  0.64209  1.0000
  C   C421      1.0  0.40603  0.75129  0.59553  1.0000
  C   C422      1.0  0.05086  0.75959  0.91270  1.0000
  H   H339      1.0  0.27433  0.71565  0.67559  1.0000
  H   H340      1.0  0.45325  0.74590  0.60614  1.0000
  C   C423      1.0  0.01699  0.84370  0.67789  1.0000
  H   H341      1.0  0.34520  0.81423  0.55768  1.0000
  C   C424      1.0  0.42288  0.67489  0.64020  1.0000
  C   C425      1.0  0.34398  0.72475  0.51162  1.0000
  C   C426      1.0  0.40013  0.66003  0.64874  1.0000
  C   C427      1.0  0.24746  0.72322  0.60229  1.0000
  C   C428      1.0  0.37751  0.64805  0.61112  1.0000
  C   C429      1.0  0.99829  0.83596  0.70219  1.0000
  H   H342      1.0  0.14569  0.78218  0.49591  1.0000
  C   C430      1.0  0.02237  0.87128  0.67111  1.0000
  C   C431      1.0  0.01062  0.89124  0.69132  1.0000
  H   H343      1.0  0.02973  0.74623  0.96062  1.0000
  P   P15       1.0  0.01715  0.92701  0.68271  1.0000
  C   C432      1.0  0.01130  0.94495  0.72875  1.0000
  C   C433      1.0  0.05599  0.93509  0.69006  1.0000
  C   C434      1.0  0.07937  0.91536  0.70649  1.0000
  C   C435      1.0  0.08292  0.85699  0.54149  1.0000
  H   H344      1.0  0.03697  0.94434  0.84801  1.0000
  H   H345      1.0  0.40779  0.82468  0.86350  1.0000
  C   C436      1.0  0.06365  0.96231  0.68424  1.0000
  C   C437      1.0  0.07709  0.65179  0.97670  1.0000
  H   H346      1.0  0.07512  0.89464  0.71533  1.0000
  C   C438      1.0  0.00314  0.97219  0.80174  1.0000
  C   C439      1.0  0.02402  0.95064  0.81193  1.0000
  C   C440      1.0  0.02819  0.93713  0.77561  1.0000
  H   H347      1.0  0.25495  0.75639  0.70085  1.0000
  H   H348      1.0  0.07146  0.76693  0.86153  1.0000
  H   H349      1.0  0.47131  0.77807  0.67025  1.0000
  C   C441      1.0  0.17294  0.97156  0.65754  1.0000
  P   P16       1.0  0.05608  0.77971  0.56271  1.0000
  H   H350      1.0  0.32683  0.74691  0.95017  1.0000
  C   C442      1.0  0.12701  0.71390  0.50867  1.0000
  H   H351      1.0  0.04647  0.97825  0.67465  1.0000
  P   P17       1.0  0.02860  0.68737  0.96154  1.0000
  C   C443      1.0  0.40114  0.66533  0.55750  1.0000
  C   C444      1.0  0.25781  0.72896  0.64976  1.0000
  H   H352      1.0  0.15236  0.86804  0.51637  1.0000
  C   C445      1.0  0.14947  0.82451  0.51177  1.0000
  C   C446      1.0  0.07940  0.73087  0.61157  1.0000
  H   H353      1.0  0.44176  0.68834  0.58930  1.0000
  H   H354      1.0  0.11689  0.75687  0.96085  1.0000
  H   H355      1.0  0.02079  0.95884  0.60023  1.0000
  H   H356      1.0  0.49378  0.65951  0.71972  1.0000
  H   H357      1.0  0.16562  0.73508  0.55262  1.0000
  C   C447      1.0  0.11510  0.76789  0.62549  1.0000
  C   C448      1.0  0.07275  0.82640  0.61295  1.0000
  C   C449      1.0  0.08264  0.85319  0.62006  1.0000
  C   C450      1.0  0.08761  0.86849  0.58426  1.0000
  H   H358      1.0  0.04792  0.78100  0.91696  1.0000
  H   H359      1.0  0.08770  0.86167  0.65405  1.0000
  H   H360      1.0  0.09619  0.88895  0.59023  1.0000
  H   H361      1.0  0.09401  0.97456  0.55490  1.0000
  C   C451      1.0  0.23192  0.67947  0.51145  1.0000
  H   H362      1.0  0.39777  0.77601  0.87418  1.0000
  H   H363      1.0  0.02430  0.80455  0.96430  1.0000
  C   C452      1.0  0.30378  0.78368  0.61577  1.0000
  C   C453      1.0  0.32399  0.78606  0.59195  1.0000
  H   H364      1.0  0.24714  0.78298  0.52629  1.0000
  P   P18       1.0  0.34465  0.75676  0.58490  1.0000
  C   C454      1.0  0.33818  0.72791  0.61829  1.0000
  H   H365      1.0  0.39778  0.71326  0.91235  1.0000
  C   C455      1.0  0.02267  0.76872  0.61965  1.0000
  Fe  Fe32      1.0  0.48867  0.71593  0.78305  1.0000
  C   C456      1.0  0.35117  0.72721  0.66739  1.0000
  C   C457      1.0  0.34626  0.70506  0.69359  1.0000
  C   C458      1.0  0.32889  0.68322  0.67112  1.0000
  C   C459      1.0  0.31555  0.68388  0.62233  1.0000
  C   C460      1.0  0.31969  0.70634  0.59597  1.0000
  C   C461      1.0  0.38482  0.76423  0.61017  1.0000
  C   C462      1.0  0.39539  0.78244  0.64656  1.0000
  C   C463      1.0  0.22646  0.74068  0.56863  1.0000
  C   C464      1.0  0.42646  0.81100  0.88304  1.0000
  C   C465      1.0  0.06633  0.72407  0.87386  1.0000
  H   H366      1.0  0.27429  0.80500  0.64247  1.0000
  H   H367      1.0  0.29982  0.76424  0.63008  1.0000
  C   C466      1.0  0.32919  0.81189  0.57523  1.0000
  C   C467      1.0  0.44721  0.77473  0.65279  1.0000
  H   H368      1.0  0.11422  0.71717  0.53091  1.0000
  H   H369      1.0  0.36520  0.74368  0.68562  1.0000
  H   H370      1.0  0.35678  0.70442  0.73137  1.0000
  H   H371      1.0  0.00676  0.75243  0.48692  1.0000
  H   H372      1.0  0.13993  0.95486  0.71356  1.0000
  H   H373      1.0  0.30860  0.70656  0.55832  1.0000
  H   H374      1.0  0.37990  0.79205  0.65998  1.0000
  C   C468      1.0  0.06771  0.81472  0.56991  1.0000
  C   C469      1.0  0.45623  0.82058  0.90046  1.0000
  S   S64       1.0  0.40434  0.66852  0.50214  1.0000
  C   C470      1.0  0.22603  0.76941  0.63088  1.0000
  S   S65       1.0  0.40074  0.65508  0.70648  1.0000
  H   H375      1.0  0.12736  0.90728  0.72688  1.0000
  H   H376      1.0  0.03542  0.90895  0.55976  1.0000
  C   C471      1.0  0.13797  0.75068  0.65571  1.0000
  C   C472      1.0  0.04069  0.73991  0.93747  1.0000
  H   H377      1.0  0.06993  0.81451  0.64151  1.0000
  C   C473      1.0  0.07540  0.96128  0.53686  1.0000
  H   H378      1.0  0.31851  0.85479  0.56932  1.0000
  H   H379      1.0  0.09098  0.66976  0.98104  1.0000
  C   C474      1.0  0.11651  0.94941  0.70657  1.0000
  C   C475      1.0  0.29419  0.83231  0.60567  1.0000
  H   H380      1.0  0.39919  0.73671  0.56857  1.0000
  H   H381      1.0  0.28300  0.85016  0.61175  1.0000
  C   C476      1.0  0.04369  0.71217  0.93125  1.0000
  C   C477      1.0  0.14813  0.85121  0.49339  1.0000
  H   H382      1.0  0.35805  0.71035  0.53840  1.0000
  C   C478      1.0  0.02156  0.77724  0.57481  1.0000
  C   C479      1.0  0.48059  0.80261  0.92409  1.0000
  H   H383      1.0  0.03584  0.87696  0.65047  1.0000
  H   H384      1.0  0.25598  0.70521  0.59227  1.0000
  H   H385      1.0  0.02740  0.82816  0.66468  1.0000
  C   C480      1.0  0.34937  0.73805  0.96038  1.0000
  H   H386      1.0  0.09735  0.69280  0.64862  1.0000
  H   H387      1.0  0.04390  0.76266  0.64710  1.0000
  C   C481      1.0  0.07772  0.76982  0.49250  1.0000
  H   H388      1.0  0.45996  0.84177  0.89393  1.0000
  C   C482      1.0  0.09369  0.96935  0.69185  1.0000
  H   H389      1.0  0.14931  0.71049  0.68796  1.0000
  C   C483      1.0  0.13155  0.72368  0.66423  1.0000
  C   C484      1.0  0.24766  0.65851  0.50041  1.0000
  C   C485      1.0  0.08553  0.75818  0.60359  1.0000
  C   C486      1.0  0.23319  0.70631  0.49475  1.0000
  C   C487      1.0  0.05599  0.70434  0.89844  1.0000
  H   H390      1.0  0.05689  0.68316  0.89085  1.0000
  C   C488      1.0  0.15636  0.72412  0.52084  1.0000
  C   C489      1.0  0.42074  0.78350  0.88892  1.0000
  H   H391      1.0  0.05688  0.72287  0.59427  1.0000
  C   C490      1.0  0.07264  0.83031  0.53401  1.0000
  H   H392      1.0  0.08805  0.86849  0.51453  1.0000
  C   C491      1.0  0.04224  0.92407  0.53914  1.0000
  C   C492      1.0  0.06581  0.94159  0.56233  1.0000
  C   C493      1.0  0.04568  0.65422  0.96572  1.0000
  P   P19       1.0  0.21131  0.73283  0.50731  1.0000
  C   C494      1.0  0.17309  0.72020  0.49205  1.0000
  C   C495      1.0  0.23124  0.78439  0.49044  1.0000
  C   C496      1.0  0.05256  0.76798  0.50613  1.0000
  C   C497      1.0  0.44481  0.76549  0.91193  1.0000
  C   C498      1.0  0.47457  0.77492  0.92886  1.0000
  H   H393      1.0  0.30415  0.78429  0.49607  1.0000
  H   H394      1.0  0.09877  0.77845  0.51540  1.0000
  H   H395      1.0  0.44060  0.74400  0.91514  1.0000
  C   C499      1.0  0.06134  0.96355  0.48813  1.0000
  C   C500      1.0  0.02811  0.92607  0.49009  1.0000
  H   H396      1.0  0.49296  0.76040  0.94450  1.0000
  C   C501      1.0  0.99953  0.86490  0.52960  1.0000
  H   H397      1.0  0.00057  0.83521  0.58337  1.0000
  H   H398      1.0  0.93414  0.26000  0.99263  1.0000
  Fe  Fe33      1.0  0.84796  0.14915  0.31920  1.0000
  S   S66       1.0  0.86426  0.11896  0.38033  1.0000
  S   S67       1.0  0.87654  0.15084  0.27325  1.0000
  Fe  Fe34      1.0  0.79246  0.16652  0.34381  1.0000
  S   S68       1.0  0.80592  0.13774  0.40744  1.0000
  S   S69       1.0  0.75609  0.20056  0.32566  1.0000
  Fe  Fe35      1.0  0.85361  0.15175  0.42093  1.0000
  C   C502      1.0  0.65785  0.30162  0.22648  1.0000
  Fe  Fe36      1.0  0.81560  0.10710  0.36123  1.0000
  S   S70       1.0  0.79778  0.06342  0.35261  1.0000
  S   S71       1.0  0.84000  0.18240  0.36066  1.0000
  S   S72       1.0  0.79933  0.13534  0.29652  1.0000
  Fe  Fe37      1.0  0.54863  0.28845  0.21102  1.0000
  S   S73       1.0  0.53602  0.24902  0.23894  1.0000
  C   C503      1.0  0.63933  0.28417  0.08802  1.0000
  C   C504      1.0  0.93338  0.03881  0.42549  1.0000
  S   S74       1.0  0.57798  0.26735  0.34415  1.0000
  H   H399      1.0  0.63240  0.24400  0.06008  1.0000
  Fe  Fe38      1.0  0.58565  0.24552  0.28649  1.0000
  S   S75       1.0  0.61582  0.20714  0.30208  1.0000
  Fe  Fe39      1.0  0.52970  0.27485  0.29430  1.0000
  S   S76       1.0  0.59824  0.28305  0.25523  1.0000
  H   H400      1.0  0.95441  0.20617  0.37874  1.0000
  S   S77       1.0  0.89081  0.16677  0.48529  1.0000
  C   C505      1.0  0.95001  0.99678  0.24926  1.0000
  H   H401      1.0  0.99162  0.06032  0.30466  1.0000
  C   C506      1.0  0.81680  0.03122  0.36896  1.0000
  C   C507      1.0  0.84692  0.02850  0.40022  1.0000
  C   C508      1.0  0.86074  0.00244  0.41267  1.0000
  H   H402      1.0  0.77808  0.26867  0.36210  1.0000
  C   C509      1.0  0.80094  0.00756  0.35020  1.0000
  H   H403      1.0  0.85931  0.04645  0.41520  1.0000
  H   H404      1.0  0.77762  0.00936  0.32614  1.0000
  C   C510      1.0  0.71678  0.20136  0.31750  1.0000
  C   C511      1.0  0.70138  0.17840  0.32513  1.0000
  C   C512      1.0  0.67043  0.18043  0.31944  1.0000
  C   C513      1.0  0.65444  0.20539  0.30620  1.0000
  C   C514      1.0  0.66980  0.22827  0.29809  1.0000
  C   C515      1.0  0.70067  0.22622  0.30367  1.0000
  H   H405      1.0  0.71333  0.15909  0.33556  1.0000
  H   H406      1.0  0.65888  0.16254  0.32568  1.0000
  H   H407      1.0  0.65808  0.24770  0.28854  1.0000
  H   H408      1.0  0.71223  0.24405  0.29740  1.0000
  H   H409      1.0  0.81335  0.05617  0.25926  1.0000
  H   H410      1.0  0.69934  0.20834  0.41190  1.0000
  H   H411      1.0  0.64687  0.28213  0.38620  1.0000
  S   S78       1.0  0.96899  0.24235  0.25734  1.0000
  C   C516      1.0  0.94399  0.21646  0.26281  1.0000
  C   C517      1.0  0.92215  0.22253  0.28211  1.0000
  C   C518      1.0  0.90193  0.20251  0.28693  1.0000
  C   C519      1.0  0.90275  0.17637  0.27113  1.0000
  C   C520      1.0  0.92441  0.17041  0.25145  1.0000
  C   C521      1.0  0.94525  0.19014  0.24806  1.0000
  H   H412      1.0  0.92093  0.24283  0.29357  1.0000
  H   H413      1.0  0.88525  0.20747  0.30181  1.0000
  H   H414      1.0  0.92514  0.15032  0.23888  1.0000
  C   C522      1.0  0.63902  0.30162  0.99964  1.0000
  H   H415      1.0  0.94836  0.19342  0.00137  1.0000
  H   H416      1.0  0.96755  0.11681  0.43937  1.0000
  H   H417      1.0  0.93620  0.10833  0.35785  1.0000
  C   C523      1.0  0.89242  0.23926  0.02475  1.0000
  H   H418      1.0  0.54216  0.29264  0.43576  1.0000
  H   H419      1.0  0.89867  0.09521  0.28847  1.0000
  C   C524      1.0  0.73623  0.30879  0.33612  1.0000
  C   C525      1.0  0.81492  0.98155  0.36212  1.0000
  P   P20       1.0  0.94260  0.05090  0.34163  1.0000
  H   H420      1.0  0.77142  0.18891  0.46111  1.0000
  C   C526      1.0  0.51379  0.29352  0.08026  1.0000
  H   H421      1.0  0.85215  0.29893  0.99292  1.0000
  H   H422      1.0  0.67478  0.28584  0.24248  1.0000
  C   C527      1.0  0.79288  0.26188  0.39682  1.0000
  C   C528      1.0  0.96132  0.08120  0.33110  1.0000
  H   H423      1.0  0.81810  0.23579  0.36962  1.0000
  C   C529      1.0  0.98088  0.17832  0.43485  1.0000
  C   C530      1.0  0.72344  0.27394  0.41902  1.0000
  C   C531      1.0  0.55389  0.25000  0.44743  1.0000
  H   H424      1.0  0.83969  0.01261  0.29394  1.0000
  H   H425      1.0  0.96179  0.18515  0.23297  1.0000
  C   C532      1.0  0.83794  0.05504  0.27306  1.0000
  H   H426      1.0  0.98713  0.19931  0.08091  1.0000
  C   C533      1.0  0.96938  0.12985  0.33824  1.0000
  H   H427      1.0  0.86408  0.29850  0.07802  1.0000
  H   H428      1.0  0.92872  0.03570  0.24583  1.0000
  H   H429      1.0  0.99505  0.21246  0.34648  1.0000
  C   C534      1.0  0.67028  0.24363  0.39990  1.0000
  C   C535      1.0  0.63543  0.26539  0.05320  1.0000
  C   C536      1.0  0.66870  0.27197  0.39650  1.0000
  H   H430      1.0  0.74575  0.23459  0.42710  1.0000
  H   H431      1.0  0.88376  0.00048  0.43753  1.0000
  C   C537      1.0  0.88448  0.02944  0.31299  1.0000
  C   C538      1.0  0.90164  0.05287  0.31338  1.0000
  C   C539      1.0  0.81561  0.24287  0.40092  1.0000
  C   C540      1.0  0.55451  0.22146  0.12866  1.0000
  C   C541      1.0  0.57923  0.22070  0.17113  1.0000
  C   C542      1.0  0.60496  0.23607  0.17572  1.0000
  C   C543      1.0  0.60643  0.25197  0.13763  1.0000
  C   C544      1.0  0.67452  0.25310  0.17089  1.0000
  C   C545      1.0  0.70229  0.26676  0.18375  1.0000
  C   C546      1.0  0.72970  0.25227  0.20373  1.0000
  C   C547      1.0  0.72958  0.22402  0.21037  1.0000
  C   C548      1.0  0.70210  0.21021  0.19681  1.0000
  C   C549      1.0  0.67464  0.22461  0.17673  1.0000
  H   H432      1.0  0.70270  0.28863  0.17840  1.0000
  H   H433      1.0  0.57840  0.20845  0.20080  1.0000
  H   H434      1.0  0.62364  0.23559  0.20912  1.0000
  Fe  Fe40      1.0  0.58825  0.30526  0.31010  1.0000
  H   H435      1.0  0.75110  0.26284  0.21432  1.0000
  H   H436      1.0  0.75079  0.21277  0.22667  1.0000
  H   H437      1.0  0.58057  0.26672  0.06641  1.0000
  C   C550      1.0  0.87534  0.26069  0.99514  1.0000
  C   C551      1.0  0.51714  0.30464  0.03947  1.0000
  H   H438      1.0  0.56970  0.20897  0.46840  1.0000
  C   C552      1.0  0.95418  0.04652  0.40457  1.0000
  P   P21       1.0  0.75757  0.29360  0.43125  1.0000
  C   C553      1.0  0.87186  0.28192  0.06302  1.0000
  C   C554      1.0  0.58107  0.25330  0.09550  1.0000
  H   H439      1.0  0.90979  0.03580  0.40458  1.0000
  C   C555      1.0  0.85479  0.07819  0.27172  1.0000
  S   S79       1.0  0.53845  0.30452  0.13560  1.0000
  H   H440      1.0  0.91274  0.22287  0.09581  1.0000
  H   H441      1.0  0.89450  0.26059  0.12974  1.0000
  C   C556      1.0  0.57291  0.23004  0.47778  1.0000
  H   H442      1.0  0.96286  0.17590  0.44849  1.0000
  C   C557      1.0  0.64407  0.31166  0.07867  1.0000
  C   C558      1.0  0.80784  0.26023  0.48115  1.0000
  H   H443      1.0  0.85165  0.21720  0.44799  1.0000
  C   C559      1.0  0.72468  0.24539  0.42062  1.0000
  C   C560      1.0  0.83433  0.23233  0.44493  1.0000
  C   C561      1.0  0.88894  0.26057  0.09219  1.0000
  H   H444      1.0  0.89549  0.01039  0.32906  1.0000
  C   C562      1.0  0.95398  0.02197  0.31753  1.0000
  C   C563      1.0  0.85282  0.03055  0.29291  1.0000
  C   C564      1.0  0.96987  0.20257  0.00506  1.0000
  C   C565      1.0  0.69827  0.23033  0.41184  1.0000
  P   P22       1.0  0.63952  0.27235  0.14457  1.0000
  H   H445      1.0  0.62149  0.20830  0.46554  1.0000
  H   H446      1.0  0.65837  0.18753  0.43778  1.0000
  H   H447      1.0  0.53598  0.23891  0.05827  1.0000
  C   C566      1.0  0.55546  0.23771  0.09085  1.0000
  H   H448      1.0  0.70215  0.18832  0.20272  1.0000
  C   C567      1.0  0.99177  0.20596  0.05023  1.0000
  H   H449      1.0  0.72759  0.28831  0.33025  1.0000
  C   C568      1.0  0.88649  0.07707  0.29120  1.0000
  H   H450      1.0  0.53441  0.20987  0.12533  1.0000
  H   H451      1.0  0.96260  0.14940  0.34624  1.0000
  H   H452      1.0  0.84327  0.09719  0.25601  1.0000
  H   H453      1.0  0.65375  0.21333  0.16601  1.0000
  C   C569      1.0  0.99369  0.04830  0.48204  1.0000
  C   C570      1.0  0.97224  0.00098  0.34655  1.0000
  C   C571      1.0  0.78900  0.27107  0.43692  1.0000
  C   C572      1.0  0.98446  0.05125  0.43329  1.0000
  H   H454      1.0  0.53651  0.24446  0.41467  1.0000
  C   C573      1.0  0.83038  0.24093  0.48500  1.0000
  C   C574      1.0  0.94305  0.01978  0.26876  1.0000
  C   C575      1.0  0.76632  0.31215  0.48426  1.0000
  C   C576      1.0  0.97604  0.19568  0.39548  1.0000
  C   C577      1.0  0.99267  0.12818  0.32085  1.0000
  C   C578      1.0  0.89919  0.23925  0.07303  1.0000
  H   H455      1.0  0.69329  0.30917  0.40251  1.0000
  H   H456      1.0  0.64960  0.23204  0.39142  1.0000
  H   H457      1.0  0.90107  0.22280  0.01063  1.0000
  C   C579      1.0  0.63780  0.30031  0.17973  1.0000
  C   C580      1.0  0.55707  0.27723  0.45925  1.0000
  C   C581      1.0  0.66299  0.18759  0.47507  1.0000
  C   C582      1.0  0.93570  0.10421  0.47072  1.0000
  C   C583      1.0  0.94273  0.03568  0.47423  1.0000
  C   C584      1.0  0.95408  0.10649  0.34401  1.0000
  C   C585      1.0  0.69511  0.28715  0.40581  1.0000
  C   C586      1.0  0.63502  0.27414  0.00907  1.0000
  C   C587      1.0  0.98496  0.07958  0.31391  1.0000
  H   H458      1.0  0.92058  0.09507  0.43946  1.0000
  C   C588      1.0  0.96223  0.11663  0.47067  1.0000
  H   H459      1.0  0.94117  0.99506  0.21160  1.0000
  H   H460      1.0  0.98063  0.00195  0.38424  1.0000
  C   C589      1.0  0.86514  0.28207  0.01467  1.0000
  C   C590      1.0  0.58421  0.29709  0.73568  1.0000
  Fe  Fe41      1.0  0.94436  0.21880  0.83521  1.0000
  S   S80       1.0  0.95956  0.25887  0.81413  1.0000
  S   S81       1.0  0.94803  0.20411  0.90881  1.0000
  Fe  Fe42      1.0  0.91251  0.20438  0.73219  1.0000
  S   S82       1.0  0.92615  0.24330  0.70517  1.0000
  S   S83       1.0  0.87987  0.17549  0.68366  1.0000
  Fe  Fe43      1.0  0.97184  0.23480  0.76212  1.0000
  Fe  Fe44      1.0  0.91214  0.26295  0.75922  1.0000
  H   H461      1.0  0.72194  0.30805  0.48928  1.0000
  S   S84       1.0  0.95882  0.19455  0.78605  1.0000
  S   S85       1.0  0.89648  0.22436  0.78317  1.0000
  H   H462      1.0  0.83081  0.21378  0.59923  1.0000
  H   H463      1.0  0.60399  0.21112  0.64589  1.0000
  H   H464      1.0  0.79177  0.28787  0.62493  1.0000
  H   H465      1.0  0.78934  0.19498  0.79215  1.0000
  C   C591      1.0  0.59927  0.26480  0.53079  1.0000
  H   H466      1.0  0.67460  0.24224  0.60103  1.0000
  C   C592      1.0  0.78607  0.20123  0.75637  1.0000
  C   C593      1.0  0.59581  0.23730  0.51978  1.0000
  C   C594      1.0  0.79684  0.28153  0.73732  1.0000
  C   C595      1.0  0.82778  0.27969  0.74329  1.0000
  H   H467      1.0  0.59489  0.11493  0.58320  1.0000
  C   C596      1.0  0.52348  0.30550  0.59332  1.0000
  H   H468      1.0  0.78533  0.26351  0.74304  1.0000
  H   H469      1.0  0.83969  0.26039  0.75325  1.0000
  C   C597      1.0  0.88271  0.17335  0.62832  1.0000
  C   C598      1.0  0.90776  0.18390  0.61995  1.0000
  C   C599      1.0  0.90980  0.18178  0.57579  1.0000
  C   C600      1.0  0.88667  0.16941  0.53956  1.0000
  C   C601      1.0  0.86140  0.15913  0.54766  1.0000
  C   C602      1.0  0.85959  0.16090  0.59214  1.0000
  H   H470      1.0  0.92582  0.19330  0.64772  1.0000
  H   H471      1.0  0.92946  0.18964  0.56974  1.0000
  H   H472      1.0  0.84354  0.14948  0.51993  1.0000
  H   H473      1.0  0.84032  0.15256  0.59865  1.0000
  C   C603      1.0  0.78073  0.30642  0.72432  1.0000
  H   H474      1.0  0.51701  0.26318  0.57545  1.0000
  C   C604      1.0  0.54076  0.28420  0.75746  1.0000
  C   C605      1.0  0.56199  0.27810  0.73689  1.0000
  C   C606      1.0  0.58546  0.29294  0.62390  1.0000
  H   H475      1.0  0.77693  0.17067  0.62418  1.0000
  H   H476      1.0  0.84466  0.23221  0.51886  1.0000
  C   C607      1.0  0.75698  0.20758  0.72404  1.0000
  H   H477      1.0  0.56143  0.25843  0.72221  1.0000
  H   H478      1.0  0.60085  0.29176  0.72104  1.0000
  C   C608      1.0  0.62461  0.22242  0.65198  1.0000
  C   C609      1.0  0.95649  0.12876  0.82562  1.0000
  C   C610      1.0  0.77167  0.18504  0.49631  1.0000
  C   C611      1.0  0.86025  0.22692  0.91416  1.0000
  C   C612      1.0  0.84809  0.17319  0.88618  1.0000
  H   H479      1.0  0.70583  0.16640  0.49429  1.0000
  H   H480      1.0  0.52334  0.17292  0.56437  1.0000
  C   C613      1.0  0.68632  0.28479  0.54797  1.0000
  C   C614      1.0  0.59457  0.18383  0.56449  1.0000
  C   C615      1.0  0.83734  0.28358  0.89950  1.0000
  H   H481      1.0  0.61668  0.27124  0.56258  1.0000
  C   C616      1.0  0.54204  0.30967  0.77664  1.0000
  C   C617      1.0  0.86117  0.27646  0.62115  1.0000
  C   C618      1.0  0.80684  0.24910  0.60933  1.0000
  H   H482      1.0  0.62816  0.15182  0.57545  1.0000
  H   H483      1.0  0.69815  0.26411  0.67667  1.0000
  H   H484      1.0  0.55621  0.21019  0.55637  1.0000
  H   H485      1.0  0.80584  0.25145  0.86796  1.0000
  C   C619      1.0  0.58652  0.13577  0.57720  1.0000
  H   H486      1.0  0.80485  0.26623  0.51265  1.0000
  C   C620      1.0  0.97283  0.04054  0.50250  1.0000
  C   C621      1.0  0.56409  0.27276  0.60580  1.0000
  C   C622      1.0  0.53319  0.27901  0.59016  1.0000
  C   C623      1.0  0.77421  0.15835  0.51483  1.0000
  C   C624      1.0  0.95673  0.28021  0.95209  1.0000
  C   C625      1.0  0.54621  0.16841  0.56655  1.0000
  H   H487      1.0  0.77845  0.13265  0.57543  1.0000
  H   H488      1.0  0.50059  0.30598  0.96362  1.0000
  P   P23       1.0  0.77303  0.23046  0.60540  1.0000
  C   C626      1.0  0.97897  0.12372  0.80756  1.0000
  C   C627      1.0  0.73904  0.25176  0.58209  1.0000
  H   H489      1.0  0.70556  0.30527  0.61277  1.0000
  C   C628      1.0  0.85853  0.24903  0.61073  1.0000
  C   C629      1.0  0.77559  0.15333  0.56070  1.0000
  C   C630      1.0  0.55698  0.14155  0.57409  1.0000
  C   C631      1.0  0.77150  0.20187  0.56953  1.0000
  C   C632      1.0  0.73454  0.27254  0.60892  1.0000
  C   C633      1.0  0.98160  0.12906  0.51069  1.0000
  H   H490      1.0  0.84386  0.15232  0.87592  1.0000
  C   C634      1.0  0.97492  0.12765  0.55165  1.0000
  H   H491      1.0  0.97893  0.27748  0.97950  1.0000
  H   H492      1.0  0.63854  0.30838  0.96532  1.0000
  H   H493      1.0  0.57141  0.25233  0.60351  1.0000
  P   P24       1.0  0.61903  0.21131  0.56042  1.0000
  C   C635      1.0  0.83166  0.23534  0.60524  1.0000
  H   H494      1.0  0.87753  0.18096  0.84771  1.0000
  C   C636      1.0  0.75290  0.21600  0.67803  1.0000
  H   H495      1.0  0.88243  0.28681  0.62735  1.0000
  H   H496      1.0  0.71817  0.23080  0.51744  1.0000
  H   H497      1.0  0.73763  0.20628  0.73477  1.0000
  C   C637      1.0  0.63751  0.22510  0.61753  1.0000
  C   C638      1.0  0.66431  0.23992  0.62701  1.0000
  C   C639      1.0  0.67770  0.25230  0.66978  1.0000
  C   C640      1.0  0.66438  0.25007  0.70342  1.0000
  C   C641      1.0  0.63791  0.23504  0.69462  1.0000
  C   C642      1.0  0.77801  0.21856  0.66425  1.0000
  C   C643      1.0  0.64715  0.19850  0.53921  1.0000
  C   C644      1.0  0.80707  0.21162  0.69674  1.0000
  H   H498      1.0  0.87767  0.23806  0.60835  1.0000
  C   C645      1.0  0.68995  0.26353  0.52173  1.0000
  H   H499      1.0  0.67831  0.18493  0.60809  1.0000
  H   H500      1.0  0.67444  0.26025  0.73612  1.0000
  H   H501      1.0  0.62747  0.23352  0.72068  1.0000
  H   H502      1.0  0.73024  0.22078  0.65352  1.0000
  H   H503      1.0  0.82687  0.21292  0.68709  1.0000
  H   H504      1.0  0.88752  0.22824  0.87121  1.0000
  H   H505      1.0  0.83360  0.19805  0.76738  1.0000
  C   C646      1.0  0.95381  0.29324  0.90938  1.0000
  C   C647      1.0  0.80973  0.27673  0.61976  1.0000
  C   C648      1.0  0.86686  0.18931  0.87004  1.0000
  C   C649      1.0  0.81102  0.20304  0.74256  1.0000
  C   C650      1.0  0.77462  0.17500  0.58821  1.0000
  C   C651      1.0  0.69505  0.17482  0.55476  1.0000
  C   C652      1.0  0.71619  0.24714  0.53848  1.0000
  C   C653      1.0  0.83683  0.29022  0.62580  1.0000
  H   H506      1.0  0.75101  0.27577  0.64353  1.0000
  C   C654      1.0  0.97572  0.21056  0.96468  1.0000
  H   H507      1.0  0.60938  0.28796  0.63610  1.0000
  H   H508      1.0  0.58161  0.30545  0.51115  1.0000
  H   H509      1.0  0.66607  0.29758  0.53477  1.0000
  C   C655      1.0  0.87268  0.21615  0.88364  1.0000
  H   H510      1.0  0.94212  0.11583  0.58218  1.0000
  C   C656      1.0  0.84320  0.30280  0.73640  1.0000
  H   H511      1.0  0.90713  0.09540  0.51011  1.0000
  S   S86       1.0  0.51353  0.25929  0.75897  1.0000
  H   H512      1.0  0.87780  0.28778  0.85199  1.0000
  H   H513      1.0  0.94623  0.14689  0.88077  1.0000
  C   C657      1.0  0.68962  0.17551  0.50687  1.0000
  C   C658      1.0  0.70854  0.28915  0.59176  1.0000
  C   C659      1.0  0.92837  0.10401  0.51080  1.0000
  C   C660      1.0  0.94807  0.11559  0.55135  1.0000
  H   H514      1.0  0.93323  0.12308  0.80644  1.0000
  C   C661      1.0  0.56493  0.18949  0.56191  1.0000
  C   C662      1.0  0.96380  0.14214  0.86744  1.0000
  H   H515      1.0  0.97985  0.03878  0.54028  1.0000
  H   H516      1.0  0.54245  0.12522  0.57766  1.0000
  C   C663      1.0  0.83519  0.18391  0.91610  1.0000
  H   H517      1.0  0.98444  0.18569  0.54131  1.0000
  H   H518      1.0  0.99003  0.13622  0.58360  1.0000
  C   C664      1.0  0.90222  0.27321  0.92385  1.0000
  S   S87       1.0  0.88224  0.30149  0.74288  1.0000
  C   C665      1.0  0.89960  0.28583  0.88060  1.0000
  P   P25       1.0  0.86869  0.26119  0.93326  1.0000
  C   C666      1.0  0.57952  0.28451  0.50120  1.0000
  C   C667      1.0  0.80957  0.27311  0.87004  1.0000
  C   C668      1.0  0.60534  0.15681  0.57265  1.0000
  H   H519      1.0  0.77579  0.14161  0.49393  1.0000
  H   H520      1.0  0.71534  0.16494  0.57937  1.0000
  H   H521      1.0  0.97309  0.11406  0.77442  1.0000
  C   C669      1.0  0.67396  0.18623  0.57091  1.0000
  C   C670      1.0  0.84129  0.21067  0.93017  1.0000
  S   S88       1.0  0.74151  0.30708  0.71688  1.0000
  C   C671      1.0  0.77040  0.20667  0.52362  1.0000
  H   H522      1.0  0.82082  0.17137  0.92897  1.0000
  C   C672      1.0  0.64191  0.19922  0.49108  1.0000
  H   H523      1.0  0.76926  0.22729  0.50952  1.0000
  H   H524      1.0  0.63150  0.25962  0.98208  1.0000
  H   H525      1.0  0.67227  0.25975  0.48841  1.0000
  C   C673      1.0  0.93108  0.27022  0.95938  1.0000
  C   C674      1.0  0.92525  0.29609  0.87371  1.0000
  H   H526      1.0  0.97036  0.99707  0.74732  1.0000
  H   H527      1.0  0.76529  0.28259  0.81792  1.0000
  H   H528      1.0  0.97371  0.30079  0.90363  1.0000
  C   C675      1.0  0.78641  0.29068  0.84152  1.0000
  H   H529      1.0  0.92635  0.03020  0.49006  1.0000
  C   C676      1.0  0.99355  0.15051  0.89126  1.0000
  H   H530      1.0  0.83140  0.21867  0.95373  1.0000
  C   C677      1.0  0.84144  0.31189  0.89987  1.0000
  H   H531      1.0  0.92298  0.30593  0.84033  1.0000
  H   H532      1.0  0.83948  0.31114  0.63615  1.0000
  C   C678      1.0  0.98650  0.98031  0.75518  1.0000
  C   C679      1.0  0.64644  0.34587  0.44733  1.0000
  C   C680      1.0  0.70031  0.63347  0.43082  1.0000
  H   H533      1.0  0.66849  0.34620  0.44439  1.0000
  P   P26       1.0  0.69337  0.64340  0.29379  1.0000
  C   C681      1.0  0.75137  0.31733  0.38185  1.0000
  C   C682      1.0  0.68177  0.59135  0.39324  1.0000
  C   C683      1.0  0.74292  0.35315  0.30423  1.0000
  H   H534      1.0  0.73973  0.36695  0.27430  1.0000
  H   H535      1.0  0.77637  0.57748  0.31640  1.0000
  H   H536      1.0  0.56717  0.34653  0.45671  1.0000
  C   C684      1.0  0.68250  0.60264  0.35111  1.0000
  H   H537      1.0  0.76536  0.38276  0.35477  1.0000
  H   H538      1.0  0.51561  0.63423  0.32151  1.0000
  C   C685      1.0  0.50995  0.61373  0.47855  1.0000
  C   C686      1.0  0.75740  0.36203  0.34956  1.0000
  S   S89       1.0  0.53977  0.31440  0.26380  1.0000
  C   C687      1.0  0.62056  0.34014  0.40811  1.0000
  H   H539      1.0  0.63493  0.63479  0.42872  1.0000
  H   H540      1.0  0.67548  0.59046  0.32048  1.0000
  C   C688      1.0  0.69065  0.60678  0.43307  1.0000
  C   C689      1.0  0.60082  0.64628  0.22463  1.0000
  H   H541      1.0  0.50636  0.35492  0.43700  1.0000
  C   C690      1.0  0.51233  0.37025  0.14309  1.0000
  C   C691      1.0  0.74608  0.58082  0.24422  1.0000
  H   H542      1.0  0.71210  0.58835  0.17539  1.0000
  H   H543      1.0  0.59296  0.35522  0.17502  1.0000
  C   C692      1.0  0.71991  0.59334  0.21191  1.0000
  H   H544      1.0  0.55424  0.62007  0.47560  1.0000
  H   H545      1.0  0.77306  0.35167  0.42284  1.0000
  C   C693      1.0  0.63193  0.34221  0.23525  1.0000
  C   C694      1.0  0.73249  0.32651  0.29753  1.0000
  H   H546      1.0  0.74807  0.61098  0.34271  1.0000
  C   C695      1.0  0.70372  0.61230  0.22657  1.0000
  H   H547      1.0  0.62897  0.35771  0.25732  1.0000
  H   H548      1.0  0.51699  0.37157  0.21530  1.0000
  H   H549      1.0  0.72136  0.31961  0.26238  1.0000
  H   H550      1.0  0.50145  0.36620  0.06928  1.0000
  H   H551      1.0  0.53526  0.37692  0.14954  1.0000
  H   H552      1.0  0.67414  0.57069  0.39499  1.0000
  C   C696      1.0  0.69190  0.62956  0.34841  1.0000
  C   C697      1.0  0.62974  0.64018  0.25785  1.0000
  C   C698      1.0  0.71371  0.61893  0.27381  1.0000
  H   H553      1.0  0.63148  0.62882  0.28964  1.0000
  H   H554      1.0  0.68345  0.62155  0.20088  1.0000
  C   C699      1.0  0.76173  0.34421  0.38825  1.0000
  C   C700      1.0  0.59212  0.33992  0.41201  1.0000
  S   S90       1.0  0.62374  0.33399  0.35401  1.0000
  H   H555      1.0  0.75858  0.56615  0.23276  1.0000
  C   C701      1.0  0.58940  0.34611  0.45441  1.0000
  C   C702      1.0  0.75610  0.58722  0.29131  1.0000
  C   C703      1.0  0.73999  0.60619  0.30609  1.0000
  H   H556      1.0  0.57208  0.33564  0.38193  1.0000
  C   C704      1.0  0.50208  0.36705  0.18017  1.0000
  C   C705      1.0  0.61168  0.34082  0.18900  1.0000
  H   H557      1.0  0.64811  0.32645  0.10525  1.0000
  H   H558      1.0  0.58088  0.63954  0.23111  1.0000
  H   H559      1.0  0.49899  0.40527  0.46893  1.0000
  C   C706      1.0  0.70105  0.64485  0.38873  1.0000
  H   H560      1.0  0.66940  0.32293  0.29068  1.0000
  H   H561      1.0  0.70675  0.64542  0.46168  1.0000
  H   H562      1.0  0.68975  0.59816  0.46562  1.0000
  H   H563      1.0  0.50625  0.53708  0.48416  1.0000
  C   C707      1.0  0.65495  0.32260  0.25400  1.0000
  H   H564      1.0  0.53478  0.31929  0.04258  1.0000
  H   H565      1.0  0.64704  0.34160  0.02722  1.0000
  C   C708      1.0  0.61449  0.31988  0.16143  1.0000
  H   H566      1.0  0.59781  0.31842  0.12629  1.0000
  C   C709      1.0  0.64371  0.32033  0.03450  1.0000
  Fe  Fe45      1.0  0.64601  0.35316  0.71581  1.0000
  S   S91       1.0  0.63429  0.38883  0.66404  1.0000
  S   S92       1.0  0.61325  0.34738  0.75518  1.0000
  Fe  Fe46      1.0  0.70528  0.34119  0.69719  1.0000
  S   S93       1.0  0.69635  0.37570  0.64255  1.0000
  H   H567      1.0  0.53507  0.47894  0.68175  1.0000
  Fe  Fe47      1.0  0.68336  0.40019  0.69338  1.0000
  S   S94       1.0  0.69841  0.44240  0.72140  1.0000
  Fe  Fe48      1.0  0.64766  0.36179  0.61754  1.0000
  H   H568      1.0  0.76821  0.64419  0.60492  1.0000
  S   S95       1.0  0.69473  0.36619  0.74932  1.0000
  Fe  Fe49      1.0  0.69037  0.60429  0.65965  1.0000
  S   S96       1.0  0.70502  0.61701  0.73435  1.0000
  S   S97       1.0  0.68978  0.56271  0.62844  1.0000
  C   C710      1.0  0.81824  0.32938  0.87114  1.0000
  C   C711      1.0  0.55410  0.57639  0.78554  1.0000
  C   C712      1.0  0.75142  0.33136  0.54439  1.0000
  C   C713      1.0  0.79078  0.31877  0.84186  1.0000
  H   H569      1.0  0.66377  0.35538  0.52063  1.0000
  S   S98       1.0  0.64467  0.62501  0.63753  1.0000
  H   H570      1.0  0.64633  0.64220  0.51333  1.0000
  H   H571      1.0  0.56491  0.34823  0.79040  1.0000
  H   H572      1.0  0.78410  0.34887  0.70727  1.0000
  H   H573      1.0  0.78562  0.35392  0.59625  1.0000
  C   C714      1.0  0.69461  0.47565  0.69419  1.0000
  C   C715      1.0  0.70334  0.49811  0.72284  1.0000
  C   C716      1.0  0.70097  0.52492  0.70345  1.0000
  C   C717      1.0  0.69081  0.52955  0.65488  1.0000
  C   C718      1.0  0.68218  0.50707  0.62613  1.0000
  C   C719      1.0  0.68363  0.48031  0.64557  1.0000
  H   H574      1.0  0.71248  0.49467  0.76041  1.0000
  H   H575      1.0  0.70789  0.54190  0.72610  1.0000
  H   H576      1.0  0.67441  0.51038  0.58854  1.0000
  H   H577      1.0  0.67696  0.46329  0.62301  1.0000
  H   H578      1.0  0.83871  0.34577  0.71795  1.0000
  H   H579      1.0  0.54007  0.59068  0.79477  1.0000
  C   C720      1.0  0.53068  0.40215  0.53937  1.0000
  C   C721      1.0  0.58953  0.44705  0.78601  1.0000
  C   C722      1.0  0.60952  0.42831  0.77931  1.0000
  C   C723      1.0  0.63254  0.43746  0.76442  1.0000
  C   C724      1.0  0.63563  0.46527  0.75630  1.0000
  C   C725      1.0  0.61598  0.48436  0.76346  1.0000
  C   C726      1.0  0.59260  0.47496  0.77789  1.0000
  P   P27       1.0  0.61906  0.52014  0.74904  1.0000
  C   C727      1.0  0.59163  0.54056  0.76176  1.0000
  C   C728      1.0  0.65512  0.53424  0.78490  1.0000
  C   C729      1.0  0.68015  0.51756  0.81096  1.0000
  C   C730      1.0  0.70776  0.52911  0.83790  1.0000
  C   C731      1.0  0.71046  0.55735  0.83994  1.0000
  C   C732      1.0  0.68545  0.57407  0.81545  1.0000
  C   C733      1.0  0.65798  0.56263  0.78810  1.0000
  C   C734      1.0  0.57114  0.55798  0.72732  1.0000
  C   C735      1.0  0.54069  0.59056  0.56826  1.0000
  H   H580      1.0  0.81323  0.63805  0.58327  1.0000
  C   C736      1.0  0.57433  0.55904  0.81996  1.0000
  C   C737      1.0  0.59319  0.54136  0.80823  1.0000
  C   C738      1.0  0.61437  0.52420  0.68781  1.0000
  C   C739      1.0  0.60485  0.50232  0.65794  1.0000
  C   C740      1.0  0.60236  0.50522  0.61121  1.0000
  C   C741      1.0  0.60876  0.53009  0.59355  1.0000
  C   C742      1.0  0.61767  0.55203  0.62261  1.0000
  C   C743      1.0  0.62073  0.54914  0.66957  1.0000
  H   H581      1.0  0.57160  0.43985  0.79737  1.0000
  H   H582      1.0  0.60714  0.40665  0.78530  1.0000
  H   H583      1.0  0.64795  0.42298  0.75875  1.0000
  H   H584      1.0  0.65303  0.47187  0.74333  1.0000
  H   H585      1.0  0.57646  0.48896  0.78239  1.0000
  H   H586      1.0  0.67888  0.49569  0.81051  1.0000
  H   H587      1.0  0.72717  0.51611  0.85687  1.0000
  H   H588      1.0  0.73191  0.56631  0.86043  1.0000
  H   H589      1.0  0.68728  0.59603  0.81722  1.0000
  H   H590      1.0  0.63898  0.57616  0.76963  1.0000
  H   H591      1.0  0.56985  0.55835  0.69148  1.0000
  C   C744      1.0  0.56413  0.32870  0.77515  1.0000
  S   S99       1.0  0.61009  0.35756  0.54673  1.0000
  H   H592      1.0  0.57598  0.55988  0.85598  1.0000
  H   H593      1.0  0.60963  0.52879  0.83562  1.0000
  H   H594      1.0  0.59970  0.48279  0.67040  1.0000
  H   H595      1.0  0.59638  0.48792  0.58909  1.0000
  H   H596      1.0  0.60798  0.53214  0.55790  1.0000
  H   H597      1.0  0.62396  0.57087  0.60936  1.0000
  H   H598      1.0  0.62863  0.56630  0.69149  1.0000
  C   C745      1.0  0.82709  0.32772  0.72334  1.0000
  H   H599      1.0  0.53803  0.34633  0.61407  1.0000
  C   C746      1.0  0.51058  0.51568  0.68200  1.0000
  C   C747      1.0  0.61518  0.35132  0.49395  1.0000
  H   H600      1.0  0.55302  0.58219  0.60334  1.0000
  H   H601      1.0  0.54115  0.49177  0.60674  1.0000
  C   C748      1.0  0.80217  0.33837  0.54538  1.0000
  S   S100      1.0  0.65731  0.32560  0.66803  1.0000
  H   H602      1.0  0.52614  0.31463  0.79299  1.0000
  C   C749      1.0  0.79533  0.32323  0.50537  1.0000
  H   H603      1.0  0.50305  0.48817  0.50416  1.0000
  C   C750      1.0  0.50881  0.59218  0.55055  1.0000
  H   H604      1.0  0.52678  0.43713  0.62990  1.0000
  C   C751      1.0  0.78026  0.34235  0.56500  1.0000
  H   H605      1.0  0.81260  0.32037  0.49062  1.0000
  C   C752      1.0  0.54504  0.32570  0.61173  1.0000
  C   C753      1.0  0.79606  0.32955  0.71722  1.0000
  H   H606      1.0  0.55833  0.40216  0.61278  1.0000
  H   H607      1.0  0.59238  0.33514  0.64112  1.0000
  C   C754      1.0  0.51864  0.53064  0.59867  1.0000
  H   H608      1.0  0.53757  0.58991  0.71324  1.0000
  C   C755      1.0  0.53860  0.41095  0.58486  1.0000
  C   C756      1.0  0.55697  0.60051  0.54120  1.0000
  C   C757      1.0  0.74445  0.31625  0.50431  1.0000
  H   H609      1.0  0.58156  0.59976  0.55528  1.0000
  C   C758      1.0  0.55261  0.57589  0.73938  1.0000
  C   C759      1.0  0.58533  0.32265  0.75454  1.0000
  C   C760      1.0  0.51304  0.64549  0.67109  1.0000
  C   C761      1.0  0.54161  0.61204  0.49633  1.0000
  H   H610      1.0  0.52027  0.33570  0.51712  1.0000
  H   H611      1.0  0.73438  0.33474  0.55943  1.0000
  H   H612      1.0  0.54441  0.38661  0.53219  1.0000
  H   H613      1.0  0.82456  0.34689  0.56143  1.0000
  C   C762      1.0  0.64381  0.35111  0.49044  1.0000
  H   H614      1.0  0.82173  0.35115  0.87078  1.0000
  H   H615      1.0  0.52766  0.62774  0.62075  1.0000
  Fe  Fe50      1.0  0.66005  0.63993  0.71046  1.0000
  C   C763      1.0  0.52964  0.50551  0.62152  1.0000
  H   H616      1.0  0.77303  0.33223  0.81865  1.0000
  C   C764      1.0  0.52601  0.49818  0.66354  1.0000
  C   C765      1.0  0.57592  0.31942  0.62677  1.0000
  C   C766      1.0  0.52094  0.43083  0.59436  1.0000
  H   H617      1.0  0.52195  0.53597  0.56646  1.0000
  H   H618      1.0  0.86286  0.32041  0.92153  1.0000
  C   C767      1.0  0.51146  0.62641  0.63789  1.0000
  H   H619      1.0  0.50753  0.50997  0.71443  1.0000
  C   C768      1.0  0.50511  0.41321  0.50330  1.0000
  S   S101      1.0  0.62627  0.63548  0.74802  1.0000
  H   H620      1.0  0.58165  0.63289  0.79101  1.0000
  H   H621      1.0  0.51086  0.32100  0.67228  1.0000
  C   C769      1.0  0.50357  0.54863  0.61738  1.0000
  S   S102      1.0  0.71236  0.64030  0.63649  1.0000
  C   C770      1.0  0.49906  0.54062  0.65876  1.0000
  C   C771      1.0  0.97905  0.97794  0.32688  1.0000
  Fe  Fe51      1.0  0.81156  0.85286  0.34685  1.0000
  S   S103      1.0  0.82468  0.87222  0.41688  1.0000
  S   S104      1.0  0.76848  0.82930  0.30605  1.0000
  Fe  Fe52      1.0  0.87641  0.85830  0.34420  1.0000
  S   S105      1.0  0.89353  0.87729  0.41387  1.0000
  S   S106      1.0  0.90861  0.85563  0.30396  1.0000
  Fe  Fe53      1.0  0.86668  0.84626  0.43665  1.0000
  C   C772      1.0  0.78172  0.76760  0.41180  1.0000
  Fe  Fe54      1.0  0.85058  0.90280  0.38861  1.0000
  S   S107      1.0  0.86382  0.94663  0.41115  1.0000
  S   S108      1.0  0.85261  0.82516  0.36878  1.0000
  S   S109      1.0  0.83453  0.88533  0.31674  1.0000
  Fe  Fe55      1.0  0.60523  0.76802  0.27676  1.0000
  S   S110      1.0  0.62106  0.73024  0.25412  1.0000
  S   S111      1.0  0.63708  0.80269  0.31170  1.0000
  Fe  Fe56      1.0  0.54099  0.74295  0.25888  1.0000
  S   S112      1.0  0.55350  0.70389  0.23463  1.0000
  Fe  Fe57      1.0  0.59777  0.70729  0.29592  1.0000
  S   S113      1.0  0.61982  0.67213  0.34773  1.0000
  Fe  Fe58      1.0  0.57529  0.73104  0.19497  1.0000
  S   S114      1.0  0.57649  0.72784  0.12172  1.0000
  S   S115      1.0  0.58408  0.74493  0.32140  1.0000
  S   S116      1.0  0.56031  0.77034  0.21575  1.0000
  C   C773      1.0  0.62581  0.70334  0.42292  1.0000
  C   C774      1.0  0.62685  0.67725  0.40747  1.0000
  H   H622      1.0  0.77898  0.82576  0.44441  1.0000
  H   H623      1.0  0.62152  0.72066  0.39904  1.0000
  C   C775      1.0  0.69640  0.69892  0.30670  1.0000
  C   C776      1.0  0.73275  0.82140  0.31041  1.0000
  C   C777      1.0  0.71361  0.80312  0.27910  1.0000
  C   C778      1.0  0.68466  0.79677  0.27970  1.0000
  C   C779      1.0  0.67426  0.80875  0.31157  1.0000
  C   C780      1.0  0.69354  0.82675  0.34340  1.0000
  C   C781      1.0  0.72266  0.83293  0.34307  1.0000
  H   H624      1.0  0.72101  0.79418  0.25347  1.0000
  H   H625      1.0  0.67007  0.78316  0.25461  1.0000
  H   H626      1.0  0.68569  0.83639  0.36788  1.0000
  H   H627      1.0  0.73689  0.84719  0.36713  1.0000
  C   C782      1.0  0.54650  0.71838  0.07020  1.0000
  C   C783      1.0  0.54934  0.72260  0.02643  1.0000
  C   C784      1.0  0.68617  0.72165  0.41110  1.0000
  H   H628      1.0  0.56963  0.73191  0.02469  1.0000
  H   H629      1.0  0.77069  0.77540  0.37595  1.0000
  C   C785      1.0  0.68310  0.76870  0.42914  1.0000
  C   C786      1.0  0.97759  0.78977  0.30285  1.0000
  C   C787      1.0  0.97832  0.81617  0.28446  1.0000
  C   C788      1.0  0.95734  0.83610  0.28579  1.0000
  C   C789      1.0  0.93573  0.83012  0.30620  1.0000
  C   C790      1.0  0.93542  0.80388  0.32551  1.0000
  C   C791      1.0  0.95598  0.78376  0.32326  1.0000
  C   C792      1.0  0.58557  0.77972  0.44140  1.0000
  H   H630      1.0  0.95773  0.85627  0.27066  1.0000
  H   H631      1.0  0.91880  0.79890  0.34098  1.0000
  H   H632      1.0  0.95508  0.76340  0.33736  1.0000
  H   H633      1.0  0.97283  0.95775  0.26323  1.0000
  H   H634      1.0  0.98100  0.78132  0.20063  1.0000
  H   H635      1.0  0.70868  0.66550  0.38793  1.0000
  C   C793      1.0  0.73817  0.72756  0.30728  1.0000
  H   H636      1.0  0.97396  0.75679  0.03006  1.0000
  C   C794      1.0  0.58076  0.82208  0.07716  1.0000
  H   H637      1.0  0.96245  0.82459  0.04479  1.0000
  C   C795      1.0  0.71211  0.67586  0.30187  1.0000
  P   P28       1.0  0.51873  0.71376  0.45278  1.0000
  C   C796      1.0  0.54289  0.68414  0.39884  1.0000
  P   P29       1.0  0.93750  0.80967  0.11780  1.0000
  C   C797      1.0  0.95149  0.77497  0.12914  1.0000
  C   C798      1.0  0.96886  0.83246  0.14300  1.0000
  H   H638      1.0  0.99242  0.96141  0.34920  1.0000
  H   H639      1.0  0.60166  0.79462  0.43815  1.0000
  H   H640      1.0  0.85496  0.83123  0.20851  1.0000
  C   C799      1.0  0.52842  0.79201  0.03405  1.0000
  H   H641      1.0  0.98942  0.88747  0.21135  1.0000
  C   C800      1.0  0.97253  0.76680  0.17340  1.0000
  C   C801      1.0  0.98188  0.73958  0.18341  1.0000
  C   C802      1.0  0.97119  0.72051  0.14893  1.0000
  C   C803      1.0  0.95089  0.72860  0.10433  1.0000
  C   C804      1.0  0.94084  0.75567  0.09453  1.0000
  C   C805      1.0  0.90989  0.81518  0.14459  1.0000
  C   C806      1.0  0.88992  0.83768  0.12963  1.0000
  H   H642      1.0  0.74183  0.79298  0.45326  1.0000
  C   C807      1.0  0.86975  0.82647  0.18995  1.0000
  C   C808      1.0  0.88926  0.80391  0.20469  1.0000
  C   C809      1.0  0.90939  0.79833  0.18238  1.0000
  C   C810      1.0  0.63424  0.65512  0.44030  1.0000
  H   H643      1.0  0.67903  0.70567  0.38643  1.0000
  C   C811      1.0  0.76788  0.74765  0.43069  1.0000
  H   H644      1.0  0.94281  0.91183  0.47986  1.0000
  H   H645      1.0  0.50921  0.66068  0.17337  1.0000
  H   H646      1.0  0.63158  0.72794  0.48150  1.0000
  H   H647      1.0  0.89582  0.95766  0.32589  1.0000
  C   C812      1.0  0.99113  0.87129  0.18961  1.0000
  C   C813      1.0  0.54102  0.75254  0.40527  1.0000
  C   C814      1.0  0.51624  0.64914  0.34674  1.0000
  C   C815      1.0  0.99620  0.82845  0.13616  1.0000
  C   C816      1.0  0.65222  0.66557  0.20977  1.0000
  C   C817      1.0  0.92028  0.81572  0.05497  1.0000
  H   H648      1.0  0.94261  0.71388  0.07744  1.0000
  H   H649      1.0  0.92476  0.76131  0.05992  1.0000
  H   H650      1.0  0.60134  0.83334  0.09390  1.0000
  C   C818      1.0  0.92649  0.92347  0.33912  1.0000
  C   C819      1.0  0.86996  0.84327  0.15228  1.0000
  H   H651      1.0  0.88944  0.79123  0.23451  1.0000
  H   H652      1.0  0.92487  0.78123  0.19567  1.0000
  H   H653      1.0  0.53613  0.77493  0.10321  1.0000
  C   C820      1.0  0.50019  0.70201  0.98697  1.0000
  H   H654      1.0  0.91343  0.91409  0.30665  1.0000
  H   H655      1.0  0.69687  0.74239  0.31249  1.0000
  H   H656      1.0  0.74785  0.74763  0.30812  1.0000
  H   H657      1.0  0.94634  0.85723  0.17777  1.0000
  H   H658      1.0  0.75379  0.66149  0.29619  1.0000
  H   H659      1.0  0.82064  0.79329  0.42488  1.0000
  H   H660      1.0  0.95835  0.89033  0.36305  1.0000
  C   C821      1.0  0.96788  0.97580  0.27832  1.0000
  C   C822      1.0  0.54390  0.78932  0.08247  1.0000
  H   H661      1.0  0.80236  0.96364  0.34730  1.0000
  C   C823      1.0  0.63197  0.70750  0.47020  1.0000
  H   H662      1.0  0.97729  0.84807  0.42968  1.0000
  C   C824      1.0  0.57013  0.80419  0.10402  1.0000
  H   H663      1.0  0.56342  0.69565  0.41428  1.0000
  H   H664      1.0  0.97844  0.69944  0.15702  1.0000
  H   H665      1.0  0.89035  0.85130  0.10125  1.0000
  C   C825      1.0  0.54466  0.74001  0.44892  1.0000
  C   C826      1.0  0.91664  0.94814  0.34980  1.0000
  C   C827      1.0  0.99644  0.77998  0.99155  1.0000
  C   C828      1.0  0.53877  0.81009  0.00677  1.0000
  H   H666      1.0  0.50883  0.77952  0.01849  1.0000
  C   C829      1.0  0.80978  0.77787  0.43943  1.0000
  H   H667      1.0  0.66158  0.75289  0.36059  1.0000
  H   H668      1.0  0.85502  0.86093  0.14132  1.0000
  C   C830      1.0  0.70939  0.72465  0.30948  1.0000
  H   H669      1.0  0.74610  0.73970  0.40920  1.0000
  H   H670      1.0  0.57403  0.83870  0.00841  1.0000
  H   H671      1.0  0.67380  0.69696  0.30749  1.0000
  H   H672      1.0  0.67445  0.78899  0.41680  1.0000
  C   C831      1.0  0.52042  0.70604  0.07214  1.0000
  C   C832      1.0  0.99385  0.76844  0.03260  1.0000
  H   H673      1.0  0.62078  0.68379  0.14521  1.0000
  H   H674      1.0  0.55772  0.78250  0.36793  1.0000
  C   C833      1.0  0.67593  0.74826  0.39672  1.0000
  C   C834      1.0  0.51723  0.68894  0.41020  1.0000
  H   H675      1.0  0.51828  0.70250  0.10564  1.0000
  H   H676      1.0  0.97089  0.95582  0.45705  1.0000
  C   C835      1.0  0.75421  0.70464  0.30320  1.0000
  C   C836      1.0  0.66861  0.82978  0.47013  1.0000
  H   H677      1.0  0.77649  0.70700  0.30132  1.0000
  C   C837      1.0  0.95211  0.91005  0.37134  1.0000
  C   C838      1.0  0.56101  0.77271  0.40175  1.0000
  C   C839      1.0  0.56518  0.82503  0.02874  1.0000
  C   C840      1.0  0.95899  0.94685  0.42397  1.0000
  H   H678      1.0  0.58253  0.80138  0.14141  1.0000
  C   C841      1.0  0.74125  0.67883  0.30042  1.0000
  C   C842      1.0  0.54227  0.66448  0.36701  1.0000
  H   H679      1.0  0.68173  0.83169  0.44782  1.0000
  C   C843      1.0  0.84492  0.97882  0.39366  1.0000
  H   H680      1.0  0.87507  0.80457  0.05094  1.0000
  C   C844      1.0  0.93298  0.95989  0.39215  1.0000
  H   H681      1.0  0.92470  0.97856  0.40095  1.0000
  C   C845      1.0  0.74982  0.80872  0.47818  1.0000
  C   C846      1.0  0.93831  0.82175  0.02836  1.0000
  C   C847      1.0  0.96833  0.92149  0.41434  1.0000
  C   C848      1.0  0.88926  0.81058  0.03155  1.0000
  C   C849      1.0  0.96663  0.85395  0.17036  1.0000
  H   H682      1.0  0.63698  0.86128  0.43084  1.0000
  H   H683      1.0  0.60687  0.85865  0.48208  1.0000
  C   C850      1.0  0.62334  0.67133  0.17644  1.0000
  C   C851      1.0  0.77082  0.82738  0.47286  1.0000
  C   C852      1.0  0.64336  0.84686  0.46065  1.0000
  H   H684      1.0  0.56196  0.66133  0.35779  1.0000
  C   C853      1.0  0.70407  0.71543  0.45779  1.0000
  H   H685      1.0  0.99469  0.82114  0.26853  1.0000
  H   H686      1.0  0.67183  0.67372  0.20382  1.0000
  H   H687      1.0  0.57525  0.66705  0.15848  1.0000
  C   C854      1.0  0.78191  0.73830  0.47745  1.0000
  H   H688      1.0  0.99708  0.73320  0.21829  1.0000
  C   C855      1.0  0.70082  0.76263  0.47644  1.0000
  H   H689      1.0  0.52265  0.74670  0.37393  1.0000
  C   C856      1.0  0.65570  0.64984  0.25071  1.0000
  H   H690      1.0  0.71140  0.69467  0.46923  1.0000
  C   C857      1.0  0.59763  0.66181  0.18391  1.0000
  C   C858      1.0  0.58958  0.76712  0.48492  1.0000
  S   S117      1.0  0.52876  0.72255  0.75894  1.0000
  C   C859      1.0  0.94610  0.67406  0.85886  1.0000
  S   S118      1.0  0.98117  0.80482  0.81784  1.0000
  Fe  Fe59      1.0  0.92951  0.74075  0.77655  1.0000
  S   S119      1.0  0.91548  0.77681  0.80609  1.0000
  S   S120      1.0  0.89776  0.70534  0.74506  1.0000
  Fe  Fe60      1.0  0.93471  0.80190  0.76094  1.0000
  S   S121      1.0  0.90942  0.83744  0.71263  1.0000
  Fe  Fe61      1.0  0.96332  0.77559  0.86034  1.0000
  S   S122      1.0  0.96639  0.77552  0.93685  1.0000
  S   S123      1.0  0.94681  0.76591  0.72901  1.0000
  S   S124      1.0  0.97658  0.73793  0.83238  1.0000
  S   S125      1.0  0.68008  0.67800  0.69212  1.0000
  S   S126      1.0  0.64631  0.69251  0.56160  1.0000
  S   S127      1.0  0.76601  0.67950  0.75062  1.0000
  C   C860      1.0  0.99383  0.78667  0.54122  1.0000
  C   C861      1.0  0.84299  0.67842  0.71849  1.0000
  H   H691      1.0  0.57285  0.66657  0.63752  1.0000
  H   H692      1.0  0.69557  0.72187  0.63417  1.0000
  H   H693      1.0  0.92286  0.88846  0.53402  1.0000
  C   C862      1.0  0.86054  0.69930  0.74524  1.0000
  C   C863      1.0  0.84824  0.71444  0.77169  1.0000
  C   C864      1.0  0.81921  0.70829  0.77225  1.0000
  C   C865      1.0  0.80180  0.68716  0.74607  1.0000
  H   H694      1.0  0.86133  0.73054  0.79249  1.0000
  H   H695      1.0  0.81028  0.71979  0.79366  1.0000
  C   C866      1.0  0.89991  0.83243  0.65226  1.0000
  C   C867      1.0  0.89882  0.80620  0.63625  1.0000
  C   C868      1.0  0.89366  0.80216  0.58922  1.0000
  C   C869      1.0  0.88833  0.82423  0.55702  1.0000
  C   C870      1.0  0.88691  0.85055  0.57182  1.0000
  C   C871      1.0  0.89316  0.85468  0.61964  1.0000
  H   H696      1.0  0.90071  0.78886  0.65959  1.0000
  H   H697      1.0  0.89363  0.78172  0.57772  1.0000
  H   H698      1.0  0.88177  0.86764  0.54678  1.0000
  H   H699      1.0  0.89311  0.87506  0.63144  1.0000
  C   C872      1.0  0.56174  0.67490  0.60204  1.0000
  C   C873      1.0  0.55572  0.69796  0.75655  1.0000
  C   C874      1.0  0.55821  0.67178  0.77750  1.0000
  H   H700      1.0  0.59367  0.65671  0.57669  1.0000
  C   C875      1.0  0.99164  0.88322  0.71546  1.0000
  C   C876      1.0  0.59704  0.68629  0.73004  1.0000
  C   C877      1.0  0.57534  0.70505  0.73292  1.0000
  C   C878      1.0  0.71163  0.73583  0.49019  1.0000
  C   C879      1.0  0.52709  0.79262  0.86654  1.0000
  H   H701      1.0  0.61199  0.69218  0.71192  1.0000
  H   H702      1.0  0.57380  0.72524  0.71678  1.0000
  C   C880      1.0  0.73795  0.74267  0.66380  1.0000
  C   C881      1.0  0.93634  0.94221  0.57422  1.0000
  C   C882      1.0  0.83821  0.77549  0.68580  1.0000
  C   C883      1.0  0.83480  0.80295  0.67123  1.0000
  C   C884      1.0  0.82752  0.81043  0.62399  1.0000
  C   C885      1.0  0.82442  0.79054  0.59141  1.0000
  C   C886      1.0  0.82846  0.76288  0.60592  1.0000
  C   C887      1.0  0.83470  0.75555  0.65326  1.0000
  P   P30       1.0  0.82883  0.73694  0.56604  1.0000
  C   C888      1.0  0.80974  0.70741  0.57822  1.0000
  H   H703      1.0  0.85213  0.66658  0.69776  1.0000
  Fe  Fe62      1.0  0.66770  0.66149  0.62070  1.0000
  H   H704      1.0  0.95162  0.91990  0.64042  1.0000
  H   H705      1.0  0.94837  0.77684  0.60417  1.0000
  H   H706      1.0  0.90277  0.69236  0.84840  1.0000
  C   C889      1.0  0.52261  0.70332  0.54521  1.0000
  C   C890      1.0  0.82002  0.68108  0.57533  1.0000
  H   H707      1.0  0.72553  0.73033  0.52604  1.0000
  C   C891      1.0  0.53831  0.79303  0.91561  1.0000
  C   C892      1.0  0.63938  0.68560  0.50296  1.0000
  C   C893      1.0  0.78419  0.71066  0.59037  1.0000
  C   C894      1.0  0.86789  0.72811  0.57596  1.0000
  C   C895      1.0  0.88977  0.72632  0.62160  1.0000
  C   C896      1.0  0.91996  0.71982  0.62929  1.0000
  C   C897      1.0  0.92869  0.71518  0.59151  1.0000
  C   C898      1.0  0.99629  0.76842  0.62995  1.0000
  C   C899      1.0  0.98928  0.93838  0.62658  1.0000
  H   H708      1.0  0.84436  0.76962  0.72255  1.0000
  H   H709      1.0  0.83875  0.81846  0.69675  1.0000
  H   H710      1.0  0.82593  0.83176  0.61304  1.0000
  H   H711      1.0  0.81999  0.79710  0.55554  1.0000
  H   H712      1.0  0.83789  0.73440  0.66544  1.0000
  C   C900      1.0  0.81383  0.67241  0.71881  1.0000
  C   C901      1.0  0.57336  0.66908  0.56776  1.0000
  C   C902      1.0  0.75704  0.76240  0.65605  1.0000
  C   C903      1.0  0.56914  0.74747  0.48882  1.0000
  H   H713      1.0  0.66582  0.79545  0.56729  1.0000
  H   H714      1.0  0.52634  0.92695  0.90031  1.0000
  H   H715      1.0  0.73900  0.83582  0.57113  1.0000
  H   H716      1.0  0.97125  0.84973  0.73995  1.0000
  C   C904      1.0  0.97512  0.96432  0.55231  1.0000
  H   H717      1.0  0.77603  0.73074  0.59306  1.0000
  H   H718      1.0  0.88382  0.72986  0.65158  1.0000
  H   H719      1.0  0.93654  0.71837  0.66477  1.0000
  H   H720      1.0  0.95219  0.71046  0.59760  1.0000
  P   P31       1.0  0.70963  0.78865  0.51937  1.0000
  H   H721      1.0  0.95155  0.85014  0.58663  1.0000
  H   H722      1.0  0.50133  0.91157  0.95505  1.0000
  H   H723      1.0  0.97714  0.71748  0.96842  1.0000
  C   C905      1.0  0.96866  0.70454  0.93886  1.0000
  P   P32       1.0  0.51953  0.81392  0.94396  1.0000
  C   C906      1.0  0.87673  0.72263  0.53823  1.0000
  C   C907      1.0  0.65987  0.80944  0.53717  1.0000
  H   H724      1.0  0.54884  0.89303  0.86461  1.0000
  C   C908      1.0  0.54073  0.77589  0.84403  1.0000
  H   H725      1.0  0.94600  0.79336  0.52551  1.0000
  C   C909      1.0  0.94459  0.95825  0.54231  1.0000
  H   H726      1.0  0.74469  0.73128  0.69716  1.0000
  C   C910      1.0  0.70163  0.75177  0.58521  1.0000
  C   C911      1.0  0.76918  0.68794  0.59972  1.0000
  C   C912      1.0  0.77954  0.66179  0.59682  1.0000
  H   H727      1.0  0.62176  0.82574  0.55040  1.0000
  H   H728      1.0  0.83979  0.67804  0.56633  1.0000
  C   C913      1.0  0.98840  0.68746  0.92757  1.0000
  C   C914      1.0  0.56516  0.75896  0.87028  1.0000
  H   H729      1.0  0.92295  0.71994  0.91883  1.0000
  H   H730      1.0  0.68026  0.74688  0.55795  1.0000
  C   C915      1.0  0.93785  0.70608  0.91067  1.0000
  C   C916      1.0  0.94456  0.88216  0.53345  1.0000
  C   C917      1.0  0.67687  0.81060  0.50808  1.0000
  C   C918      1.0  0.92544  0.82314  0.97947  1.0000
  H   H731      1.0  0.49843  0.86254  0.97372  1.0000
  C   C919      1.0  0.53764  0.88631  0.88813  1.0000
  H   H732      1.0  0.76435  0.79121  0.60739  1.0000
  H   H733      1.0  0.52872  0.71797  0.95150  1.0000
  C   C920      1.0  0.55959  0.68013  0.52219  1.0000
  C   C921      1.0  0.63480  0.82679  0.52786  1.0000
  C   C922      1.0  0.53636  0.69203  0.59077  1.0000
  C   C923      1.0  0.97699  0.67257  0.88686  1.0000
  H   H734      1.0  0.77862  0.76618  0.68360  1.0000
  H   H735      1.0  0.54355  0.66602  0.79615  1.0000
  C   C924      1.0  0.71028  0.73738  0.62837  1.0000
  H   H736      1.0  0.53166  0.77522  0.80616  1.0000
  C   C925      1.0  0.53396  0.69720  0.51040  1.0000
  C   C926      1.0  0.80986  0.74898  0.50571  1.0000
  H   H737      1.0  0.57497  0.74536  0.85260  1.0000
  C   C927      1.0  0.51091  0.89676  0.93910  1.0000
  H   H738      1.0  0.91267  0.93732  0.56626  1.0000
  H   H739      1.0  0.99393  0.81460  0.70714  1.0000
  C   C928      1.0  0.72063  0.77175  0.57697  1.0000
  C   C929      1.0  0.74860  0.77679  0.61276  1.0000
  H   H740      1.0  0.88485  0.81898  0.91863  1.0000
  H   H741      1.0  0.74986  0.69057  0.61017  1.0000
  H   H742      1.0  0.86037  0.72315  0.50271  1.0000
  S   S128      1.0  0.88543  0.81744  0.49979  1.0000
  C   C930      1.0  0.52138  0.84962  0.92874  1.0000
  H   H743      1.0  0.79724  0.86286  0.49935  1.0000
  C   C931      1.0  0.98817  0.85203  0.56093  1.0000
  C   C932      1.0  0.80496  0.65836  0.58470  1.0000
  C   C933      1.0  0.92654  0.69073  0.87085  1.0000
  H   H744      1.0  0.53016  0.66109  0.67901  1.0000
  H   H745      1.0  0.60888  0.77203  0.51563  1.0000
  H   H746      1.0  0.84544  0.77685  0.50701  1.0000
  Fe  Fe63      1.0  0.72405  0.65458  0.70957  1.0000
  C   C934      1.0  0.57635  0.75909  0.91915  1.0000
  H   H747      1.0  0.59503  0.74564  0.93948  1.0000
  C   C935      1.0  0.96867  0.77696  0.59587  1.0000
  C   C936      1.0  0.96740  0.78608  0.55152  1.0000
  C   C937      1.0  0.59947  0.66009  0.75084  1.0000
  C   C938      1.0  0.53600  0.85850  0.89845  1.0000
  C   C939      1.0  0.73869  0.81112  0.51436  1.0000
  C   C940      1.0  0.96062  0.86053  0.56283  1.0000
  C   C941      1.0  0.76944  0.85140  0.53903  1.0000
  H   H748      1.0  0.99731  0.76185  0.66465  1.0000
  C   C942      1.0  0.90707  0.71654  0.54599  1.0000
  C   C943      1.0  0.74820  0.83296  0.54414  1.0000
  Fe  Fe64      1.0  0.99214  0.76733  0.78719  1.0000
  H   H749      1.0  0.77686  0.86810  0.56230  1.0000
  H   H750      1.0  0.54646  0.84421  0.88305  1.0000
  C   C944      1.0  0.89454  0.81841  0.95657  1.0000
  C   C945      1.0  0.95606  0.89539  0.50246  1.0000
  C   C946      1.0  0.50923  0.86898  0.94949  1.0000
  H   H751      1.0  0.99202  0.66043  0.87597  1.0000
  H   H752      1.0  0.50738  0.80482  0.84567  1.0000
  H   H753      1.0  0.56981  0.67614  0.49682  1.0000
  H   H754      1.0  0.77094  0.72274  0.49124  1.0000
  H   H755      1.0  0.93734  0.66310  0.82683  1.0000
  C   C947      1.0  0.52502  0.90542  0.90831  1.0000
  C   C948      1.0  0.98567  0.85573  0.72095  1.0000
  H   H756      1.0  0.57301  0.73788  0.52291  1.0000
  H   H757      1.0  0.97758  0.97362  0.68300  1.0000
  H   H758      1.0  0.80100  0.65590  0.69896  1.0000
  H   H759      1.0  0.52778  0.69711  0.61765  1.0000
  H   H760      1.0  0.91379  0.71289  0.51664  1.0000
  H   H761      1.0  0.93969  0.82704  0.95922  1.0000
  C   C949      1.0  0.95854  0.93224  0.61609  1.0000
  H   H762      1.0  0.92726  0.96570  0.50969  1.0000
  C   C950      1.0  0.57990  0.65301  0.77455  1.0000
  H   H763      1.0  0.98157  0.97697  0.52790  1.0000
  H   H764      1.0  0.98111  0.89805  0.72989  1.0000
  C   C951      1.0  0.98360  0.88668  0.50000  1.0000
  C   C952      1.0  0.64065  0.65927  0.48813  1.0000
  C   C953      1.0  0.78088  0.84851  0.50355  1.0000
  H   H765      1.0  0.99265  0.79506  0.50740  1.0000
  C   C954      1.0  0.87643  0.81220  0.98260  1.0000
  H   H766      1.0  0.85256  0.80801  0.96477  1.0000
  C   C955      1.0  0.56308  0.77610  0.94183  1.0000
  H   H767      1.0  0.50371  0.71731  0.53779  1.0000
  C   C956      1.0  0.62643  0.84537  0.48947  1.0000
  C   C957      1.0  0.99741  0.95417  0.59393  1.0000
  C   C958      1.0  0.82372  0.76866  0.48610  1.0000
  C   C959      1.0  0.99059  0.96683  0.71872  1.0000
  C   C960      1.0  0.52622  0.71466  0.98492  1.0000
  H   H768      1.0  0.57189  0.77550  0.97970  1.0000
