data_image0
_chemical_formula_structural       FeSCSCFeSCFeCFeSHCHCHSHC2S2CFeS2FeSH2C2HC3H2C5PSC5HCH2CH3C2H2C4H2SC4HC8H3C7H4C2HC2SC6PC3SC14H6C2H14CH2C4HCHCH2CH3FeHSHFeHC3HFeH3SHC2HCHFeH2CH3C4H3PC2HFeSH5CSCH2CHC2HC3FeCSC4H3SH2C4PC14HCHCPCH14FeC4HC3HCH4CH3CH3CHCSHC2HCPCHSC2HC3HC4H4C2HCSCHCH3C2HSFeS2Fe2HSHC4HPHCHFeS2FeS2FeSFeCS2FeCFeCSCHFeCS2C4SC2PC2HC2H2C7H4C7HCH2CH3CH3CHC7H4SCH4CHC2PC15H8C2HPC12H7CH2C6PC11H7SCH2CH5CSC3HC2HCHCH3C2H3CSH3C2HCHC5H2C2H2CHC2H3C4H2C2H2CHC3HC10H3CHCFeCHC2H10C2HC2H2CHCH4C4HCSHCHC3HFeHCHC6HC3HPCHC2H2C6SHCHCHCHC5H2CH3CH2CH2PH7C2HCH3CHCH3CSC3HSH2CH2SCH2CH2CHFeS2FeS2FeSFeS3FeS2FeS2FeSFeS3C2SFeHSFeS2HCHC6H4C6H4C3SH2C6H4C4H5CHSC3HCHCH2C6H3C9H4C2PHC4H2PC2HC5SHCH3CFeC4HCH3C3HC6H3C4PH2C3H4C6PC18H10CH5CH5CH2SC2H2CH3CH3CHC2H5CHC3H4CH2C5H3FeH2CHCHSHFeS3FeSCSFe2SFeS2CHCS2HPHC3HCHCHSHFeHPSHC8H2CH2CHC2HCHSHSHCHC3FeCHC5PC18H17CH3CSPC3SHC13H2CH3CH2CHCHCH6C2HC2H4C6H2C2H3C2SH2CHC3HC3H2C3H2C3SHCH5CHC2SH2C2HC3HC3HFeSHCH2SFeCH2FeCHC2H2CFeC2HCPC3HCHSHCH2CHC2H2C3H2C2HCFeHCHCH2CH3C3PHCHC2HC3HC2HC5SHCFeSCH2CH2SC2FeS2FeSFeS4FeS2FeS2FeSFePS2C6H4C6H4C6H4C5H4C4HCH2C5H6CHCH2C3HSC4HC2SCHC3H2CHCH3C2HCHCHSC2PC5HC5H2CHC6HC3HCHC4H2C2H4CHC2SC3HCHC4HC3HC2PC3HCHCH6CHC2H2CH2C5HC2H2C2HCH2SCH2CHC6PC16HCH23CH7C6H2C3H4CHCH2CH3C3FeHCSC3HC6PC3SH3C11H5CFeCH3CH3PC2HFeHCHCH2CH2CH3SHC3HC3SCH2C2H2PHCH2C2HC4HCH2SCHC4HC4HCHCH2FeCH4C2HCFeS2FeS2FeSFeS3FeS2FeS2FeSFeHS2FeSH2CHCFeSCSHC3H2CH2CHCHC6H4C6H10C5H2CH2CHCHC2HCH2C3H3CHC2H3CHCHCH3PH2CHC8PC3HC14H6CH9CHCHC2H2SCH3CHSCH2C5HCH2C6HPC2S2CH4CHC2FeC5PC7HCHC6H2PHCH2CHC5H2C2H2C2H2C2HCHCHC5H2CH2PH4C2HCHCHCHC4HC3HC2HC2HCH5CSCHC3HCSCHC4H4C3HC2HCFeC2HCH2CHC2SCHCH3FeS2FeS2FeCFeS3FeS2FeCFeS2FeSH2CH4C2H2C6H4CSC3HC6H5CH2CHCH2CHPCH3CH2C2HCPHCHCHCPC4HSHSCHCHC5H2C3HCSH2C3H2CH4CH5CHC8SCH3C8PC19H15C2H4C2HCH2CHCH2CFeCH5CHC5HC4HC3HCSH2C2H2C3H2C4HCH5CHSHCHFeSHPFeS2FeS2FeSFeS3HCHSC2H3C4H2C7H2CHC6H5CH2CH2CH2CHC5HC3H2CH3C2H2CHC4HCH2C3HC6H2PC5HSC7H5CH2C2HC2H3C2H3C2HC2H7C3SCHCH2FeCHC3HCSHC4HCHCPC9H2CFeHC4HCHCH2CH4PCSH3PCHCHC2HC2HCHSC2H3C3H2C3H2FeS2FeS2H2CFeSFeS2FeSFeS3HCSCHC6H4CH2C3HC6H4CHPC3HC3HCHC7HCH2CH4CH3CHC2H3C3H3CSHCHC2HC2H3C2HC2HCHFeSCH3C2H2C2HCHCHCH2CHC4H3C5H3C4HCH2C3H3CHC2HPHC3HC4HC3SH7CH4CHCHSH3CHC3HCH2C2HC2PFeC2HSC2H3C4PH2C2HCHC2HCHC6H3CHC5HC2H2CH4C2PHC2SCHCHC3HFeS2FeS2FeSFeS3HC3H5CHC3FePH2C6H4CH2CHCHC3H2SHC2H2C5SCHC3HC2HC2H4FeCH2CHC2H2C2HCHSH2C2HCH3CHCH2C3HC3SC4HC7H4CH2C4H2CSCPC2HCHC2HCHCH3CHCHFeC2H3CHSC6HPCFeC3H2CH3C2HC2H2CH2C2HCHCH2C9H2CH2CHCH8SC2HC3HC3PC4H7CH2C3H2CH3C5PCSHSFeS2FeS2FeSFeS3HCFeS2FeSFeS2H2SHC7H4C2H2FeCH2SHC6H4C3H2C6H5C4PHC4FeCHCH4CH2SHCH4C3H2CPHCHC2H4CHC7PC21H17C6PC18H13CH7SCHCH3C5H3C2HCHC7HSH3C3FeCHCH2C2HC2HCHCH2C7PCHCHC2HC3HFeHCH4CH2CH7C2HC7HC2HCHC7HC3HC4H6SC3FeCHC2HCH2CH2C4H2C2SC2H2CHCPH4C6HCFeS2FeS2FeCFeS3FeS2FeSCFeSFeS3CH2C2H2C2FeHCSC3HCH2C5HSHCHC9H4CSC2H3C6H4C6H5CH2C5HCHC2H2C3H2CHCHC2HCHCH6CHC2PHCH2CH3C3H2CHC2HC2H2CPH3CHFeHCHC3HCHCHC2H2CH2SCH3C3H5CHC3HCHC3HC3H3C2HCFeHC6H2C3PCHCSHCH2CH3CPHCHC3H2C2HCH4C7HC2H2CHCH2C4HCHC2HCH2CHCHCHCHC2HCH2C2HCH2CHCH3FeS2FeS2FeSFeS3CHC3HCSC2FeS2FeSCFeSFeCS2FeS2FeSFe2SHS2HCHC7H4CH2FeC5HC6H4C2FeC4H3C5H4C6SH2C3H2C3H3C2HCH3C2H2CHCH4C9PC18H20SCHC2HC4HC3H6C6PC14HCH14SCHC2H2CH2CPCHC6HCHSHC2H2C2H2C4H4FeH2SC7H2C2H4C4H3C2H3CHCH2C2HSCHC2HPC3H2CHPHC2HPH3CH3SCHCHC7FeS2H2FeSCSC2FeSFeS2FeCFeHS2C2H2C3HC9H4SC2HC2HCHC6H3C3HC2SH2CH2CHCH4CSH2FeH3C3HCHC2HCH2PCHC3PCH2C3HC2SH3CPC3H3CH2CHC6PC3FeC5HC8H5CH2SH4CSH6CHSHCHCH5SHC2H2PHC2HC2SHCHC3H2C3HC6H2C3Fe2H2C4H3C2H2C2HCH2C2H6CHCSHC5HCHCHSCH2FeC2SHCFeSCFeS2FeCFeS4CFeS2CHC3HCHCHCH2C3H3C2HC2H2CHC6H4CH2C2H2C2H2FeCSHCHC3H3CSHCHC5H2CSCH2CHC2PC3HCHCHCHSH3C2HPC8H4CHCSCH2CFeCH6C7HCHSH2CHCH3CHC3FeC3PHC9H2CFeSCHCH2CHC4HCHC2HSHC2HCH6C3SHC4HC2H2C3HSCH2PHC2H2C2H2CHCHPH2FeCH4CH2C4HC5HC2FeH2CHCH2CH2SH2C2HC4HC4HCHFeS2FeHFeCFeCS2FeS2FeSFeSFeS3HC4SHFeSFeS2FeSFeS3C6H4C6H4CHC3HC2HC7H7CPHC2SHC4H2C2H2C2HCSH2CHCPH7C4PC13H3CHCH3CH11C2HCHCH3CHSC11H2SH5C13HC2H8C4PC13H2CH2CH3CH3C4PH4CH2C7PC18HCH5C2H8C3HC5H4CHCH6CHC2HCHCH2SH2CH2C5H2CH2C4SHC4SH2C2H5C6HCH2CH3CHCHCHC3HCH3C3H2C2H2CH2CFeS2FeS2FeCFeS3C2HFeS2C2H4PHC6H6CH2CHCH2C6H5CHC2FeC4HSHC3HCH2C2H2SH2C2HCHC2FeC2HCHC6HCHC3FeC5H3CHPC2HCHC9H6C2HCHCSCHCH3C4H3CHCHCH3CSCHSH5CHCSHFeHSCHC2HCHCH4C2H2CH3CH2CSHCSCHCHC4HCHFeS2FeS2FeSFeS3FeS2FeS2FeSFeS3C2H3CH2PC2HCH6C7H4C2HC6H2C5H4CHCH2C4HC5HC2HCH2C3H2CSHC3H2C3PC5HCH3CPCH3C4HFeHCHC3H3C4HCPCHC3H2C4H4CHC4HCHC2HC3PH2C2HCHCH4CH2C3H2C4SHC7HC3H2C2H3CH2CHC2HCHCHC2PHC4H4C5HCH2C3HC2H2C2H4C4HCHC2HC2H3C7HC2H3CSH3CHCH2SH2SH5C3H2C2HCH3CH2C4FeS2FeS2Fe2S5FeSC5HFePSFeH2CH2S3HC2HC4HCPC7H4C6H4C2HCHPHC4H2CSHCHCHCH2CH4C3HC10SCHC2H3FeH2C4HCHC3H2C2H2C3HCH2SHSC2H2CFeHFeHCHCH7C7PC18HSCH3CH13C3HCH2C2HSC2HC5H3CHC2H2C2HCH2C2H5CH3C3HC2HCHCH5CHSPC4H2C2H2FeCHC2HCH3CFeS2CSFeSFeS2FeSFeS3HFeS2FeC2FeSH2S2CH2CFe2PH2SC2SC3HC3H2C6H6CH2SC2HC6H7SHCHCHCHC2H3CHC2HC5HC4HCH2C3SC4H6CH2CHFeHCHCHC2HCHCH2CHCHC4HC3H2C2FeCH3C7PHC7H2CHC2HC3H3CHC3H2C2HC2H4C2HC3PHCH3CHCHC6H2CHCH3C2H3C2H3CH3C3PC6HC2HC2HCH6C2H4C4H3CH2SC2HC5PCH3C3HCH3CPH2C2H2SHCHC2SCHC3H2C2H2FeS2FeS2FeCFeS3HC3SFeS2FeSFeS3C7H3CHC4H4C6H4C2HFeC2HCH7CH2C2HC2H4CSHCHC2H2CH2CHPC6H2CH9CH2C8PC3HC12H6CH9C2HC10SH8C3H2CH2C6PC18H3SHC3SC3SH4SHC2H2CHCH2C2HFeHC3HC2HCHCH2FeSH2CHSFeS2FeSFeS3FeCFeCSCSCHS2FeS2FeS2FeHFeS3C3H2CH7C2H2CHCHC6H4C6H4CHCSCHSH2CHFeH2CH2C2H2CH3C5HCH2CH3C6H5C2H3C3HCPCH2C4HCHC2HPH3C4HC2H2C2HC2H3CHC3HCHC2HC9HC7PC18H16CH4C6PC3HCHC12H6C2H3CHC2H3CHCHCHCH2CHCPC2H3CH2CHC2HCHC2H3C4H2C3HC2HC3H3CHC2HC4HC2HC2HCSPHC3HC2FeH2CH5C3HC2H2FeS2H2SC4HC3HC4SHCHC2HFeS2FeSFeSFeHS2HC6H3CFeSC5HC2H2CHC4H3C6H4C6H6CSCH2CH2CHS2H3C3HCH2CHC3HSCHCSHC3SHCH5C2H3C5HCH9CH2CSH2PHCHC4H3C2H3FeC2FeH2C2H2C2HCHFeHCSC2HCHC3HCHCHC11PC5H2C2HC2H2SHPHCH3C2H3C2H2PC2HCHC5H2C2SC3H2C3HCH2CH4CH2SCSHC4HC2H4C6H5C3FeH2CFeS2FeS2FeSFeS3FeSC4HCHCHC2HC4H4C5PH3C4HC2HCH3CH2C2H2C5H4C3PC2HC3H3SC3H2CFeH2C5H3C2H6CH2C2HCH2CHCHC3HC3HC3HCHC2HCH3C2H2C5HC16HCHPH4CH4C9H4CHC3HC2H2C2H5C2PHC2SHC2HC4HC2HC3PH2SC2HC2H2C2HCHCPHCHCH2CHSHPC2HCHC2HC3HFeC3HC2HC3H2C2H2CPC2H2SC3H2CHC6PH4CH2CH5C2SH3CHC2H2CH2C2
_chemical_formula_sum              "Fe256 S512 C3840 H3072 P128"
_cell_length_a       66.9217
_cell_length_b       67.1028
_cell_length_c       67.439
_cell_angle_alpha    74.4607
_cell_angle_beta     74.9263
_cell_angle_gamma    75.0224

_space_group_name_H-M_alt    "P 1"
_space_group_IT_number       1

loop_
  _space_group_symop_operation_xyz
  'x, y, z'

loop_
  _atom_site_type_symbol
  _atom_site_label
  _atom_site_symmetry_multiplicity
  _atom_site_fract_x
  _atom_site_fract_y
  _atom_site_fract_z
  _atom_site_occupancy
  Fe  Fe1       1.0  0.30956  0.16326  0.19170  1.0000
  S   S1        1.0  0.27789  0.18508  0.19639  1.0000
  C   C1        1.0  0.09431  0.27762  0.13105  1.0000
  S   S2        1.0  0.23072  0.30119  0.20818  1.0000
  C   C2        1.0  0.99737  0.26501  0.01335  1.0000
  Fe  Fe2       1.0  0.32908  0.11871  0.21171  1.0000
  S   S3        1.0  0.20200  0.29491  0.17783  1.0000
  C   C3        1.0  0.23747  0.29022  0.10731  1.0000
  Fe  Fe3       1.0  0.19716  0.29932  0.21067  1.0000
  C   C4        1.0  0.35189  0.00604  0.15402  1.0000
  Fe  Fe4       1.0  0.23458  0.30041  0.17427  1.0000
  S   S4        1.0  0.26330  0.28257  0.15558  1.0000
  H   H1        1.0  0.02610  0.30867  0.03127  1.0000
  C   C5        1.0  0.34528  0.20299  0.20956  1.0000
  H   H2        1.0  0.39414  0.00684  0.02485  1.0000
  C   C6        1.0  0.40103  0.08050  0.14595  1.0000
  H   H3        1.0  0.00225  0.26234  0.02814  1.0000
  S   S5        1.0  0.13836  0.29901  0.09838  1.0000
  H   H4        1.0  0.40966  0.09268  0.11271  1.0000
  C   C7        1.0  0.06622  0.31776  0.19541  1.0000
  C   C8        1.0  0.00297  0.27092  0.07258  1.0000
  S   S6        1.0  0.10623  0.29006  0.06471  1.0000
  S   S7        1.0  0.34032  0.17004  0.17118  1.0000
  C   C9        1.0  0.33716  0.00239  0.02765  1.0000
  Fe  Fe5       1.0  0.36877  0.03307  0.09147  1.0000
  S   S8        1.0  0.39970  0.04287  0.07605  1.0000
  S   S9        1.0  0.34213  0.05115  0.11231  1.0000
  Fe  Fe6       1.0  0.39720  0.03178  0.04842  1.0000
  S   S10       1.0  0.40507  0.04789  0.01453  1.0000
  H   H5        1.0  0.39642  0.14451  0.09703  1.0000
  H   H6        1.0  0.45679  0.03433  0.13673  1.0000
  C   C10       1.0  0.45573  0.08246  0.14516  1.0000
  C   C11       1.0  0.34324  0.00691  0.00575  1.0000
  H   H7        1.0  0.33341  0.10060  0.15726  1.0000
  C   C12       1.0  0.03781  0.31450  0.99769  1.0000
  C   C13       1.0  0.45427  0.03531  0.08616  1.0000
  C   C14       1.0  0.06133  0.29525  0.16041  1.0000
  H   H8        1.0  0.35234  0.02693  0.19969  1.0000
  H   H9        1.0  0.44016  0.04040  0.07987  1.0000
  C   C15       1.0  0.40152  0.03246  0.99888  1.0000
  C   C16       1.0  0.39622  0.01271  0.00810  1.0000
  C   C17       1.0  0.43698  0.99802  0.16082  1.0000
  C   C18       1.0  0.16503  0.27746  0.05078  1.0000
  C   C19       1.0  0.47065  0.00442  0.02202  1.0000
  P   P1        1.0  0.08749  0.31410  0.17302  1.0000
  S   S11       1.0  0.13186  0.29740  0.00676  1.0000
  C   C20       1.0  0.13395  0.26920  0.19817  1.0000
  C   C21       1.0  0.46711  0.04975  0.08347  1.0000
  C   C22       1.0  0.21552  0.30728  0.08136  1.0000
  C   C23       1.0  0.16486  0.26055  0.06816  1.0000
  C   C24       1.0  0.26145  0.11469  0.21136  1.0000
  H   H10       1.0  0.46255  0.06598  0.07546  1.0000
  C   C25       1.0  0.03752  0.30302  0.01842  1.0000
  H   H11       1.0  0.34019  0.01460  0.14465  1.0000
  H   H12       1.0  0.24944  0.27735  0.11334  1.0000
  C   C26       1.0  0.41229  0.13493  0.09516  1.0000
  H   H13       1.0  0.48356  0.99146  0.11172  1.0000
  H   H14       1.0  0.23828  0.27771  0.08093  1.0000
  H   H15       1.0  0.43412  0.00578  0.14530  1.0000
  C   C27       1.0  0.34075  0.02786  0.99455  1.0000
  C   C28       1.0  0.42315  0.12946  0.11161  1.0000
  H   H16       1.0  0.27010  0.09855  0.21193  1.0000
  H   H17       1.0  0.41534  0.13520  0.12577  1.0000
  C   C29       1.0  0.16050  0.30241  0.12533  1.0000
  C   C30       1.0  0.47890  0.00771  0.10388  1.0000
  C   C31       1.0  0.45705  0.14263  0.14856  1.0000
  C   C32       1.0  0.40972  0.05961  0.11966  1.0000
  H   H18       1.0  0.16628  0.28557  0.12671  1.0000
  H   H19       1.0  0.17828  0.30441  0.14676  1.0000
  S   S12       1.0  0.37445  0.16574  0.21388  1.0000
  C   C33       1.0  0.17781  0.29196  0.04772  1.0000
  C   C34       1.0  0.12675  0.31275  0.18167  1.0000
  C   C35       1.0  0.36486  0.01687  0.15854  1.0000
  C   C36       1.0  0.38400  0.02783  0.20145  1.0000
  H   H20       1.0  0.20341  0.25503  0.21163  1.0000
  C   C37       1.0  0.14469  0.30269  0.19010  1.0000
  C   C38       1.0  0.11190  0.30119  0.18192  1.0000
  C   C39       1.0  0.35515  0.10831  0.12797  1.0000
  C   C40       1.0  0.36512  0.10265  0.10867  1.0000
  C   C41       1.0  0.36177  0.08470  0.10408  1.0000
  C   C42       1.0  0.34765  0.07289  0.11833  1.0000
  C   C43       1.0  0.33718  0.07890  0.13738  1.0000
  C   C44       1.0  0.34118  0.09636  0.14235  1.0000
  H   H21       1.0  0.37586  0.11189  0.09744  1.0000
  H   H22       1.0  0.36985  0.08023  0.08935  1.0000
  H   H23       1.0  0.32619  0.06985  0.14846  1.0000
  C   C45       1.0  0.40059  0.04294  0.15657  1.0000
  C   C46       1.0  0.27581  0.21227  0.18594  1.0000
  C   C47       1.0  0.29005  0.22021  0.16814  1.0000
  C   C48       1.0  0.28647  0.24196  0.15905  1.0000
  C   C49       1.0  0.26881  0.25573  0.16790  1.0000
  C   C50       1.0  0.25503  0.24781  0.18605  1.0000
  C   C51       1.0  0.25852  0.22613  0.19495  1.0000
  H   H24       1.0  0.30346  0.20956  0.16113  1.0000
  H   H25       1.0  0.29725  0.24808  0.14508  1.0000
  H   H26       1.0  0.24146  0.25829  0.19306  1.0000
  H   H27       1.0  0.24777  0.21997  0.20885  1.0000
  C   C52       1.0  0.47411  0.00401  0.04173  1.0000
  C   C53       1.0  0.11582  0.27924  0.18996  1.0000
  H   H28       1.0  0.08237  0.29486  0.21863  1.0000
  C   C54       1.0  0.33595  0.22335  0.21303  1.0000
  C   C55       1.0  0.23120  0.28970  0.02324  1.0000
  S   S13       1.0  0.41407  0.99869  0.05884  1.0000
  C   C56       1.0  0.28556  0.13776  0.12054  1.0000
  C   C57       1.0  0.30422  0.14352  0.12045  1.0000
  C   C58       1.0  0.30400  0.15648  0.13362  1.0000
  C   C59       1.0  0.28521  0.16358  0.14700  1.0000
  C   C60       1.0  0.26625  0.15831  0.14691  1.0000
  C   C61       1.0  0.26664  0.14504  0.13376  1.0000
  P   P2        1.0  0.24272  0.16555  0.16617  1.0000
  C   C62       1.0  0.21979  0.16007  0.16093  1.0000
  C   C63       1.0  0.24745  0.14913  0.19122  1.0000
  C   C64       1.0  0.25765  0.12785  0.19224  1.0000
  S   S14       1.0  0.36044  0.13040  0.13358  1.0000
  C   C65       1.0  0.22840  0.30659  0.11799  1.0000
  C   C66       1.0  0.45624  0.04608  0.14529  1.0000
  C   C67       1.0  0.24094  0.15694  0.20973  1.0000
  C   C68       1.0  0.21446  0.16879  0.14116  1.0000
  C   C69       1.0  0.19601  0.16584  0.13724  1.0000
  C   C70       1.0  0.18260  0.15447  0.15315  1.0000
  C   C71       1.0  0.18761  0.14605  0.17300  1.0000
  C   C72       1.0  0.20614  0.14882  0.17692  1.0000
  C   C73       1.0  0.23562  0.19369  0.16530  1.0000
  C   C74       1.0  0.24761  0.20771  0.15075  1.0000
  C   C75       1.0  0.24096  0.22951  0.14924  1.0000
  C   C76       1.0  0.22213  0.23759  0.16190  1.0000
  C   C77       1.0  0.20984  0.22387  0.17607  1.0000
  C   C78       1.0  0.21653  0.20202  0.17779  1.0000
  H   H29       1.0  0.28592  0.12725  0.11069  1.0000
  H   H30       1.0  0.31900  0.13756  0.11059  1.0000
  H   H31       1.0  0.31860  0.16049  0.13398  1.0000
  H   H32       1.0  0.28560  0.17283  0.15777  1.0000
  H   H33       1.0  0.25259  0.13976  0.13410  1.0000
  H   H34       1.0  0.26316  0.12151  0.17817  1.0000
  C   C79       1.0  0.05724  0.28412  0.14756  1.0000
  C   C80       1.0  0.20370  0.22336  0.23019  1.0000
  H   H35       1.0  0.45681  0.08784  0.17513  1.0000
  H   H36       1.0  0.23377  0.17339  0.20949  1.0000
  H   H37       1.0  0.22446  0.17811  0.12889  1.0000
  H   H38       1.0  0.19195  0.17268  0.12196  1.0000
  H   H39       1.0  0.16815  0.15246  0.15019  1.0000
  H   H40       1.0  0.17698  0.13767  0.18548  1.0000
  H   H41       1.0  0.20945  0.14260  0.19256  1.0000
  H   H42       1.0  0.26216  0.20209  0.14059  1.0000
  H   H43       1.0  0.25076  0.24014  0.13868  1.0000
  H   H44       1.0  0.21735  0.25445  0.16105  1.0000
  H   H45       1.0  0.19536  0.23016  0.18608  1.0000
  H   H46       1.0  0.20683  0.19164  0.18896  1.0000
  H   H47       1.0  0.32339  0.01479  0.05532  1.0000
  H   H48       1.0  0.24917  0.27580  0.99701  1.0000
  C   C81       1.0  0.39306  0.00057  0.99567  1.0000
  H   H49       1.0  0.02400  0.27837  0.99494  1.0000
  H   H50       1.0  0.46859  0.09977  0.08885  1.0000
  C   C82       1.0  0.42722  0.12524  0.16251  1.0000
  C   C83       1.0  0.41813  0.13926  0.17596  1.0000
  C   C84       1.0  0.42841  0.15498  0.17573  1.0000
  C   C85       1.0  0.35208  0.03840  0.22650  1.0000
  H   H51       1.0  0.17753  0.30504  0.03422  1.0000
  C   C86       1.0  0.19050  0.27246  0.07942  1.0000
  H   H52       1.0  0.34000  0.19706  0.19885  1.0000
  C   C87       1.0  0.36200  0.03041  0.20845  1.0000
  H   H53       1.0  0.46169  0.00180  0.05562  1.0000
  H   H54       1.0  0.32357  0.23294  0.20490  1.0000
  C   C88       1.0  0.16729  0.31306  0.13678  1.0000
  H   H55       1.0  0.41889  0.11328  0.16280  1.0000
  H   H56       1.0  0.40298  0.13811  0.18650  1.0000
  H   H57       1.0  0.42112  0.16592  0.18612  1.0000
  Fe  Fe7       1.0  0.11530  0.31361  0.07691  1.0000
  H   H58       1.0  0.07046  0.26717  0.12256  1.0000
  S   S15       1.0  0.36483  0.02530  0.06256  1.0000
  H   H59       1.0  0.03201  0.25628  0.08338  1.0000
  Fe  Fe8       1.0  0.11102  0.31212  0.03328  1.0000
  H   H60       1.0  0.40725  0.02716  0.13063  1.0000
  C   C89       1.0  0.38028  0.00580  0.17042  1.0000
  C   C90       1.0  0.19776  0.24546  0.22673  1.0000
  C   C91       1.0  0.09847  0.28868  0.14389  1.0000
  H   H61       1.0  0.23321  0.30636  0.13218  1.0000
  Fe  Fe9       1.0  0.38178  0.99254  0.07460  1.0000
  H   H62       1.0  0.41273  0.03260  0.20701  1.0000
  H   H63       1.0  0.17703  0.24526  0.09623  1.0000
  H   H64       1.0  0.07764  0.26129  0.00949  1.0000
  S   S16       1.0  0.31342  0.13169  0.18407  1.0000
  H   H65       1.0  0.27632  0.32055  0.08352  1.0000
  C   C92       1.0  0.24956  0.28416  0.00855  1.0000
  C   C93       1.0  0.48659  0.00774  0.00393  1.0000
  H   H66       1.0  0.45607  0.04368  0.99826  1.0000
  C   C94       1.0  0.26892  0.30015  0.02365  1.0000
  H   H67       1.0  0.15444  0.24973  0.07078  1.0000
  Fe  Fe10      1.0  0.35364  0.15391  0.20012  1.0000
  H   H68       1.0  0.19984  0.27040  0.09097  1.0000
  H   H69       1.0  0.21682  0.28551  0.02272  1.0000
  C   C95       1.0  0.14633  0.31337  0.11215  1.0000
  H   H70       1.0  0.15184  0.00899  0.23148  1.0000
  H   H71       1.0  0.39279  0.06453  0.17779  1.0000
  H   H72       1.0  0.10703  0.27125  0.11932  1.0000
  C   C96       1.0  0.40732  0.07888  0.12497  1.0000
  C   C97       1.0  0.06629  0.27591  0.00620  1.0000
  C   C98       1.0  0.38589  0.04149  0.23074  1.0000
  C   C99       1.0  0.99355  0.30901  0.06709  1.0000
  H   H73       1.0  0.22764  0.09357  0.19468  1.0000
  H   H74       1.0  0.15491  0.27954  0.03987  1.0000
  H   H75       1.0  0.12448  0.02188  0.20968  1.0000
  P   P3        1.0  0.39667  0.01963  0.17697  1.0000
  C   C100      1.0  0.02149  0.27106  0.07853  1.0000
  C   C101      1.0  0.17762  0.25803  0.08245  1.0000
  H   H76       1.0  0.05211  0.27562  0.03883  1.0000
  Fe  Fe11      1.0  0.07325  0.30905  0.07025  1.0000
  S   S17       1.0  0.36170  0.12153  0.19312  1.0000
  H   H77       1.0  0.27728  0.27664  0.23525  1.0000
  H   H78       1.0  0.45669  0.07094  0.11778  1.0000
  H   H79       1.0  0.21380  0.21586  0.21781  1.0000
  H   H80       1.0  0.28265  0.28497  0.99743  1.0000
  H   H81       1.0  0.13682  0.25233  0.20459  1.0000
  C   C102      1.0  0.44191  0.11501  0.07448  1.0000
  S   S18       1.0  0.32250  0.14967  0.22093  1.0000
  C   C103      1.0  0.23111  0.29055  0.08903  1.0000
  H   H82       1.0  0.04125  0.28257  0.14863  1.0000
  H   H83       1.0  0.26030  0.07892  0.99355  1.0000
  C   C104      1.0  0.39782  0.06262  0.16173  1.0000
  H   H84       1.0  0.99938  0.25605  0.07274  1.0000
  C   C105      1.0  0.19064  0.28962  0.06206  1.0000
  C   C106      1.0  0.36828  0.19861  0.23343  1.0000
  H   H85       1.0  0.16219  0.27328  0.20504  1.0000
  C   C107      1.0  0.26419  0.10676  0.00105  1.0000
  C   C108      1.0  0.14829  0.28096  0.19839  1.0000
  C   C109      1.0  0.45978  0.01445  0.09692  1.0000
  Fe  Fe12      1.0  0.34554  0.13711  0.16593  1.0000
  C   C110      1.0  0.36176  0.19073  0.21941  1.0000
  S   S19       1.0  0.32348  0.08869  0.23504  1.0000
  C   C111      1.0  0.45610  0.06702  0.13451  1.0000
  C   C112      1.0  0.40603  0.04175  0.13528  1.0000
  C   C113      1.0  0.21149  0.09323  0.20307  1.0000
  C   C114      1.0  0.44668  0.12692  0.14854  1.0000
  H   H86       1.0  0.45645  0.05103  0.19410  1.0000
  H   H87       1.0  0.17054  0.13597  0.22901  1.0000
  H   H88       1.0  0.45587  0.16880  0.16201  1.0000
  S   S20       1.0  0.38293  0.99946  0.10503  1.0000
  H   H89       1.0  0.16412  0.09013  0.19559  1.0000
  H   H90       1.0  0.27128  0.13150  0.01124  1.0000
  C   C115      1.0  0.45285  0.10959  0.09085  1.0000
  C   C116      1.0  0.28855  0.10088  0.02406  1.0000
  C   C117      1.0  0.29283  0.07906  0.02499  1.0000
  C   C118      1.0  0.28234  0.07124  0.01408  1.0000
  P   P4        1.0  0.31093  0.06103  0.04064  1.0000
  C   C119      1.0  0.32924  0.07516  0.04365  1.0000
  C   C120      1.0  0.29640  0.05024  0.06623  1.0000
  C   C121      1.0  0.27537  0.04837  0.06902  1.0000
  C   C122      1.0  0.26447  0.03959  0.08885  1.0000
  C   C123      1.0  0.27448  0.03261  0.10599  1.0000
  C   C124      1.0  0.29542  0.03434  0.10330  1.0000
  C   C125      1.0  0.30636  0.04298  0.08350  1.0000
  C   C126      1.0  0.32349  0.08660  0.05966  1.0000
  C   C127      1.0  0.33737  0.09776  0.06207  1.0000
  C   C128      1.0  0.35703  0.09777  0.04842  1.0000
  C   C129      1.0  0.36279  0.08666  0.03234  1.0000
  C   C130      1.0  0.34905  0.07529  0.02997  1.0000
  C   C131      1.0  0.32473  0.03987  0.02718  1.0000
  C   C132      1.0  0.33155  0.04431  0.00520  1.0000
  H   H91       1.0  0.39816  0.09576  0.14989  1.0000
  C   C133      1.0  0.05199  0.28403  0.02270  1.0000
  H   H92       1.0  0.46595  0.27917  0.22169  1.0000
  C   C134      1.0  0.32785  0.01876  0.03835  1.0000
  P   P5        1.0  0.20794  0.30787  0.05731  1.0000
  C   C135      1.0  0.39587  0.03358  0.21265  1.0000
  H   H93       1.0  0.04827  0.30217  0.17140  1.0000
  H   H94       1.0  0.29624  0.10737  0.03241  1.0000
  H   H95       1.0  0.28518  0.05444  0.01477  1.0000
  H   H96       1.0  0.26739  0.05352  0.05595  1.0000
  H   H97       1.0  0.24828  0.03810  0.09090  1.0000
  H   H98       1.0  0.26609  0.02578  0.12134  1.0000
  H   H99       1.0  0.30336  0.02898  0.11648  1.0000
  H   H100      1.0  0.32263  0.04397  0.08174  1.0000
  H   H101      1.0  0.30838  0.08672  0.07049  1.0000
  H   H102      1.0  0.33308  0.10602  0.07483  1.0000
  H   H103      1.0  0.36796  0.10610  0.05051  1.0000
  H   H104      1.0  0.37815  0.08650  0.02189  1.0000
  H   H105      1.0  0.35422  0.06638  0.01770  1.0000
  H   H106      1.0  0.32978  0.06046  0.99627  1.0000
  Fe  Fe13      1.0  0.41388  0.00882  0.08786  1.0000
  C   C136      1.0  0.19661  0.09137  0.19282  1.0000
  C   C137      1.0  0.02647  0.29014  0.07828  1.0000
  C   C138      1.0  0.01253  0.30916  0.07244  1.0000
  C   C139      1.0  0.44351  0.11659  0.10966  1.0000
  H   H107      1.0  0.10470  0.26994  0.19019  1.0000
  C   C140      1.0  0.25492  0.12259  0.22965  1.0000
  C   C141      1.0  0.27434  0.11466  0.01206  1.0000
  C   C142      1.0  0.07371  0.27539  0.13284  1.0000
  H   H108      1.0  0.41309  0.13173  0.06401  1.0000
  C   C143      1.0  0.42162  0.12765  0.07664  1.0000
  H   H109      1.0  0.36286  0.03382  0.15268  1.0000
  H   H110      1.0  0.08784  0.01653  0.22527  1.0000
  H   H111      1.0  0.41409  0.05874  0.10332  1.0000
  H   H112      1.0  0.47214  0.14421  0.13818  1.0000
  C   C144      1.0  0.08203  0.29763  0.15862  1.0000
  H   H113      1.0  0.16259  0.17369  0.22991  1.0000
  H   H114      1.0  0.21734  0.09646  0.23166  1.0000
  H   H115      1.0  0.20125  0.09019  0.17647  1.0000
  C   C145      1.0  0.09979  0.01093  0.23479  1.0000
  H   H116      1.0  0.25124  0.31416  0.04970  1.0000
  H   H117      1.0  0.44923  0.10930  0.06015  1.0000
  H   H118      1.0  0.15585  0.31183  0.19015  1.0000
  C   C146      1.0  0.34238  0.23127  0.22705  1.0000
  H   H119      1.0  0.11447  0.29072  0.14191  1.0000
  C   C147      1.0  0.25058  0.30574  0.03833  1.0000
  S   S21       1.0  0.04885  0.28929  0.08786  1.0000
  H   H120      1.0  0.45540  0.00260  0.02080  1.0000
  C   C148      1.0  0.26842  0.28935  0.00878  1.0000
  C   C149      1.0  0.24475  0.14367  0.22884  1.0000
  H   H121      1.0  0.28356  0.30413  0.02384  1.0000
  C   C150      1.0  0.23159  0.30045  0.03833  1.0000
  P   P6        1.0  0.45786  0.10901  0.13079  1.0000
  C   C151      1.0  0.26815  0.08506  0.00210  1.0000
  H   H122      1.0  0.99610  0.18545  0.99060  1.0000
  S   S22       1.0  0.33083  0.25728  0.23011  1.0000
  C   C152      1.0  0.17572  0.09133  0.20360  1.0000
  C   C153      1.0  0.00955  0.27424  0.99467  1.0000
  H   H123      1.0  0.25327  0.11747  0.99169  1.0000
  C   C154      1.0  0.45605  0.05553  0.17752  1.0000
  C   C155      1.0  0.44790  0.15661  0.16211  1.0000
  C   C156      1.0  0.12042  0.01396  0.22602  1.0000
  H   H124      1.0  0.27901  0.21132  0.23235  1.0000
  C   C157      1.0  0.16972  0.09298  0.22468  1.0000
  C   C158      1.0  0.05150  0.30941  0.23291  1.0000
  C   C159      1.0  0.20557  0.09479  0.22416  1.0000
  C   C160      1.0  0.45608  0.07647  0.16672  1.0000
  H   H125      1.0  0.45670  0.02404  0.17504  1.0000
  H   H126      1.0  0.33501  0.04113  0.23147  1.0000
  H   H127      1.0  0.26911  0.24900  0.22259  1.0000
  H   H128      1.0  0.35063  0.99424  0.99742  1.0000
  C   C161      1.0  0.06812  0.30623  0.21579  1.0000
  C   C162      1.0  0.42181  0.00165  0.17898  1.0000
  H   H129      1.0  0.02108  0.31521  0.11632  1.0000
  C   C163      1.0  0.48601  0.04314  0.09076  1.0000
  S   S23       1.0  0.44280  0.99672  0.10229  1.0000
  C   C164      1.0  0.45618  0.04034  0.16680  1.0000
  H   H130      1.0  0.41426  0.99182  0.21299  1.0000
  C   C165      1.0  0.18469  0.09437  0.23522  1.0000
  H   H131      1.0  0.15339  0.09330  0.23271  1.0000
  H   H132      1.0  0.43348  0.26424  0.23257  1.0000
  H   H133      1.0  0.47856  0.14011  0.09828  1.0000
  C   C166      1.0  0.48535  0.10955  0.11906  1.0000
  C   C167      1.0  0.42599  0.99019  0.19874  1.0000
  H   H134      1.0  0.36179  0.12052  0.24077  1.0000
  S   S24       1.0  0.33351  0.29742  0.26178  1.0000
  Fe  Fe14      1.0  0.31247  0.25367  0.30761  1.0000
  S   S25       1.0  0.34483  0.24784  0.28721  1.0000
  S   S26       1.0  0.30234  0.22953  0.33659  1.0000
  Fe  Fe15      1.0  0.34688  0.27980  0.29039  1.0000
  Fe  Fe16      1.0  0.32837  0.26587  0.26077  1.0000
  H   H135      1.0  0.24556  0.08711  0.43236  1.0000
  S   S27       1.0  0.29576  0.26934  0.28104  1.0000
  H   H136      1.0  0.21552  0.24412  0.27348  1.0000
  C   C168      1.0  0.24849  0.08492  0.40020  1.0000
  C   C169      1.0  0.03637  0.01292  0.32501  1.0000
  C   C170      1.0  0.17299  0.27627  0.30448  1.0000
  C   C171      1.0  0.24195  0.24458  0.24770  1.0000
  H   H137      1.0  0.33697  0.08259  0.29991  1.0000
  P   P7        1.0  0.45570  0.30057  0.28914  1.0000
  H   H138      1.0  0.21202  0.11447  0.26400  1.0000
  C   C172      1.0  0.19572  0.04402  0.46911  1.0000
  H   H139      1.0  0.23816  0.24749  0.36371  1.0000
  Fe  Fe17      1.0  0.23427  0.13258  0.31529  1.0000
  S   S28       1.0  0.20744  0.13481  0.30027  1.0000
  S   S29       1.0  0.25919  0.10292  0.31941  1.0000
  Fe  Fe18      1.0  0.21585  0.17412  0.32861  1.0000
  S   S30       1.0  0.18683  0.17978  0.31544  1.0000
  S   S31       1.0  0.21981  0.19435  0.34855  1.0000
  Fe  Fe19      1.0  0.18665  0.14554  0.32878  1.0000
  S   S32       1.0  0.15521  0.13610  0.34369  1.0000
  Fe  Fe20      1.0  0.20952  0.16880  0.28779  1.0000
  C   C173      1.0  0.04913  0.02459  0.30868  1.0000
  S   S33       1.0  0.21332  0.14081  0.34493  1.0000
  S   S34       1.0  0.23874  0.16565  0.29987  1.0000
  Fe  Fe21      1.0  0.07714  0.04113  0.38992  1.0000
  C   C174      1.0  0.25081  0.27630  0.26159  1.0000
  Fe  Fe22      1.0  0.12326  0.03191  0.36779  1.0000
  C   C175      1.0  0.09454  0.00068  0.25585  1.0000
  S   S35       1.0  0.15119  0.04292  0.34444  1.0000
  C   C176      1.0  0.99303  0.09631  0.42953  1.0000
  H   H140      1.0  0.13330  0.01333  0.33495  1.0000
  Fe  Fe23      1.0  0.10996  0.01004  0.41275  1.0000
  C   C177      1.0  0.25921  0.25388  0.23666  1.0000
  S   S36       1.0  0.09306  0.03231  0.35903  1.0000
  S   S37       1.0  0.10715  0.04436  0.39698  1.0000
  C   C178      1.0  0.33677  0.18592  0.31262  1.0000
  C   C179      1.0  0.37303  0.30628  0.30972  1.0000
  C   C180      1.0  0.99262  0.04939  0.38287  1.0000
  C   C181      1.0  0.25591  0.08704  0.41706  1.0000
  S   S38       1.0  0.37571  0.28402  0.29932  1.0000
  C   C182      1.0  0.26378  0.26956  0.24375  1.0000
  C   C183      1.0  0.21636  0.04812  0.39093  1.0000
  P   P8        1.0  0.22130  0.08268  0.40377  1.0000
  C   C184      1.0  0.23555  0.06845  0.29217  1.0000
  C   C185      1.0  0.37760  0.18004  0.28807  1.0000
  H   H141      1.0  0.16728  0.24985  0.27486  1.0000
  C   C186      1.0  0.10019  0.03074  0.45843  1.0000
  C   C187      1.0  0.27668  0.08950  0.41422  1.0000
  H   H142      1.0  0.22011  0.07733  0.33252  1.0000
  H   H143      1.0  0.09654  0.03778  0.44308  1.0000
  C   C188      1.0  0.38713  0.30618  0.32199  1.0000
  C   C189      1.0  0.15395  0.11053  0.34290  1.0000
  C   C190      1.0  0.17189  0.09685  0.33466  1.0000
  C   C191      1.0  0.17068  0.07636  0.33443  1.0000
  C   C192      1.0  0.15174  0.06922  0.34316  1.0000
  C   C193      1.0  0.13371  0.08294  0.35125  1.0000
  C   C194      1.0  0.13476  0.10367  0.35081  1.0000
  H   H144      1.0  0.18670  0.10205  0.32850  1.0000
  H   H145      1.0  0.18456  0.06580  0.32811  1.0000
  H   H146      1.0  0.11894  0.07762  0.35772  1.0000
  H   H147      1.0  0.12071  0.11435  0.35671  1.0000
  C   C195      1.0  0.48464  0.30369  0.40581  1.0000
  C   C196      1.0  0.20533  0.10912  0.39988  1.0000
  C   C197      1.0  0.99154  0.11088  0.41049  1.0000
  C   C198      1.0  0.30484  0.07666  0.27622  1.0000
  C   C199      1.0  0.29087  0.07993  0.29508  1.0000
  C   C200      1.0  0.27744  0.09960  0.29606  1.0000
  C   C201      1.0  0.27807  0.11602  0.27820  1.0000
  H   H148      1.0  0.99352  0.99447  0.40967  1.0000
  C   C202      1.0  0.28525  0.18072  0.25242  1.0000
  H   H149      1.0  0.29027  0.06714  0.30883  1.0000
  H   H150      1.0  0.26743  0.13112  0.27875  1.0000
  C   C203      1.0  0.12877  0.10098  0.45755  1.0000
  H   H151      1.0  0.16498  0.06158  0.46416  1.0000
  H   H152      1.0  0.21464  0.04033  0.34363  1.0000
  H   H153      1.0  0.18233  0.10103  0.38773  1.0000
  C   C204      1.0  0.22015  0.07959  0.36364  1.0000
  H   H154      1.0  0.21713  0.25031  0.33815  1.0000
  H   H155      1.0  0.25832  0.11253  0.24432  1.0000
  H   H156      1.0  0.39922  0.29229  0.32535  1.0000
  C   C205      1.0  0.19364  0.26465  0.30529  1.0000
  H   H157      1.0  0.18175  0.21669  0.33070  1.0000
  C   C206      1.0  0.07720  0.10566  0.45816  1.0000
  C   C207      1.0  0.28049  0.21852  0.33846  1.0000
  C   C208      1.0  0.27280  0.21887  0.32085  1.0000
  C   C209      1.0  0.25478  0.21040  0.32351  1.0000
  C   C210      1.0  0.24412  0.20225  0.34381  1.0000
  C   C211      1.0  0.25210  0.20170  0.36120  1.0000
  C   C212      1.0  0.27041  0.20936  0.35851  1.0000
  H   H158      1.0  0.28060  0.22577  0.30527  1.0000
  H   H159      1.0  0.24877  0.21087  0.30993  1.0000
  H   H160      1.0  0.24398  0.19546  0.37687  1.0000
  H   H161      1.0  0.27633  0.20891  0.37213  1.0000
  S   S39       1.0  0.12059  0.99492  0.44324  1.0000
  C   C213      1.0  0.15567  0.26641  0.31303  1.0000
  H   H162      1.0  0.35660  0.08551  0.26290  1.0000
  H   H163      1.0  0.13987  0.27543  0.31211  1.0000
  H   H164      1.0  0.14542  0.23726  0.32920  1.0000
  H   H165      1.0  0.29262  0.12555  0.24565  1.0000
  C   C214      1.0  0.37204  0.19324  0.30235  1.0000
  H   H166      1.0  0.30619  0.09214  0.39222  1.0000
  C   C215      1.0  0.36283  0.16959  0.28619  1.0000
  C   C216      1.0  0.34231  0.17231  0.29861  1.0000
  P   P9        1.0  0.32257  0.15970  0.29605  1.0000
  C   C217      1.0  0.33449  0.13581  0.28631  1.0000
  C   C218      1.0  0.30591  0.15344  0.32170  1.0000
  C   C219      1.0  0.28390  0.15754  0.32419  1.0000
  C   C220      1.0  0.27115  0.15239  0.34407  1.0000
  C   C221      1.0  0.28026  0.14355  0.36169  1.0000
  C   C222      1.0  0.30221  0.13960  0.35940  1.0000
  C   C223      1.0  0.31502  0.14439  0.33946  1.0000
  C   C224      1.0  0.33159  0.11591  0.29880  1.0000
  C   C225      1.0  0.34528  0.13726  0.26530  1.0000
  C   C226      1.0  0.30742  0.17682  0.27717  1.0000
  C   C227      1.0  0.30792  0.19841  0.27040  1.0000
  C   C228      1.0  0.30210  0.23987  0.42965  1.0000
  C   C229      1.0  0.15527  0.10741  0.47260  1.0000
  C   C230      1.0  0.06949  0.01485  0.29997  1.0000
  C   C231      1.0  0.29577  0.16816  0.26826  1.0000
  H   H167      1.0  0.36750  0.15974  0.27480  1.0000
  H   H168      1.0  0.27654  0.16500  0.31087  1.0000
  H   H169      1.0  0.25413  0.15571  0.34583  1.0000
  H   H170      1.0  0.27024  0.13999  0.37709  1.0000
  H   H171      1.0  0.30928  0.13303  0.37308  1.0000
  H   H172      1.0  0.33201  0.14125  0.33785  1.0000
  H   H173      1.0  0.32249  0.11431  0.31472  1.0000
  H   H174      1.0  0.34679  0.15254  0.25504  1.0000
  C   C232      1.0  0.11180  0.14982  0.38292  1.0000
  C   C233      1.0  0.17377  0.13344  0.39024  1.0000
  H   H175      1.0  0.29531  0.15155  0.27317  1.0000
  P   P10       1.0  0.11868  0.10219  0.43476  1.0000
  C   C234      1.0  0.13557  0.08065  0.42328  1.0000
  C   C235      1.0  0.14693  0.08387  0.40242  1.0000
  C   C236      1.0  0.15950  0.06668  0.39405  1.0000
  C   C237      1.0  0.16045  0.04616  0.40622  1.0000
  C   C238      1.0  0.14948  0.04286  0.42708  1.0000
  C   C239      1.0  0.13734  0.06005  0.43564  1.0000
  C   C240      1.0  0.11258  0.13030  0.39712  1.0000
  C   C241      1.0  0.09194  0.09789  0.44155  1.0000
  C   C242      1.0  0.05065  0.09045  0.45224  1.0000
  C   C243      1.0  0.06492  0.08358  0.43505  1.0000
  C   C244      1.0  0.08549  0.08728  0.42971  1.0000
  C   C245      1.0  0.00616  0.05945  0.38791  1.0000
  H   H176      1.0  0.14625  0.09950  0.39248  1.0000
  H   H177      1.0  0.16825  0.06922  0.37797  1.0000
  H   H178      1.0  0.16946  0.03283  0.39939  1.0000
  H   H179      1.0  0.14997  0.02693  0.43653  1.0000
  H   H180      1.0  0.12908  0.05722  0.45187  1.0000
  H   H181      1.0  0.10976  0.11712  0.39260  1.0000
  H   H182      1.0  0.99990  0.07420  0.39298  1.0000
  C   C246      1.0  0.30241  0.28236  0.42560  1.0000
  H   H183      1.0  0.06015  0.07515  0.42597  1.0000
  H   H184      1.0  0.09635  0.08169  0.41644  1.0000
  C   C247      1.0  0.14092  0.05145  0.28433  1.0000
  C   C248      1.0  0.12470  0.05957  0.29962  1.0000
  C   C249      1.0  0.12378  0.07939  0.30313  1.0000
  C   C250      1.0  0.13917  0.09107  0.29156  1.0000
  C   C251      1.0  0.15561  0.08308  0.27614  1.0000
  C   C252      1.0  0.15630  0.06314  0.27263  1.0000
  P   P11       1.0  0.17683  0.09701  0.26230  1.0000
  C   C253      1.0  0.16296  0.16180  0.24436  1.0000
  C   C254      1.0  0.16905  0.12489  0.26263  1.0000
  C   C255      1.0  0.21423  0.09813  0.27248  1.0000
  C   C256      1.0  0.44902  0.28872  0.27124  1.0000
  C   C257      1.0  0.36198  0.30647  0.41392  1.0000
  C   C258      1.0  0.16063  0.15284  0.28197  1.0000
  C   C259      1.0  0.16566  0.13138  0.28156  1.0000
  C   C260      1.0  0.33989  0.30341  0.39176  1.0000
  C   C261      1.0  0.19945  0.08581  0.27456  1.0000
  C   C262      1.0  0.20299  0.06463  0.28552  1.0000
  C   C263      1.0  0.22102  0.05600  0.29422  1.0000
  H   H185      1.0  0.17012  0.29287  0.29706  1.0000
  H   H186      1.0  0.47575  0.29499  0.24590  1.0000
  H   H187      1.0  0.14185  0.03587  0.28198  1.0000
  H   H188      1.0  0.11310  0.05034  0.30914  1.0000
  H   H189      1.0  0.11150  0.08541  0.31539  1.0000
  H   H190      1.0  0.13822  0.10607  0.29512  1.0000
  H   H191      1.0  0.16909  0.05636  0.26125  1.0000
  S   S40       1.0  0.31577  0.28420  0.31273  1.0000
  C   C264      1.0  0.18477  0.25502  0.24294  1.0000
  H   H192      1.0  0.15830  0.15765  0.29667  1.0000
  H   H193      1.0  0.16730  0.11987  0.29601  1.0000
  C   C265      1.0  0.33979  0.09779  0.29045  1.0000
  H   H194      1.0  0.19183  0.05475  0.28769  1.0000
  H   H195      1.0  0.22358  0.03971  0.30275  1.0000
  H   H196      1.0  0.29301  0.08943  0.36203  1.0000
  H   H197      1.0  0.41088  0.26508  0.26801  1.0000
  H   H198      1.0  0.24939  0.06198  0.29916  1.0000
  C   C266      1.0  0.21091  0.12557  0.40516  1.0000
  S   S41       1.0  0.12795  0.99761  0.38402  1.0000
  C   C267      1.0  0.31272  0.27248  0.40870  1.0000
  C   C268      1.0  0.21742  0.04053  0.46069  1.0000
  C   C269      1.0  0.23205  0.08950  0.28143  1.0000
  H   H199      1.0  0.22231  0.09574  0.35846  1.0000
  C   C270      1.0  0.48374  0.30039  0.28188  1.0000
  C   C271      1.0  0.17752  0.24249  0.26241  1.0000
  H   H200      1.0  0.28398  0.24104  0.46097  1.0000
  C   C272      1.0  0.11123  0.00984  0.46276  1.0000
  H   H201      1.0  0.14281  0.99095  0.26856  1.0000
  C   C273      1.0  0.22903  0.25124  0.26564  1.0000
  H   H202      1.0  0.20304  0.31341  0.31547  1.0000
  H   H203      1.0  0.00701  0.09349  0.43591  1.0000
  H   H204      1.0  0.28228  0.09109  0.42731  1.0000
  C   C274      1.0  0.18403  0.22047  0.26601  1.0000
  C   C275      1.0  0.19825  0.14588  0.40248  1.0000
  H   H205      1.0  0.26461  0.26998  0.35582  1.0000
  H   H206      1.0  0.10535  0.01050  0.31886  1.0000
  H   H207      1.0  0.31507  0.06138  0.27547  1.0000
  C   C276      1.0  0.11934  0.14550  0.42287  1.0000
  S   S42       1.0  0.07865  0.00791  0.40853  1.0000
  H   H208      1.0  0.20303  0.15872  0.40577  1.0000
  H   H209      1.0  0.12136  0.14448  0.43852  1.0000
  H   H210      1.0  0.12045  0.17861  0.41323  1.0000
  C   C277      1.0  0.22529  0.05236  0.44099  1.0000
  C   C278      1.0  0.25736  0.28654  0.32567  1.0000
  H   H211      1.0  0.30232  0.29885  0.42425  1.0000
  C   C279      1.0  0.29195  0.24981  0.44641  1.0000
  H   H212      1.0  0.27893  0.29693  0.39281  1.0000
  C   C280      1.0  0.31247  0.25112  0.41086  1.0000
  C   C281      1.0  0.44918  0.28562  0.31579  1.0000
  C   C282      1.0  0.44098  0.29587  0.33272  1.0000
  C   C283      1.0  0.43543  0.28425  0.35317  1.0000
  C   C284      1.0  0.43810  0.26231  0.35694  1.0000
  H   H213      1.0  0.48614  0.29465  0.39426  1.0000
  H   H214      1.0  0.39500  0.04632  0.23910  1.0000
  C   C285      1.0  0.21890  0.06912  0.34884  1.0000
  C   C286      1.0  0.09390  0.04262  0.47409  1.0000
  H   H215      1.0  0.04567  0.10693  0.47704  1.0000
  H   H216      1.0  0.42881  0.29234  0.36608  1.0000
  C   C287      1.0  0.36400  0.04392  0.23764  1.0000
  H   H217      1.0  0.31682  0.20558  0.27686  1.0000
  C   C288      1.0  0.13061  0.99647  0.25938  1.0000
  C   C289      1.0  0.20111  0.31915  0.29934  1.0000
  H   H218      1.0  0.02848  0.00602  0.37078  1.0000
  H   H219      1.0  0.28426  0.27874  0.45739  1.0000
  H   H220      1.0  0.15954  0.13659  0.38415  1.0000
  C   C290      1.0  0.01069  0.04393  0.48593  1.0000
  C   C291      1.0  0.31383  0.31380  0.34838  1.0000
  C   C292      1.0  0.13582  0.00672  0.23830  1.0000
  C   C293      1.0  0.11963  0.99839  0.31866  1.0000
  H   H221      1.0  0.17848  0.21101  0.28110  1.0000
  H   H222      1.0  0.25372  0.31725  0.37017  1.0000
  C   C294      1.0  0.24557  0.28815  0.31079  1.0000
  C   C295      1.0  0.04416  0.99164  0.33302  1.0000
  H   H223      1.0  0.43365  0.25335  0.37279  1.0000
  H   H224      1.0  0.24769  0.29994  0.29633  1.0000
  C   C296      1.0  0.29211  0.27105  0.44438  1.0000
  H   H225      1.0  0.08529  0.05870  0.47086  1.0000
  C   C297      1.0  0.04053  0.03775  0.44940  1.0000
  C   C298      1.0  0.20327  0.31301  0.26494  1.0000
  C   C299      1.0  0.26211  0.08586  0.38034  1.0000
  H   H226      1.0  0.21236  0.02168  0.38095  1.0000
  C   C300      1.0  0.43078  0.28010  0.27724  1.0000
  C   C301      1.0  0.35108  0.29445  0.40810  1.0000
  C   C302      1.0  0.34410  0.27011  0.36866  1.0000
  C   C303      1.0  0.33621  0.25937  0.35810  1.0000
  C   C304      1.0  0.35004  0.24635  0.34518  1.0000
  C   C305      1.0  0.37184  0.24405  0.34253  1.0000
  C   C306      1.0  0.37986  0.25478  0.35285  1.0000
  C   C307      1.0  0.36607  0.26782  0.36584  1.0000
  C   C308      1.0  0.35832  0.21872  0.23759  1.0000
  C   C309      1.0  0.00074  0.03029  0.37617  1.0000
  H   H227      1.0  0.47574  0.31203  0.33902  1.0000
  H   H228      1.0  0.30194  0.22341  0.43121  1.0000
  H   H229      1.0  0.37063  0.29957  0.42650  1.0000
  C   C310      1.0  0.30576  0.09318  0.25842  1.0000
  H   H230      1.0  0.44831  0.23495  0.34313  1.0000
  C   C311      1.0  0.00509  0.05258  0.46625  1.0000
  Fe  Fe24      1.0  0.09614  0.99912  0.37806  1.0000
  C   C312      1.0  0.29735  0.21094  0.25454  1.0000
  H   H231      1.0  0.22517  0.12298  0.41096  1.0000
  C   C313      1.0  0.30674  0.30352  0.36913  1.0000
  C   C314      1.0  0.46535  0.31681  0.41215  1.0000
  H   H232      1.0  0.35146  0.27813  0.41630  1.0000
  H   H233      1.0  0.31933  0.26125  0.35957  1.0000
  H   H234      1.0  0.34374  0.23857  0.33674  1.0000
  H   H235      1.0  0.38248  0.23461  0.33184  1.0000
  H   H236      1.0  0.39674  0.25358  0.35016  1.0000
  H   H237      1.0  0.37266  0.27645  0.37313  1.0000
  H   H238      1.0  0.03495  0.08699  0.45678  1.0000
  H   H239      1.0  0.21539  0.03960  0.40711  1.0000
  H   H240      1.0  0.01188  0.01562  0.42131  1.0000
  H   H241      1.0  0.35610  0.05071  0.25124  1.0000
  C   C315      1.0  0.02217  0.02116  0.37505  1.0000
  C   C316      1.0  0.02777  0.05043  0.38626  1.0000
  H   H242      1.0  0.24207  0.04894  0.43445  1.0000
  C   C317      1.0  0.17966  0.14980  0.39506  1.0000
  C   C318      1.0  0.15879  0.24493  0.32252  1.0000
  H   H243      1.0  0.39326  0.17816  0.27815  1.0000
  H   H244      1.0  0.25422  0.28890  0.26638  1.0000
  C   C319      1.0  0.11725  0.12774  0.41688  1.0000
  H   H245      1.0  0.43850  0.31285  0.33027  1.0000
  C   C320      1.0  0.35166  0.19606  0.31469  1.0000
  H   H246      1.0  0.32082  0.18894  0.32180  1.0000
  H   H247      1.0  0.38335  0.20163  0.30355  1.0000
  H   H248      1.0  0.26866  0.29660  0.32227  1.0000
  H   H249      1.0  0.05206  0.02386  0.37870  1.0000
  C   C321      1.0  0.16762  0.14032  0.24397  1.0000
  C   C322      1.0  0.28492  0.30497  0.37701  1.0000
  C   C323      1.0  0.14664  0.10941  0.45518  1.0000
  C   C324      1.0  0.17924  0.23326  0.32316  1.0000
  H   H250      1.0  0.17008  0.16562  0.39258  1.0000
  C   C325      1.0  0.07716  0.99325  0.30747  1.0000
  S   S43       1.0  0.04501  0.06264  0.39263  1.0000
  H   H251      1.0  0.34710  0.20656  0.32551  1.0000
  C   C326      1.0  0.20645  0.30525  0.28561  1.0000
  H   H252      1.0  0.15403  0.11738  0.43985  1.0000
  C   C327      1.0  0.21601  0.04829  0.35507  1.0000
  C   C328      1.0  0.21149  0.06812  0.42975  1.0000
  C   C329      1.0  0.28637  0.20199  0.24530  1.0000
  H   H253      1.0  0.05310  0.30049  0.24860  1.0000
  Fe  Fe25      1.0  0.30205  0.29952  0.28401  1.0000
  H   H254      1.0  0.42060  0.28046  0.29256  1.0000
  C   C330      1.0  0.11848  0.16504  0.40866  1.0000
  H   H255      1.0  0.25694  0.08489  0.36679  1.0000
  C   C331      1.0  0.23339  0.26719  0.27280  1.0000
  C   C332      1.0  0.22826  0.26055  0.33415  1.0000
  C   C333      1.0  0.24008  0.25903  0.34902  1.0000
  C   C334      1.0  0.19660  0.24293  0.31416  1.0000
  C   C335      1.0  0.35367  0.11912  0.25709  1.0000
  C   C336      1.0  0.10989  0.99342  0.26834  1.0000
  H   H256      1.0  0.10906  0.15143  0.36736  1.0000
  C   C337      1.0  0.18966  0.07117  0.43813  1.0000
  C   C338      1.0  0.29014  0.09013  0.39447  1.0000
  C   C339      1.0  0.42524  0.27132  0.26333  1.0000
  H   H257      1.0  0.38110  0.18923  0.24097  1.0000
  P   P12       1.0  0.21609  0.27745  0.29492  1.0000
  C   C340      1.0  0.23117  0.27487  0.31464  1.0000
  H   H258      1.0  0.17861  0.08252  0.42940  1.0000
  C   C341      1.0  0.18666  0.11326  0.39239  1.0000
  C   C342      1.0  0.21911  0.06915  0.38479  1.0000
  H   H259      1.0  0.21236  0.23344  0.31431  1.0000
  H   H260      1.0  0.03722  0.99771  0.44471  1.0000
  C   C343      1.0  0.11502  0.16712  0.38858  1.0000
  C   C344      1.0  0.03561  0.03123  0.37986  1.0000
  C   C345      1.0  0.25487  0.27177  0.34465  1.0000
  C   C346      1.0  0.28280  0.08845  0.37752  1.0000
  C   C347      1.0  0.35085  0.09940  0.26961  1.0000
  C   C348      1.0  0.45616  0.27941  0.23724  1.0000
  S   S44       1.0  0.20642  0.18343  0.25435  1.0000
  H   H261      1.0  0.02069  0.02051  0.33197  1.0000
  C   C349      1.0  0.18184  0.05920  0.45775  1.0000
  H   H262      1.0  0.11467  0.18215  0.37742  1.0000
  C   C350      1.0  0.21471  0.03781  0.37612  1.0000
  H   H263      1.0  0.24041  0.15000  0.24292  1.0000
  C   C351      1.0  0.45188  0.26354  0.31974  1.0000
  H   H264      1.0  0.45177  0.31776  0.40575  1.0000
  C   C352      1.0  0.44635  0.25196  0.34023  1.0000
  C   C353      1.0  0.12065  0.08931  0.47733  1.0000
  C   C354      1.0  0.13538  0.00001  0.32794  1.0000
  C   C355      1.0  0.04613  0.02963  0.46899  1.0000
  C   C356      1.0  0.02001  0.04891  0.44802  1.0000
  H   H265      1.0  0.45807  0.25528  0.30696  1.0000
  H   H266      1.0  0.00447  0.11883  0.40219  1.0000
  C   C357      1.0  0.46168  0.28834  0.25108  1.0000
  H   H267      1.0  0.20682  0.30248  0.25423  1.0000
  H   H268      1.0  0.01580  0.05450  0.43274  1.0000
  H   H269      1.0  0.16887  0.11418  0.47075  1.0000
  C   C358      1.0  0.01439  0.99864  0.42701  1.0000
  H   H270      1.0  0.05204  0.03536  0.43522  1.0000
  H   H271      1.0  0.27981  0.31124  0.24902  1.0000
  C   C359      1.0  0.15945  0.16805  0.26336  1.0000
  H   H272      1.0  0.32022  0.24299  0.39821  1.0000
  H   H273      1.0  0.22813  0.02852  0.46940  1.0000
  P   P13       1.0  0.32590  0.28752  0.38461  1.0000
  H   H274      1.0  0.04327  0.04127  0.30304  1.0000
  H   H275      1.0  0.18958  0.03485  0.48436  1.0000
  H   H276      1.0  0.07925  0.02426  0.28758  1.0000
  H   H277      1.0  0.06190  0.02062  0.47010  1.0000
  H   H278      1.0  0.23847  0.23230  0.24228  1.0000
  H   H279      1.0  0.36343  0.22478  0.24835  1.0000
  H   H280      1.0  0.29826  0.22747  0.24897  1.0000
  C   C360      1.0  0.05673  0.10164  0.46368  1.0000
  C   C361      1.0  0.29241  0.11289  0.25945  1.0000
  H   H281      1.0  0.08160  0.11441  0.46715  1.0000
  C   C362      1.0  0.19738  0.21089  0.24999  1.0000
  H   H282      1.0  0.24303  0.09928  0.28030  1.0000
  H   H283      1.0  0.41442  0.32191  0.27782  1.0000
  H   H284      1.0  0.27676  0.17386  0.24513  1.0000
  C   C363      1.0  0.43792  0.27095  0.24335  1.0000
  H   H285      1.0  0.33059  0.31229  0.34188  1.0000
  C   C364      1.0  0.11546  0.00078  0.48286  1.0000
  H   H286      1.0  0.15652  0.18467  0.26358  1.0000
  H   H287      1.0  0.07849  0.99838  0.26239  1.0000
  H   H288      1.0  0.10779  0.08146  0.47943  1.0000
  C   C365      1.0  0.27051  0.31651  0.36421  1.0000
  S   S45       1.0  0.17743  0.28254  0.23928  1.0000
  C   C366      1.0  0.45030  0.32079  0.48379  1.0000
  C   C367      1.0  0.11294  0.07395  0.66843  1.0000
  C   C368      1.0  0.22908  0.07430  0.69745  1.0000
  H   H289      1.0  0.22752  0.13145  0.72402  1.0000
  S   S46       1.0  0.07962  0.99986  0.55280  1.0000
  H   H290      1.0  0.24160  0.29851  0.68082  1.0000
  H   H291      1.0  0.14017  0.31678  0.66150  1.0000
  C   C369      1.0  0.45482  0.24797  0.65383  1.0000
  H   H292      1.0  0.06163  0.03753  0.72061  1.0000
  H   H293      1.0  0.12277  0.07828  0.50992  1.0000
  S   S47       1.0  0.17439  0.21510  0.71249  1.0000
  C   C370      1.0  0.47319  0.27056  0.62414  1.0000
  H   H294      1.0  0.11626  0.13317  0.65246  1.0000
  H   H295      1.0  0.22564  0.07926  0.72851  1.0000
  C   C371      1.0  0.31430  0.21026  0.72835  1.0000
  H   H296      1.0  0.24951  0.20313  0.70733  1.0000
  H   H297      1.0  0.14807  0.09672  0.71183  1.0000
  C   C372      1.0  0.26269  0.10337  0.61530  1.0000
  H   H298      1.0  0.48611  0.29514  0.65954  1.0000
  Fe  Fe26      1.0  0.28569  0.22213  0.65245  1.0000
  S   S48       1.0  0.29702  0.21769  0.68216  1.0000
  S   S49       1.0  0.25865  0.20548  0.65975  1.0000
  Fe  Fe27      1.0  0.31547  0.25150  0.62753  1.0000
  S   S50       1.0  0.32940  0.24891  0.65515  1.0000
  S   S51       1.0  0.32394  0.27361  0.59630  1.0000
  Fe  Fe28      1.0  0.32919  0.21429  0.66185  1.0000
  S   S52       1.0  0.35657  0.19065  0.67371  1.0000
  Fe  Fe29      1.0  0.29598  0.25235  0.67316  1.0000
  S   S53       1.0  0.28541  0.27397  0.69588  1.0000
  S   S54       1.0  0.31827  0.21646  0.63229  1.0000
  S   S55       1.0  0.28174  0.25745  0.64523  1.0000
  Fe  Fe30      1.0  0.17136  0.12919  0.66296  1.0000
  S   S56       1.0  0.17001  0.14592  0.62964  1.0000
  S   S57       1.0  0.14818  0.14085  0.69041  1.0000
  Fe  Fe31      1.0  0.20799  0.09440  0.65017  1.0000
  S   S58       1.0  0.20901  0.10829  0.61579  1.0000
  S   S59       1.0  0.23310  0.06565  0.65882  1.0000
  Fe  Fe32      1.0  0.20545  0.13920  0.62454  1.0000
  S   S60       1.0  0.22723  0.16120  0.60487  1.0000
  Fe  Fe33      1.0  0.17367  0.11334  0.62410  1.0000
  S   S61       1.0  0.15431  0.10944  0.60269  1.0000
  S   S62       1.0  0.20654  0.12495  0.65847  1.0000
  S   S63       1.0  0.17275  0.09697  0.65798  1.0000
  C   C373      1.0  0.23580  0.07170  0.71621  1.0000
  C   C374      1.0  0.26908  0.05019  0.70287  1.0000
  S   S64       1.0  0.40969  0.30395  0.58049  1.0000
  Fe  Fe34      1.0  0.10789  0.01875  0.58645  1.0000
  H   H299      1.0  0.26180  0.12048  0.58351  1.0000
  S   S65       1.0  0.12573  0.02416  0.60855  1.0000
  Fe  Fe35      1.0  0.09412  0.02832  0.54466  1.0000
  S   S66       1.0  0.09244  0.04929  0.51278  1.0000
  S   S67       1.0  0.07877  0.03895  0.57502  1.0000
  H   H300      1.0  0.25726  0.10221  0.73120  1.0000
  C   C375      1.0  0.15164  0.18377  0.72095  1.0000
  H   H301      1.0  0.11339  0.00571  0.51365  1.0000
  C   C376      1.0  0.14710  0.08539  0.60418  1.0000
  C   C377      1.0  0.15304  0.06703  0.61889  1.0000
  C   C378      1.0  0.14640  0.04840  0.62000  1.0000
  C   C379      1.0  0.13395  0.04789  0.60630  1.0000
  C   C380      1.0  0.12814  0.06620  0.59151  1.0000
  C   C381      1.0  0.13465  0.08487  0.59051  1.0000
  H   H302      1.0  0.16259  0.06729  0.62949  1.0000
  H   H303      1.0  0.15094  0.03431  0.63150  1.0000
  H   H304      1.0  0.11850  0.06602  0.58096  1.0000
  H   H305      1.0  0.12996  0.09902  0.57913  1.0000
  C   C382      1.0  0.25078  0.19342  0.64371  1.0000
  C   C383      1.0  0.26210  0.19171  0.62343  1.0000
  C   C384      1.0  0.25479  0.18188  0.61143  1.0000
  C   C385      1.0  0.23635  0.17358  0.61980  1.0000
  C   C386      1.0  0.22517  0.17536  0.64004  1.0000
  C   C387      1.0  0.23235  0.18525  0.65191  1.0000
  H   H306      1.0  0.27637  0.19797  0.61704  1.0000
  H   H307      1.0  0.26345  0.18062  0.59573  1.0000
  H   H308      1.0  0.21079  0.16938  0.64645  1.0000
  H   H309      1.0  0.22351  0.18667  0.66754  1.0000
  C   C388      1.0  0.08950  0.05035  0.71491  1.0000
  C   C389      1.0  0.26205  0.05217  0.68437  1.0000
  C   C390      1.0  0.24203  0.06421  0.68164  1.0000
  S   S68       1.0  0.09410  0.98933  0.59804  1.0000
  H   H310      1.0  0.42803  0.30335  0.50605  1.0000
  H   H311      1.0  0.27207  0.04426  0.67219  1.0000
  C   C391      1.0  0.35535  0.12027  0.69894  1.0000
  C   C392      1.0  0.37423  0.12722  0.68925  1.0000
  C   C393      1.0  0.37423  0.14881  0.68188  1.0000
  C   C394      1.0  0.35528  0.16374  0.68359  1.0000
  C   C395      1.0  0.33621  0.15690  0.69323  1.0000
  C   C396      1.0  0.33628  0.13511  0.70093  1.0000
  H   H312      1.0  0.38899  0.11584  0.68750  1.0000
  H   H313      1.0  0.38899  0.15395  0.67448  1.0000
  H   H314      1.0  0.32148  0.16835  0.69465  1.0000
  H   H315      1.0  0.32168  0.12968  0.70793  1.0000
  C   C397      1.0  0.16612  0.19502  0.70637  1.0000
  C   C398      1.0  0.17385  0.19057  0.68629  1.0000
  C   C399      1.0  0.16800  0.17426  0.68110  1.0000
  C   C400      1.0  0.15383  0.16280  0.69576  1.0000
  H   H316      1.0  0.48353  0.27239  0.60876  1.0000
  H   H317      1.0  0.19996  0.26291  0.72521  1.0000
  H   H318      1.0  0.18476  0.19947  0.67482  1.0000
  H   H319      1.0  0.17453  0.17051  0.66578  1.0000
  H   H320      1.0  0.18515  0.11231  0.70978  1.0000
  C   C401      1.0  0.18660  0.13406  0.72742  1.0000
  H   H321      1.0  0.45089  0.23264  0.66139  1.0000
  S   S69       1.0  0.35655  0.09283  0.70762  1.0000
  C   C402      1.0  0.25556  0.25030  0.71863  1.0000
  C   C403      1.0  0.26653  0.26564  0.71812  1.0000
  C   C404      1.0  0.13416  0.09601  0.72439  1.0000
  H   H322      1.0  0.31803  0.20056  0.71687  1.0000
  C   C405      1.0  0.23789  0.31254  0.68718  1.0000
  H   H323      1.0  0.25834  0.24360  0.70501  1.0000
  C   C406      1.0  0.10950  0.01274  0.49836  1.0000
  H   H324      1.0  0.16030  0.05680  0.72973  1.0000
  H   H325      1.0  0.19853  0.04258  0.72010  1.0000
  C   C407      1.0  0.18827  0.04375  0.70963  1.0000
  C   C408      1.0  0.02121  0.02566  0.56220  1.0000
  C   C409      1.0  0.14519  0.16796  0.71549  1.0000
  C   C410      1.0  0.10838  0.08619  0.64920  1.0000
  C   C411      1.0  0.11084  0.04609  0.71631  1.0000
  C   C412      1.0  0.26844  0.11832  0.59716  1.0000
  H   H326      1.0  0.25015  0.30085  0.63473  1.0000
  H   H327      1.0  0.13103  0.24135  0.69993  1.0000
  H   H328      1.0  0.17245  0.99234  0.48864  1.0000
  C   C413      1.0  0.10945  0.10754  0.64351  1.0000
  C   C414      1.0  0.38729  0.29365  0.58303  1.0000
  C   C415      1.0  0.12038  0.02554  0.72526  1.0000
  C   C416      1.0  0.35386  0.29666  0.57369  1.0000
  C   C417      1.0  0.34901  0.28011  0.59067  1.0000
  C   C418      1.0  0.36394  0.26950  0.60311  1.0000
  C   C419      1.0  0.38320  0.27609  0.59911  1.0000
  C   C420      1.0  0.47814  0.30035  0.51080  1.0000
  C   C421      1.0  0.16451  0.31273  0.67860  1.0000
  H   H329      1.0  0.36061  0.25635  0.61590  1.0000
  H   H330      1.0  0.39447  0.26816  0.60908  1.0000
  H   H331      1.0  0.01221  0.99991  0.51524  1.0000
  H   H332      1.0  0.32429  0.29365  0.66814  1.0000
  C   C422      1.0  0.18237  0.30347  0.72799  1.0000
  C   C423      1.0  0.20573  0.28168  0.69339  1.0000
  P   P14       1.0  0.46931  0.31384  0.62054  1.0000
  H   H333      1.0  0.45257  0.28546  0.53028  1.0000
  C   C424      1.0  0.18402  0.03962  0.67652  1.0000
  C   C425      1.0  0.09498  0.21370  0.73336  1.0000
  C   C426      1.0  0.35157  0.30122  0.64464  1.0000
  C   C427      1.0  0.15364  0.05504  0.70046  1.0000
  H   H334      1.0  0.32592  0.23615  0.70557  1.0000
  H   H335      1.0  0.47498  0.23751  0.62642  1.0000
  P   P15       1.0  0.12583  0.06681  0.70644  1.0000
  C   C428      1.0  0.11814  0.08312  0.68240  1.0000
  C   C429      1.0  0.28814  0.15486  0.73242  1.0000
  H   H336      1.0  0.11298  0.05723  0.67200  1.0000
  C   C430      1.0  0.20509  0.26285  0.70864  1.0000
  C   C431      1.0  0.01492  0.01556  0.58314  1.0000
  C   C432      1.0  0.44610  0.26505  0.66365  1.0000
  C   C433      1.0  0.45082  0.28492  0.65371  1.0000
  C   C434      1.0  0.11471  0.11678  0.65720  1.0000
  S   S70       1.0  0.03289  0.00653  0.60020  1.0000
  H   H337      1.0  0.44372  0.29809  0.66138  1.0000
  C   C435      1.0  0.46840  0.25071  0.63412  1.0000
  H   H338      1.0  0.03715  0.02835  0.55641  1.0000
  H   H339      1.0  0.25221  0.09338  0.61560  1.0000
  H   H340      1.0  0.29956  0.31788  0.54508  1.0000
  C   C436      1.0  0.27806  0.15304  0.71742  1.0000
  Fe  Fe36      1.0  0.06644  0.00894  0.58394  1.0000
  C   C437      1.0  0.48461  0.31486  0.49239  1.0000
  C   C438      1.0  0.31544  0.31585  0.64066  1.0000
  C   C439      1.0  0.12116  0.23487  0.71453  1.0000
  C   C440      1.0  0.16245  0.04831  0.68146  1.0000
  H   H341      1.0  0.03572  0.02665  0.50243  1.0000
  C   C441      1.0  0.45774  0.29631  0.51580  1.0000
  H   H342      1.0  0.13680  0.02185  0.72651  1.0000
  H   H343      1.0  0.15290  0.05022  0.67011  1.0000
  H   H344      1.0  0.21368  0.08364  0.69541  1.0000
  C   C442      1.0  0.46430  0.28785  0.63381  1.0000
  C   C443      1.0  0.27060  0.19159  0.72912  1.0000
  C   C444      1.0  0.26016  0.18961  0.71451  1.0000
  H   H345      1.0  0.21297  0.29508  0.65998  1.0000
  C   C445      1.0  0.11894  0.10468  0.67660  1.0000
  C   C446      1.0  0.00673  0.03272  0.54879  1.0000
  C   C447      1.0  0.21815  0.26132  0.66607  1.0000
  C   C448      1.0  0.21700  0.24273  0.68138  1.0000
  C   C449      1.0  0.21094  0.24349  0.70259  1.0000
  C   C450      1.0  0.16665  0.05223  0.71477  1.0000
  H   H346      1.0  0.22320  0.26048  0.64963  1.0000
  H   H347      1.0  0.22047  0.22768  0.67688  1.0000
  H   H348      1.0  0.21032  0.22895  0.71433  1.0000
  C   C451      1.0  0.12935  0.08723  0.49468  1.0000
  C   C452      1.0  0.21250  0.28078  0.67203  1.0000
  C   C453      1.0  0.07799  0.03422  0.72207  1.0000
  C   C454      1.0  0.25579  0.05969  0.71899  1.0000
  P   P16       1.0  0.19602  0.30692  0.70080  1.0000
  H   H349      1.0  0.34280  0.30431  0.56357  1.0000
  H   H350      1.0  0.28140  0.13827  0.71248  1.0000
  C   C455      1.0  0.18525  0.11440  0.72516  1.0000
  C   C456      1.0  0.12045  0.08277  0.72579  1.0000
  C   C457      1.0  0.44388  0.30640  0.50219  1.0000
  H   H351      1.0  0.15318  0.09482  0.50593  1.0000
  H   H352      1.0  0.01164  0.04079  0.53275  1.0000
  H   H353      1.0  0.25640  0.16908  0.69670  1.0000
  H   H354      1.0  0.34653  0.02962  0.67850  1.0000
  C   C458      1.0  0.27338  0.32037  0.62178  1.0000
  C   C459      1.0  0.10685  0.22303  0.71441  1.0000
  C   C460      1.0  0.28202  0.13110  0.59697  1.0000
  C   C461      1.0  0.29005  0.12875  0.61484  1.0000
  C   C462      1.0  0.28421  0.11377  0.63315  1.0000
  C   C463      1.0  0.27000  0.10160  0.63339  1.0000
  P   P17       1.0  0.29400  0.11050  0.65658  1.0000
  C   C464      1.0  0.31047  0.08467  0.66338  1.0000
  C   C465      1.0  0.30950  0.13019  0.65228  1.0000
  C   C466      1.0  0.33105  0.12628  0.64274  1.0000
  C   C467      1.0  0.34312  0.14151  0.63931  1.0000
  C   C468      1.0  0.33369  0.16082  0.64507  1.0000
  C   C469      1.0  0.31221  0.16487  0.65437  1.0000
  C   C470      1.0  0.30012  0.14973  0.65783  1.0000
  C   C471      1.0  0.32486  0.08172  0.67631  1.0000
  C   C472      1.0  0.33800  0.06202  0.68144  1.0000
  C   C473      1.0  0.33657  0.04493  0.67417  1.0000
  C   C474      1.0  0.32223  0.04764  0.66140  1.0000
  C   C475      1.0  0.30937  0.06744  0.65586  1.0000
  C   C476      1.0  0.27169  0.11507  0.67776  1.0000
  C   C477      1.0  0.25372  0.13054  0.67370  1.0000
  C   C478      1.0  0.23765  0.13632  0.69032  1.0000
  C   C479      1.0  0.23934  0.12651  0.71104  1.0000
  C   C480      1.0  0.25654  0.11033  0.71513  1.0000
  C   C481      1.0  0.27276  0.10464  0.69858  1.0000
  H   H355      1.0  0.28584  0.14321  0.58315  1.0000
  H   H356      1.0  0.30030  0.13904  0.61438  1.0000
  H   H357      1.0  0.26459  0.09068  0.64762  1.0000
  H   H358      1.0  0.33856  0.11144  0.63806  1.0000
  H   H359      1.0  0.35983  0.13831  0.63242  1.0000
  H   H360      1.0  0.34313  0.17248  0.64273  1.0000
  H   H361      1.0  0.30483  0.17962  0.65928  1.0000
  H   H362      1.0  0.28352  0.15354  0.66480  1.0000
  H   H363      1.0  0.32599  0.09469  0.68243  1.0000
  H   H364      1.0  0.34923  0.06003  0.69121  1.0000
  C   C482      1.0  0.37276  0.30369  0.57007  1.0000
  H   H365      1.0  0.32101  0.03440  0.65581  1.0000
  H   H366      1.0  0.29859  0.06902  0.64586  1.0000
  H   H367      1.0  0.25249  0.13870  0.65773  1.0000
  H   H368      1.0  0.22410  0.14866  0.68709  1.0000
  H   H369      1.0  0.43542  0.26294  0.67885  1.0000
  C   C483      1.0  0.25303  0.31675  0.63112  1.0000
  H   H370      1.0  0.28611  0.09226  0.70217  1.0000
  H   H371      1.0  0.19091  0.03525  0.66147  1.0000
  H   H372      1.0  0.10557  0.22046  0.69963  1.0000
  H   H373      1.0  0.13417  0.15918  0.72678  1.0000
  H   H374      1.0  0.28442  0.04068  0.70499  1.0000
  C   C484      1.0  0.26404  0.17038  0.70850  1.0000
  H   H375      1.0  0.18818  0.14690  0.71378  1.0000
  H   H376      1.0  0.12348  0.11219  0.68657  1.0000
  S   S71       1.0  0.12435  0.01079  0.55507  1.0000
  C   C485      1.0  0.32992  0.30277  0.65267  1.0000
  C   C486      1.0  0.03128  0.03286  0.48724  1.0000
  H   H377      1.0  0.99913  0.04563  0.50027  1.0000
  H   H378      1.0  0.10702  0.11672  0.62812  1.0000
  C   C487      1.0  0.19692  0.03739  0.69058  1.0000
  H   H379      1.0  0.16462  0.29602  0.68480  1.0000
  H   H380      1.0  0.10499  0.07891  0.63821  1.0000
  H   H381      1.0  0.21376  0.03125  0.68642  1.0000
  C   C488      1.0  0.09893  0.03379  0.49391  1.0000
  H   H382      1.0  0.36281  0.29079  0.65376  1.0000
  H   H383      1.0  0.08183  0.06610  0.70806  1.0000
  H   H384      1.0  0.37596  0.31700  0.55738  1.0000
  C   C489      1.0  0.31879  0.23049  0.72186  1.0000
  H   H385      1.0  0.28606  0.30708  0.61847  1.0000
  C   C490      1.0  0.14653  0.09644  0.49239  1.0000
  C   C491      1.0  0.35870  0.31291  0.62468  1.0000
  H   H386      1.0  0.26991  0.31709  0.67684  1.0000
  H   H387      1.0  0.42562  0.31070  0.62327  1.0000
  H   H388      1.0  0.37550  0.31167  0.61842  1.0000
  H   H389      1.0  0.37095  0.14250  0.72845  1.0000
  H   H390      1.0  0.34093  0.17231  0.72951  1.0000
  C   C492      1.0  0.10880  0.00945  0.73244  1.0000
  H   H391      1.0  0.29884  0.31703  0.64754  1.0000
  C   C493      1.0  0.08764  0.01377  0.73079  1.0000
  C   C494      1.0  0.47900  0.31449  0.59281  1.0000
  C   C495      1.0  0.48804  0.32046  0.63168  1.0000
  H   H392      1.0  0.15083  0.31066  0.72163  1.0000
  H   H393      1.0  0.46071  0.31933  0.54873  1.0000
  H   H394      1.0  0.99548  0.08492  0.49029  1.0000
  H   H395      1.0  0.48876  0.29228  0.52139  1.0000
  C   C496      1.0  0.99403  0.01266  0.59060  1.0000
  H   H396      1.0  0.08457  0.20400  0.73286  1.0000
  H   H397      1.0  0.44839  0.31555  0.58686  1.0000
  C   C497      1.0  0.46492  0.31561  0.58016  1.0000
  C   C498      1.0  0.47195  0.31731  0.55850  1.0000
  C   C499      1.0  0.21744  0.31989  0.69794  1.0000
  C   C500      1.0  0.12375  0.23727  0.73360  1.0000
  C   C501      1.0  0.16025  0.30626  0.73352  1.0000
  H   H398      1.0  0.31591  0.25976  0.73067  1.0000
  H   H399      1.0  0.13551  0.24571  0.73364  1.0000
  H   H400      1.0  0.26783  0.20661  0.73336  1.0000
  Fe  Fe37      1.0  0.33168  0.07936  0.73373  1.0000
  H   H401      1.0  0.29028  0.32058  0.58192  1.0000
  H   H402      1.0  0.27100  0.28632  0.73538  1.0000
  C   C502      1.0  0.26258  0.27444  0.73571  1.0000
  H   H403      1.0  0.14186  0.10545  0.84815  1.0000
  C   C503      1.0  0.13744  0.14846  0.79750  1.0000
  H   H404      1.0  0.04463  0.25637  0.83543  1.0000
  S   S72       1.0  0.19353  0.14798  0.80344  1.0000
  H   H405      1.0  0.30682  0.13542  0.78413  1.0000
  Fe  Fe38      1.0  0.43333  0.02700  0.89172  1.0000
  S   S73       1.0  0.39863  0.03650  0.90467  1.0000
  S   S74       1.0  0.45568  0.04877  0.88651  1.0000
  S   S75       1.0  0.10821  0.29379  0.92300  1.0000
  Fe  Fe39      1.0  0.39435  0.02148  0.88038  1.0000
  S   S76       1.0  0.36752  0.03837  0.86388  1.0000
  C   C504      1.0  0.10217  0.31216  0.95722  1.0000
  S   S77       1.0  0.42886  0.01480  0.86557  1.0000
  Fe  Fe40      1.0  0.17599  0.21215  0.74616  1.0000
  Fe  Fe41      1.0  0.30277  0.08309  0.77600  1.0000
  S   S78       1.0  0.28865  0.10110  0.80167  1.0000
  Fe  Fe42      1.0  0.33058  0.04060  0.76966  1.0000
  S   S79       1.0  0.29725  0.09337  0.74315  1.0000
  S   S80       1.0  0.35156  0.01254  0.78645  1.0000
  C   C505      1.0  0.17210  0.02409  0.77877  1.0000
  H   H406      1.0  0.18768  0.15239  0.74879  1.0000
  C   C506      1.0  0.35638  0.12248  0.75617  1.0000
  S   S81       1.0  0.33768  0.07219  0.76626  1.0000
  S   S82       1.0  0.29605  0.05085  0.78193  1.0000
  H   H407      1.0  0.43468  0.08887  0.94600  1.0000
  P   P18       1.0  0.08356  0.20275  0.77725  1.0000
  H   H408      1.0  0.14390  0.32081  0.92011  1.0000
  C   C507      1.0  0.09455  0.25544  0.83390  1.0000
  C   C508      1.0  0.26271  0.11552  0.80148  1.0000
  C   C509      1.0  0.24818  0.11523  0.82060  1.0000
  H   H409      1.0  0.25312  0.10655  0.83511  1.0000
  C   C510      1.0  0.10964  0.25277  0.81549  1.0000
  H   H410      1.0  0.40747  0.05533  0.96993  1.0000
  C   C511      1.0  0.33999  0.15834  0.74185  1.0000
  H   H411      1.0  0.30537  0.16697  0.79993  1.0000
  S   S83       1.0  0.11919  0.22734  0.81023  1.0000
  H   H412      1.0  0.40165  0.03395  0.94796  1.0000
  Fe  Fe43      1.0  0.18676  0.18168  0.78578  1.0000
  H   H413      1.0  0.23248  0.23172  0.73725  1.0000
  P   P19       1.0  0.29796  0.17707  0.75705  1.0000
  S   S84       1.0  0.20668  0.19843  0.75724  1.0000
  H   H414      1.0  0.24539  0.27411  0.76755  1.0000
  C   C512      1.0  0.36291  0.02947  0.84347  1.0000
  C   C513      1.0  0.37682  0.01279  0.83513  1.0000
  C   C514      1.0  0.37300  0.00709  0.81799  1.0000
  C   C515      1.0  0.35544  0.01823  0.80907  1.0000
  C   C516      1.0  0.34139  0.03456  0.81777  1.0000
  C   C517      1.0  0.34502  0.04000  0.83501  1.0000
  C   C518      1.0  0.47801  0.01083  0.82066  1.0000
  C   C519      1.0  0.12776  0.26269  0.87204  1.0000
  H   H415      1.0  0.32775  0.04316  0.81113  1.0000
  H   H416      1.0  0.33413  0.05280  0.84148  1.0000
  C   C520      1.0  0.18663  0.13707  0.74710  1.0000
  H   H417      1.0  0.29876  0.14117  0.73930  1.0000
  H   H418      1.0  0.21572  0.12442  0.83576  1.0000
  C   C521      1.0  0.09789  0.09571  0.75628  1.0000
  H   H419      1.0  0.22808  0.17792  0.80545  1.0000
  C   C522      1.0  0.28036  0.17459  0.78263  1.0000
  C   C523      1.0  0.13096  0.15024  0.77891  1.0000
  H   H420      1.0  0.12825  0.26831  0.78736  1.0000
  C   C524      1.0  0.15129  0.28617  0.85082  1.0000
  H   H421      1.0  0.15927  0.01562  0.78403  1.0000
  S   S85       1.0  0.26229  0.05448  0.74384  1.0000
  H   H422      1.0  0.39062  0.00454  0.84166  1.0000
  S   S86       1.0  0.15703  0.19312  0.77328  1.0000
  H   H423      1.0  0.15132  0.13692  0.80125  1.0000
  C   C525      1.0  0.22516  0.30334  0.79695  1.0000
  H   H424      1.0  0.14902  0.27121  0.97768  1.0000
  C   C526      1.0  0.19290  0.29706  0.89780  1.0000
  C   C527      1.0  0.11375  0.29642  0.94618  1.0000
  C   C528      1.0  0.09419  0.29301  0.82501  1.0000
  Fe  Fe44      1.0  0.15112  0.22021  0.78897  1.0000
  C   C529      1.0  0.11678  0.27030  0.80166  1.0000
  H   H425      1.0  0.12683  0.23721  0.85869  1.0000
  C   C530      1.0  0.38100  0.06689  0.78893  1.0000
  C   C531      1.0  0.41030  0.08487  0.77840  1.0000
  C   C532      1.0  0.40001  0.09773  0.79282  1.0000
  C   C533      1.0  0.37989  0.09557  0.80505  1.0000
  C   C534      1.0  0.37050  0.07997  0.80308  1.0000
  P   P20       1.0  0.36744  0.11152  0.82440  1.0000
  C   C535      1.0  0.34326  0.10358  0.84011  1.0000
  C   C536      1.0  0.38644  0.10652  0.84080  1.0000
  C   C537      1.0  0.39101  0.12303  0.84688  1.0000
  C   C538      1.0  0.40608  0.11869  0.85933  1.0000
  C   C539      1.0  0.41666  0.09791  0.86571  1.0000
  C   C540      1.0  0.41222  0.08148  0.85963  1.0000
  C   C541      1.0  0.39727  0.08572  0.84718  1.0000
  C   C542      1.0  0.32439  0.11150  0.83261  1.0000
  C   C543      1.0  0.30557  0.10561  0.84465  1.0000
  C   C544      1.0  0.30550  0.09138  0.86402  1.0000
  C   C545      1.0  0.32419  0.08341  0.87159  1.0000
  C   C546      1.0  0.34293  0.08964  0.85982  1.0000
  C   C547      1.0  0.36029  0.13924  0.81236  1.0000
  C   C548      1.0  0.36676  0.14683  0.79066  1.0000
  C   C549      1.0  0.35976  0.16799  0.78145  1.0000
  C   C550      1.0  0.34627  0.18176  0.79377  1.0000
  C   C551      1.0  0.33986  0.17441  0.81540  1.0000
  C   C552      1.0  0.34679  0.15323  0.82466  1.0000
  H   H426      1.0  0.40776  0.10932  0.79451  1.0000
  H   H427      1.0  0.35517  0.07774  0.81251  1.0000
  H   H428      1.0  0.38309  0.13920  0.84205  1.0000
  H   H429      1.0  0.40958  0.13140  0.86407  1.0000
  H   H430      1.0  0.42829  0.09442  0.87542  1.0000
  H   H431      1.0  0.42034  0.06537  0.86468  1.0000
  H   H432      1.0  0.39393  0.07266  0.84282  1.0000
  H   H433      1.0  0.32416  0.12208  0.81739  1.0000
  H   H434      1.0  0.29111  0.11167  0.83869  1.0000
  H   H435      1.0  0.29105  0.08629  0.87297  1.0000
  H   H436      1.0  0.32437  0.07195  0.88636  1.0000
  H   H437      1.0  0.35712  0.08304  0.86607  1.0000
  H   H438      1.0  0.37680  0.13647  0.78065  1.0000
  H   H439      1.0  0.36454  0.17364  0.76463  1.0000
  H   H440      1.0  0.34067  0.19809  0.78650  1.0000
  H   H441      1.0  0.32930  0.18506  0.82496  1.0000
  H   H442      1.0  0.34137  0.14764  0.84138  1.0000
  C   C553      1.0  0.23506  0.13741  0.78312  1.0000
  H   H443      1.0  0.13988  0.26989  0.94501  1.0000
  H   H444      1.0  0.16763  0.31914  0.98387  1.0000
  H   H445      1.0  0.06273  0.19459  0.82147  1.0000
  C   C554      1.0  0.25841  0.17797  0.78443  1.0000
  S   S87       1.0  0.06730  0.29522  0.89208  1.0000
  P   P21       1.0  0.18444  0.07883  0.78508  1.0000
  C   C555      1.0  0.16017  0.08695  0.80292  1.0000
  C   C556      1.0  0.18643  0.05421  0.77788  1.0000
  C   C557      1.0  0.16982  0.04316  0.78471  1.0000
  S   S88       1.0  0.00497  0.30721  0.91797  1.0000
  H   H446      1.0  0.19291  0.00095  0.76184  1.0000
  C   C558      1.0  0.20781  0.02641  0.75997  1.0000
  C   C559      1.0  0.20548  0.04553  0.76569  1.0000
  C   C560      1.0  0.14070  0.08932  0.79743  1.0000
  C   C561      1.0  0.12177  0.09661  0.81056  1.0000
  C   C562      1.0  0.12216  0.10209  0.82903  1.0000
  C   C563      1.0  0.14149  0.10050  0.83424  1.0000
  C   C564      1.0  0.16043  0.09321  0.82113  1.0000
  C   C565      1.0  0.20765  0.07494  0.79566  1.0000
  C   C566      1.0  0.20873  0.06251  0.81589  1.0000
  C   C567      1.0  0.22691  0.05907  0.82393  1.0000
  C   C568      1.0  0.24432  0.06747  0.81157  1.0000
  C   C569      1.0  0.24363  0.07903  0.79112  1.0000
  C   C570      1.0  0.22542  0.08284  0.78317  1.0000
  H   H447      1.0  0.23045  0.26989  0.81030  1.0000
  H   H448      1.0  0.36943  0.10904  0.75521  1.0000
  C   C571      1.0  0.22041  0.13644  0.80229  1.0000
  H   H449      1.0  0.07553  0.27740  0.85310  1.0000
  H   H450      1.0  0.04216  0.15007  0.78034  1.0000
  H   H451      1.0  0.15529  0.04887  0.79487  1.0000
  C   C572      1.0  0.19107  0.01576  0.76635  1.0000
  H   H452      1.0  0.21117  0.29452  0.74003  1.0000
  H   H453      1.0  0.07661  0.28009  0.97257  1.0000
  C   C573      1.0  0.13656  0.28025  0.86922  1.0000
  H   H454      1.0  0.14024  0.08573  0.78284  1.0000
  C   C574      1.0  0.13364  0.25084  0.85654  1.0000
  H   H455      1.0  0.22271  0.01997  0.75056  1.0000
  C   C575      1.0  0.29882  0.21643  0.76341  1.0000
  H   H456      1.0  0.17517  0.09328  0.82492  1.0000
  H   H457      1.0  0.19554  0.05550  0.82543  1.0000
  H   H458      1.0  0.22763  0.04978  0.83965  1.0000
  H   H459      1.0  0.25847  0.06492  0.81768  1.0000
  H   H460      1.0  0.25732  0.08499  0.78128  1.0000
  H   H461      1.0  0.22559  0.09154  0.76712  1.0000
  C   C576      1.0  0.22701  0.12527  0.82096  1.0000
  C   C577      1.0  0.05255  0.22450  0.83063  1.0000
  H   H462      1.0  0.04576  0.21781  0.84671  1.0000
  C   C578      1.0  0.14777  0.25697  0.83790  1.0000
  C   C579      1.0  0.45337  0.05924  0.93922  1.0000
  H   H463      1.0  0.45380  0.01402  0.80326  1.0000
  H   H464      1.0  0.43568  0.04960  0.80871  1.0000
  H   H465      1.0  0.15390  0.29409  0.78685  1.0000
  H   H466      1.0  0.16684  0.27938  0.82011  1.0000
  C   C580      1.0  0.33838  0.12081  0.77206  1.0000
  C   C581      1.0  0.45564  0.04774  0.98171  1.0000
  C   C582      1.0  0.12389  0.29762  0.98379  1.0000
  C   C583      1.0  0.40077  0.06945  0.77647  1.0000
  C   C584      1.0  0.25329  0.16983  0.82240  1.0000
  C   C585      1.0  0.27508  0.16680  0.82078  1.0000
  H   H467      1.0  0.37381  0.05467  0.78765  1.0000
  H   H468      1.0  0.33737  0.10624  0.78367  1.0000
  C   C586      1.0  0.22025  0.28518  0.81146  1.0000
  C   C587      1.0  0.32103  0.13760  0.77251  1.0000
  H   H469      1.0  0.23000  0.14593  0.76861  1.0000
  H   H470      1.0  0.24281  0.16758  0.83768  1.0000
  H   H471      1.0  0.28153  0.16221  0.83487  1.0000
  C   C588      1.0  0.05178  0.24623  0.82427  1.0000
  C   C589      1.0  0.18922  0.29792  0.87804  1.0000
  S   S89       1.0  0.43685  0.99558  0.91411  1.0000
  H   H472      1.0  0.12944  0.31978  0.82487  1.0000
  H   H473      1.0  0.14524  0.18745  0.73629  1.0000
  C   C590      1.0  0.16915  0.30710  0.87333  1.0000
  H   H474      1.0  0.26739  0.12699  0.76789  1.0000
  C   C591      1.0  0.11404  0.16628  0.77333  1.0000
  C   C592      1.0  0.11149  0.10907  0.75453  1.0000
  C   C593      1.0  0.44346  0.07349  0.95227  1.0000
  H   H475      1.0  0.42571  0.08676  0.76884  1.0000
  C   C594      1.0  0.25620  0.12670  0.78269  1.0000
  C   C595      1.0  0.24497  0.17563  0.80423  1.0000
  C   C596      1.0  0.08703  0.27548  0.83880  1.0000
  H   H476      1.0  0.10788  0.11959  0.76524  1.0000
  H   H477      1.0  0.08895  0.24191  0.84460  1.0000
  C   C597      1.0  0.10884  0.29043  0.80632  1.0000
  C   C598      1.0  0.12680  0.16244  0.81071  1.0000
  C   C599      1.0  0.28854  0.16941  0.80097  1.0000
  H   H478      1.0  0.14004  0.11974  0.73692  1.0000
  H   H479      1.0  0.13247  0.16160  0.82463  1.0000
  C   C600      1.0  0.10995  0.17857  0.80510  1.0000
  C   C601      1.0  0.18419  0.09752  0.74260  1.0000
  C   C602      1.0  0.13070  0.28190  0.95362  1.0000
  S   S90       1.0  0.21841  0.24468  0.77721  1.0000
  H   H480      1.0  0.15185  0.24804  0.82566  1.0000
  C   C603      1.0  0.46449  0.03925  0.94733  1.0000
  H   H481      1.0  0.01711  0.21450  0.75319  1.0000
  H   H482      1.0  0.18668  0.12251  0.77950  1.0000
  H   H483      1.0  0.45244  0.06366  0.92278  1.0000
  H   H484      1.0  0.43637  0.07846  0.98386  1.0000
  H   H485      1.0  0.40866  0.05939  0.76538  1.0000
  C   C604      1.0  0.07178  0.21990  0.79566  1.0000
  H   H486      1.0  0.29817  0.24735  0.76758  1.0000
  C   C605      1.0  0.06194  0.19414  0.77297  1.0000
  C   C606      1.0  0.06233  0.21139  0.81634  1.0000
  S   S91       1.0  0.17957  0.20735  0.80352  1.0000
  H   H487      1.0  0.10291  0.18996  0.81493  1.0000
  H   H488      1.0  0.08371  0.09575  0.76850  1.0000
  C   C607      1.0  0.40029  0.02789  0.96468  1.0000
  C   C608      1.0  0.24813  0.26755  0.75391  1.0000
  H   H489      1.0  0.11412  0.30407  0.79557  1.0000
  C   C609      1.0  0.18501  0.10024  0.76229  1.0000
  C   C610      1.0  0.10346  0.18064  0.78633  1.0000
  C   C611      1.0  0.31320  0.24377  0.73605  1.0000
  H   H490      1.0  0.13968  0.13985  0.76835  1.0000
  C   C612      1.0  0.40364  0.03998  0.97712  1.0000
  C   C613      1.0  0.32167  0.15664  0.75763  1.0000
  C   C614      1.0  0.06032  0.17281  0.77913  1.0000
  H   H491      1.0  0.19299  0.28879  0.77728  1.0000
  Fe  Fe45      1.0  0.29263  0.06016  0.74819  1.0000
  S   S92       1.0  0.16761  0.24066  0.76058  1.0000
  H   H492      1.0  0.25151  0.18216  0.77068  1.0000
  C   C615      1.0  0.44985  0.04180  0.81484  1.0000
  H   H493      1.0  0.11630  0.25838  0.88627  1.0000
  H   H494      1.0  0.07199  0.16101  0.78670  1.0000
  S   S93       1.0  0.32684  0.04664  0.73622  1.0000
  Fe  Fe46      1.0  0.19685  0.22543  0.77385  1.0000
  C   C616      1.0  0.18599  0.12016  0.76445  1.0000
  H   H495      1.0  0.06028  0.27174  0.79878  1.0000
  H   H496      1.0  0.10974  0.16805  0.75845  1.0000
  Fe  Fe47      1.0  0.08146  0.31295  0.90713  1.0000
  C   C617      1.0  0.39459  0.00833  0.97403  1.0000
  H   H497      1.0  0.10681  0.09827  0.80630  1.0000
  C   C618      1.0  0.23708  0.25229  0.75444  1.0000
  C   C619      1.0  0.16180  0.29695  0.77046  1.0000
  H   H498      1.0  0.07680  0.24909  0.77328  1.0000
  H   H499      1.0  0.20833  0.28975  0.90144  1.0000
  C   C620      1.0  0.45770  0.05195  0.82584  1.0000
  Fe  Fe48      1.0  0.40186  0.00381  0.92482  1.0000
  C   C621      1.0  0.07034  0.24187  0.78923  1.0000
  C   C622      1.0  0.06061  0.25491  0.80357  1.0000
  H   H500      1.0  0.29051  0.21163  0.77937  1.0000
  C   C623      1.0  0.19406  0.29732  0.74393  1.0000
  P   P22       1.0  0.48191  0.00832  0.97857  1.0000
  C   C624      1.0  0.04334  0.16655  0.77566  1.0000
  C   C625      1.0  0.18380  0.29409  0.76508  1.0000
  C   C626      1.0  0.20196  0.28662  0.82724  1.0000
  H   H501      1.0  0.10753  0.10801  0.83908  1.0000
  C   C627      1.0  0.30447  0.20295  0.74921  1.0000
  H   H502      1.0  0.38390  0.99444  0.81132  1.0000
  S   S94       1.0  0.08465  0.31848  0.83017  1.0000
  H   H503      1.0  0.47465  0.00486  0.88738  1.0000
  C   C628      1.0  0.15629  0.27477  0.83486  1.0000
  H   H504      1.0  0.04702  0.22572  0.75925  1.0000
  H   H505      1.0  0.44754  0.00383  0.96059  1.0000
  C   C629      1.0  0.02782  0.18155  0.76624  1.0000
  H   H506      1.0  0.21870  0.05345  0.76076  1.0000
  C   C630      1.0  0.28471  0.17427  0.73812  1.0000
  C   C631      1.0  0.30319  0.23676  0.75681  1.0000
  H   H507      1.0  0.47224  0.02850  0.93686  1.0000
  H   H508      1.0  0.01232  0.28577  0.96123  1.0000
  C   C632      1.0  0.46005  0.02143  0.81207  1.0000
  C   C633      1.0  0.13585  0.28262  0.97215  1.0000
  C   C634      1.0  0.11212  0.22775  0.75258  1.0000
  H   H509      1.0  0.13299  0.30492  0.75889  1.0000
  H   H510      1.0  0.11496  0.22905  0.76725  1.0000
  C   C635      1.0  0.48191  0.03474  0.88582  1.0000
  C   C636      1.0  0.35725  0.14132  0.74117  1.0000
  H   H511      1.0  0.01228  0.31319  0.87281  1.0000
  C   C637      1.0  0.02920  0.20285  0.76038  1.0000
  Fe  Fe49      1.0  0.03649  0.31636  0.90282  1.0000
  H   H512      1.0  0.19843  0.27236  0.83839  1.0000
  C   C638      1.0  0.44453  0.06770  0.97352  1.0000
  H   H513      1.0  0.13176  0.28909  0.88148  1.0000
  C   C639      1.0  0.46582  0.03337  0.96866  1.0000
  H   H514      1.0  0.20200  0.29125  0.86664  1.0000
  H   H515      1.0  0.23936  0.30226  0.78477  1.0000
  C   C640      1.0  0.18807  0.30619  0.82823  1.0000
  H   H516      1.0  0.11631  0.99356  0.73906  1.0000
  H   H517      1.0  0.01468  0.17669  0.76356  1.0000
  H   H518      1.0  0.05150  0.31385  0.96498  1.0000
  C   C641      1.0  0.00300  0.27827  0.97571  1.0000
  C   C642      1.0  0.48684  0.01307  0.88648  1.0000
  C   C643      1.0  0.10704  0.31258  0.97630  1.0000
  P   P23       1.0  0.16390  0.30788  0.84809  1.0000
  H   H519      1.0  0.18324  0.08241  0.74046  1.0000
  C   C644      1.0  0.47565  0.04171  0.83415  1.0000
  H   H520      1.0  0.09135  0.07273  0.74342  1.0000
  C   C645      1.0  0.15291  0.31543  0.88867  1.0000
  C   C646      1.0  0.99543  0.31697  0.87880  1.0000
  H   H521      1.0  0.17930  0.30439  0.92838  1.0000
  C   C647      1.0  0.05165  0.30582  0.98117  1.0000
  C   C648      1.0  0.09733  0.21625  0.75260  1.0000
  C   C649      1.0  0.17661  0.30536  0.91296  1.0000
  H   H522      1.0  0.34640  0.03126  0.97764  1.0000
  C   C650      1.0  0.04615  0.20915  0.76380  1.0000
  C   C651      1.0  0.06581  0.28658  0.98543  1.0000
  H   H523      1.0  0.44977  0.06765  0.82820  1.0000
  C   C652      1.0  0.15668  0.31464  0.90832  1.0000
  C   C653      1.0  0.24081  0.24367  0.73681  1.0000
  C   C654      1.0  0.10230  0.08264  0.74196  1.0000
  C   C655      1.0  0.15004  0.30303  0.75469  1.0000
  C   C656      1.0  0.12967  0.10909  0.73867  1.0000
  S   S95       1.0  0.38830  0.99386  0.95916  1.0000
  H   H524      1.0  0.48164  0.04957  0.84280  1.0000
  C   C657      1.0  0.48566  0.02119  0.83180  1.0000
  Fe  Fe50      1.0  0.07158  0.32168  0.86388  1.0000
  S   S96       1.0  0.39465  0.98957  0.90172  1.0000
  C   C658      1.0  0.45311  0.98895  0.97062  1.0000
  H   H525      1.0  0.07876  0.00124  0.73611  1.0000
  H   H526      1.0  0.17312  0.38166  0.16749  1.0000
  C   C659      1.0  0.03122  0.34055  0.12253  1.0000
  H   H527      1.0  0.30481  0.51448  0.16759  1.0000
  H   H528      1.0  0.02653  0.36078  0.05423  1.0000
  S   S97       1.0  0.18556  0.33426  0.20255  1.0000
  C   C660      1.0  0.01019  0.37573  0.11301  1.0000
  C   C661      1.0  0.24353  0.36871  0.07412  1.0000
  Fe  Fe51      1.0  0.18975  0.56331  0.16263  1.0000
  S   S98       1.0  0.18368  0.59814  0.14967  1.0000
  S   S99       1.0  0.16705  0.54346  0.16284  1.0000
  Fe  Fe52      1.0  0.22729  0.56436  0.17929  1.0000
  S   S100      1.0  0.25618  0.54445  0.19114  1.0000
  Fe  Fe53      1.0  0.21881  0.59454  0.13902  1.0000
  S   S101      1.0  0.23278  0.61247  0.10723  1.0000
  S   S102      1.0  0.19282  0.56603  0.19425  1.0000
  S   S103      1.0  0.22445  0.55913  0.14870  1.0000
  S   S104      1.0  0.07855  0.38518  0.04437  1.0000
  Fe  Fe54      1.0  0.11624  0.46771  0.07869  1.0000
  S   S105      1.0  0.09307  0.49035  0.06035  1.0000
  S   S106      1.0  0.11704  0.43266  0.09012  1.0000
  Fe  Fe55      1.0  0.13928  0.50179  0.07818  1.0000
  S   S107      1.0  0.11775  0.52720  0.05991  1.0000
  S   S108      1.0  0.16871  0.50838  0.08387  1.0000
  Fe  Fe56      1.0  0.09170  0.51178  0.08135  1.0000
  S   S109      1.0  0.06073  0.53223  0.09314  1.0000
  Fe  Fe57      1.0  0.12094  0.50376  0.04047  1.0000
  P   P24       1.0  0.22170  0.39797  0.09880  1.0000
  S   S110      1.0  0.11288  0.48810  0.10152  1.0000
  S   S111      1.0  0.14452  0.47933  0.05698  1.0000
  C   C662      1.0  0.03995  0.51935  0.09642  1.0000
  C   C663      1.0  0.01920  0.53089  0.09659  1.0000
  C   C664      1.0  0.00291  0.52069  0.09762  1.0000
  C   C665      1.0  0.00740  0.49887  0.09899  1.0000
  C   C666      1.0  0.02792  0.48730  0.09972  1.0000
  C   C667      1.0  0.04420  0.49750  0.09829  1.0000
  H   H529      1.0  0.01585  0.54773  0.09546  1.0000
  H   H530      1.0  0.21866  0.40810  0.21171  1.0000
  H   H531      1.0  0.03132  0.47047  0.10083  1.0000
  H   H532      1.0  0.06003  0.48841  0.09869  1.0000
  C   C668      1.0  0.08960  0.39829  0.05679  1.0000
  C   C669      1.0  0.10415  0.38706  0.06940  1.0000
  C   C670      1.0  0.11258  0.39781  0.07945  1.0000
  C   C671      1.0  0.10677  0.41986  0.07663  1.0000
  C   C672      1.0  0.09253  0.43112  0.06364  1.0000
  C   C673      1.0  0.08385  0.42028  0.05393  1.0000
  H   H533      1.0  0.10856  0.37004  0.07175  1.0000
  H   H534      1.0  0.12346  0.38898  0.08962  1.0000
  H   H535      1.0  0.08787  0.44810  0.06140  1.0000
  H   H536      1.0  0.07262  0.42886  0.04422  1.0000
  C   C674      1.0  0.16711  0.53552  0.13993  1.0000
  C   C675      1.0  0.15002  0.52735  0.13941  1.0000
  C   C676      1.0  0.15003  0.51952  0.12204  1.0000
  C   C677      1.0  0.16739  0.51951  0.10520  1.0000
  C   C678      1.0  0.18448  0.52779  0.10566  1.0000
  C   C679      1.0  0.18423  0.53604  0.12285  1.0000
  H   H537      1.0  0.13666  0.52729  0.15246  1.0000
  H   H538      1.0  0.13678  0.51322  0.12180  1.0000
  H   H539      1.0  0.19796  0.52780  0.09267  1.0000
  H   H540      1.0  0.19750  0.54228  0.12312  1.0000
  C   C680      1.0  0.99736  0.36710  0.10545  1.0000
  C   C681      1.0  0.23943  0.37360  0.09397  1.0000
  C   C682      1.0  0.19363  0.38993  0.13749  1.0000
  C   C683      1.0  0.00101  0.34533  0.10709  1.0000
  C   C684      1.0  0.28217  0.54956  0.21385  1.0000
  H   H541      1.0  0.23057  0.39744  0.16946  1.0000
  H   H542      1.0  0.99387  0.50104  0.02044  1.0000
  H   H543      1.0  0.10475  0.48081  0.01593  1.0000
  H   H544      1.0  0.29505  0.54439  0.20168  1.0000
  C   C685      1.0  0.01798  0.33205  0.11555  1.0000
  C   C686      1.0  0.13390  0.58096  0.21805  1.0000
  C   C687      1.0  0.24830  0.63812  0.12361  1.0000
  C   C688      1.0  0.24309  0.63461  0.10611  1.0000
  H   H545      1.0  0.14743  0.56661  0.09477  1.0000
  C   C689      1.0  0.04796  0.46205  0.01647  1.0000
  H   H546      1.0  0.12671  0.57017  0.17429  1.0000
  H   H547      1.0  0.24682  0.62672  0.13829  1.0000
  C   C690      1.0  0.06909  0.62031  0.14641  1.0000
  C   C691      1.0  0.37695  0.62899  0.15128  1.0000
  C   C692      1.0  0.37841  0.61119  0.16780  1.0000
  C   C693      1.0  0.36349  0.61083  0.18670  1.0000
  C   C694      1.0  0.34700  0.62831  0.18901  1.0000
  H   H548      1.0  0.19741  0.51543  0.21256  1.0000
  H   H549      1.0  0.38854  0.62916  0.13670  1.0000
  H   H550      1.0  0.39117  0.59770  0.16595  1.0000
  H   H551      1.0  0.33537  0.62802  0.20354  1.0000
  H   H552      1.0  0.00408  0.53581  0.00907  1.0000
  H   H553      1.0  0.19648  0.38677  0.18774  1.0000
  C   C695      1.0  0.23458  0.42024  0.08859  1.0000
  H   H554      1.0  0.00271  0.47481  0.05179  1.0000
  C   C696      1.0  0.17247  0.38738  0.08020  1.0000
  H   H555      1.0  0.12616  0.50421  0.21803  1.0000
  H   H556      1.0  0.00485  0.53998  0.05363  1.0000
  C   C697      1.0  0.00464  0.58900  0.07217  1.0000
  C   C698      1.0  0.25623  0.33218  0.23220  1.0000
  C   C699      1.0  0.03091  0.33568  0.20964  1.0000
  H   H557      1.0  0.08719  0.65524  0.13467  1.0000
  S   S112      1.0  0.08189  0.33097  0.08522  1.0000
  C   C700      1.0  0.99697  0.33262  0.98725  1.0000
  C   C701      1.0  0.13895  0.33513  0.11037  1.0000
  C   C702      1.0  0.16365  0.63001  0.21762  1.0000
  C   C703      1.0  0.06268  0.52266  0.02526  1.0000
  H   H558      1.0  0.29714  0.63981  0.19658  1.0000
  C   C704      1.0  0.02409  0.49207  0.00012  1.0000
  C   C705      1.0  0.34138  0.64965  0.09840  1.0000
  S   S113      1.0  0.16814  0.62960  0.19096  1.0000
  C   C706      1.0  0.99339  0.54168  0.99826  1.0000
  H   H559      1.0  0.04569  0.34166  0.17691  1.0000
  C   C707      1.0  0.22411  0.43978  0.09372  1.0000
  C   C708      1.0  0.01234  0.58891  0.00868  1.0000
  C   C709      1.0  0.11761  0.60118  0.18169  1.0000
  H   H560      1.0  0.27787  0.49743  0.19374  1.0000
  H   H561      1.0  0.14805  0.45300  0.00955  1.0000
  C   C710      1.0  0.01662  0.36280  0.04313  1.0000
  H   H562      1.0  0.07803  0.62146  0.13038  1.0000
  C   C711      1.0  0.24564  0.64938  0.08706  1.0000
  H   H563      1.0  0.03806  0.36860  0.12641  1.0000
  H   H564      1.0  0.11337  0.40574  0.01406  1.0000
  H   H565      1.0  0.33797  0.51528  0.17698  1.0000
  C   C712      1.0  0.32639  0.50729  0.18851  1.0000
  C   C713      1.0  0.24460  0.55874  0.22779  1.0000
  H   H566      1.0  0.35948  0.55227  0.19577  1.0000
  C   C714      1.0  0.29560  0.48774  0.21867  1.0000
  H   H567      1.0  0.14682  0.37938  0.00078  1.0000
  C   C715      1.0  0.13312  0.64334  0.15229  1.0000
  H   H568      1.0  0.24657  0.36265  0.12520  1.0000
  S   S114      1.0  0.22568  0.33563  0.16325  1.0000
  C   C716      1.0  0.13429  0.56938  0.20349  1.0000
  C   C717      1.0  0.13953  0.60291  0.12440  1.0000
  P   P25       1.0  0.01947  0.33927  0.99202  1.0000
  C   C718      1.0  0.01406  0.47551  0.03695  1.0000
  C   C719      1.0  0.24335  0.47974  0.21742  1.0000
  C   C720      1.0  0.06734  0.61563  0.18368  1.0000
  C   C721      1.0  0.18777  0.38681  0.15935  1.0000
  C   C722      1.0  0.19786  0.43110  0.19311  1.0000
  H   H569      1.0  0.03865  0.34093  0.02587  1.0000
  C   C723      1.0  0.16063  0.43011  0.20500  1.0000
  C   C724      1.0  0.07937  0.61695  0.16309  1.0000
  C   C725      1.0  0.35513  0.63128  0.10607  1.0000
  C   C726      1.0  0.02398  0.41160  0.04592  1.0000
  C   C727      1.0  0.02372  0.40527  0.06744  1.0000
  H   H570      1.0  0.06468  0.63424  0.00657  1.0000
  H   H571      1.0  0.19410  0.33649  0.08714  1.0000
  C   C728      1.0  0.04542  0.61752  0.18750  1.0000
  H   H572      1.0  0.34422  0.49841  0.21300  1.0000
  C   C729      1.0  0.02554  0.41174  0.11836  1.0000
  C   C730      1.0  0.02496  0.40789  0.14000  1.0000
  C   C731      1.0  0.03886  0.41526  0.14729  1.0000
  C   C732      1.0  0.05336  0.42661  0.13302  1.0000
  C   C733      1.0  0.05427  0.43019  0.11147  1.0000
  C   C734      1.0  0.04043  0.42282  0.10409  1.0000
  H   H573      1.0  0.12681  0.42652  0.03113  1.0000
  C   C735      1.0  0.04325  0.47729  0.99874  1.0000
  C   C736      1.0  0.02341  0.35142  0.02716  1.0000
  C   C737      1.0  0.99690  0.37648  0.04501  1.0000
  H   H574      1.0  0.39045  0.51125  0.20826  1.0000
  C   C738      1.0  0.04719  0.62215  0.15029  1.0000
  H   H575      1.0  0.26527  0.62607  0.21710  1.0000
  C   C739      1.0  0.11670  0.61259  0.19671  1.0000
  C   C740      1.0  0.99066  0.43011  0.07430  1.0000
  C   C741      1.0  0.05392  0.54409  0.02386  1.0000
  C   C742      1.0  0.21191  0.50747  0.21804  1.0000
  H   H576      1.0  0.03716  0.40461  0.03506  1.0000
  H   H577      1.0  0.03656  0.39316  0.07287  1.0000
  C   C743      1.0  0.12601  0.57940  0.18546  1.0000
  C   C744      1.0  0.08471  0.38386  0.98921  1.0000
  H   H578      1.0  0.03814  0.41253  0.16400  1.0000
  H   H579      1.0  0.06394  0.43268  0.13856  1.0000
  H   H580      1.0  0.06540  0.43920  0.10052  1.0000
  H   H581      1.0  0.04114  0.42629  0.08734  1.0000
  C   C745      1.0  0.20242  0.41456  0.21001  1.0000
  H   H582      1.0  0.16753  0.34308  0.00627  1.0000
  C   C746      1.0  0.00110  0.58256  0.05540  1.0000
  C   C747      1.0  0.17262  0.34068  0.05463  1.0000
  S   S115      1.0  0.22402  0.59943  0.16860  1.0000
  C   C748      1.0  0.14572  0.34581  0.12195  1.0000
  C   C749      1.0  0.10723  0.48696  0.99912  1.0000
  C   C750      1.0  0.12491  0.60251  0.21475  1.0000
  H   H583      1.0  0.03720  0.44976  0.04955  1.0000
  C   C751      1.0  0.19480  0.36894  0.02405  1.0000
  H   H584      1.0  0.34964  0.65177  0.21630  1.0000
  C   C752      1.0  0.21308  0.32331  0.11043  1.0000
  C   C753      1.0  0.23329  0.45752  0.08529  1.0000
  C   C754      1.0  0.15998  0.33478  0.13513  1.0000
  C   C755      1.0  0.05064  0.50761  0.03672  1.0000
  H   H585      1.0  0.07477  0.61309  0.19685  1.0000
  C   C756      1.0  0.08616  0.36496  0.12323  1.0000
  C   C757      1.0  0.08909  0.38078  0.13141  1.0000
  C   C758      1.0  0.09112  0.37652  0.15230  1.0000
  H   H586      1.0  0.99120  0.38480  0.05777  1.0000
  C   C759      1.0  0.04836  0.40296  0.99405  1.0000
  C   C760      1.0  0.13973  0.57594  0.10656  1.0000
  P   P26       1.0  0.10772  0.61439  0.15797  1.0000
  C   C761      1.0  0.02980  0.51408  0.04680  1.0000
  C   C762      1.0  0.00692  0.41426  0.08183  1.0000
  C   C763      1.0  0.25469  0.41852  0.07538  1.0000
  H   H587      1.0  0.20607  0.33578  0.11901  1.0000
  C   C764      1.0  0.24922  0.35936  0.10980  1.0000
  H   H588      1.0  0.25302  0.46626  0.21119  1.0000
  C   C765      1.0  0.17688  0.42284  0.06231  1.0000
  H   H589      1.0  0.08403  0.36837  0.10722  1.0000
  H   H590      1.0  0.08986  0.39634  0.12153  1.0000
  H   H591      1.0  0.09331  0.38886  0.15863  1.0000
  H   H592      1.0  0.26945  0.32910  0.11850  1.0000
  H   H593      1.0  0.11361  0.55996  0.11838  1.0000
  H   H594      1.0  0.09571  0.36883  0.99044  1.0000
  C   C766      1.0  0.31957  0.65114  0.10490  1.0000
  H   H595      1.0  0.39032  0.47290  0.22078  1.0000
  C   C767      1.0  0.25326  0.45575  0.07203  1.0000
  C   C768      1.0  0.00921  0.49063  0.01917  1.0000
  H   H596      1.0  0.20141  0.43364  0.06866  1.0000
  H   H597      1.0  0.22475  0.47271  0.08881  1.0000
  C   C769      1.0  0.18619  0.40560  0.22421  1.0000
  H   H598      1.0  0.16378  0.32997  0.06657  1.0000
  H   H599      1.0  0.09667  0.57997  0.14628  1.0000
  C   C770      1.0  0.14925  0.59116  0.10892  1.0000
  C   C771      1.0  0.03536  0.62075  0.17082  1.0000
  C   C772      1.0  0.26240  0.34029  0.10600  1.0000
  C   C773      1.0  0.19358  0.42054  0.07215  1.0000
  C   C774      1.0  0.20094  0.38978  0.17077  1.0000
  H   H600      1.0  0.09254  0.46459  0.99340  1.0000
  C   C775      1.0  0.26400  0.43625  0.06718  1.0000
  C   C776      1.0  0.38539  0.48313  0.23192  1.0000
  H   H601      1.0  0.08459  0.33252  0.12860  1.0000
  H   H602      1.0  0.14434  0.43600  0.20334  1.0000
  C   C777      1.0  0.09047  0.35634  0.16494  1.0000
  C   C778      1.0  0.22598  0.39909  0.13847  1.0000
  H   H603      1.0  0.14729  0.61449  0.12601  1.0000
  C   C779      1.0  0.08864  0.34005  0.15650  1.0000
  H   H604      1.0  0.26033  0.46955  0.06540  1.0000
  H   H605      1.0  0.16484  0.39088  0.02527  1.0000
  S   S116      1.0  0.12680  0.51561  0.00532  1.0000
  C   C780      1.0  0.22006  0.39592  0.16038  1.0000
  H   H606      1.0  0.06360  0.55542  0.01489  1.0000
  H   H607      1.0  0.03622  0.61643  0.20342  1.0000
  C   C781      1.0  0.26621  0.33544  0.08629  1.0000
  H   H608      1.0  0.23628  0.37953  0.06164  1.0000
  C   C782      1.0  0.28239  0.58382  0.10585  1.0000
  C   C783      1.0  0.27581  0.56509  0.11701  1.0000
  C   C784      1.0  0.28121  0.55511  0.13646  1.0000
  C   C785      1.0  0.29307  0.56395  0.14480  1.0000
  C   C786      1.0  0.29940  0.58302  0.13388  1.0000
  C   C787      1.0  0.29405  0.59284  0.11424  1.0000
  P   P27       1.0  0.31411  0.59443  0.14541  1.0000
  C   C788      1.0  0.29746  0.60538  0.16727  1.0000
  C   C789      1.0  0.33509  0.57351  0.15415  1.0000
  C   C790      1.0  0.33942  0.57036  0.17417  1.0000
  C   C791      1.0  0.35610  0.55437  0.18038  1.0000
  C   C792      1.0  0.36869  0.54160  0.16661  1.0000
  C   C793      1.0  0.36433  0.54451  0.14674  1.0000
  C   C794      1.0  0.34753  0.56033  0.14055  1.0000
  C   C795      1.0  0.30382  0.62051  0.17380  1.0000
  C   C796      1.0  0.29209  0.62814  0.19160  1.0000
  C   C797      1.0  0.27396  0.62062  0.20304  1.0000
  C   C798      1.0  0.26708  0.60607  0.19631  1.0000
  C   C799      1.0  0.27876  0.59845  0.17846  1.0000
  C   C800      1.0  0.32515  0.61562  0.12656  1.0000
  C   C801      1.0  0.31153  0.63431  0.11912  1.0000
  C   C802      1.0  0.16529  0.41342  0.22180  1.0000
  C   C803      1.0  0.00724  0.42659  0.03857  1.0000
  H   H609      1.0  0.01837  0.62214  0.17382  1.0000
  C   C804      1.0  0.34710  0.61431  0.12016  1.0000
  H   H610      1.0  0.27767  0.59187  0.09104  1.0000
  H   H611      1.0  0.26602  0.55868  0.11081  1.0000
  H   H612      1.0  0.27560  0.54091  0.14543  1.0000
  H   H613      1.0  0.29672  0.55626  0.16013  1.0000
  H   H614      1.0  0.29849  0.60756  0.10535  1.0000
  H   H615      1.0  0.33024  0.58036  0.18497  1.0000
  H   H616      1.0  0.05785  0.36913  0.00207  1.0000
  H   H617      1.0  0.15273  0.40637  0.23282  1.0000
  H   H618      1.0  0.37410  0.53466  0.13602  1.0000
  H   H619      1.0  0.34441  0.56260  0.12503  1.0000
  H   H620      1.0  0.31803  0.62623  0.16524  1.0000
  H   H621      1.0  0.00736  0.43135  0.02188  1.0000
  H   H622      1.0  0.01341  0.39960  0.15124  1.0000
  H   H623      1.0  0.25280  0.60050  0.20505  1.0000
  H   H624      1.0  0.27317  0.58706  0.17374  1.0000
  H   H625      1.0  0.29465  0.63586  0.12449  1.0000
  H   H626      1.0  0.38189  0.52957  0.17130  1.0000
  H   H627      1.0  0.40209  0.59023  0.22445  1.0000
  H   H628      1.0  0.12491  0.61158  0.22587  1.0000
  H   H629      1.0  0.35807  0.60059  0.12640  1.0000
  H   H630      1.0  0.03937  0.62461  0.13737  1.0000
  H   H631      1.0  0.16406  0.37466  0.08362  1.0000
  H   H632      1.0  0.14153  0.55273  0.20580  1.0000
  C   C805      1.0  0.19979  0.40158  0.08624  1.0000
  H   H633      1.0  0.26317  0.40360  0.07131  1.0000
  H   H634      1.0  0.20860  0.44135  0.10387  1.0000
  H   H635      1.0  0.24280  0.49828  0.13508  1.0000
  H   H636      1.0  0.03482  0.56652  0.99147  1.0000
  H   H637      1.0  0.21063  0.44917  0.13917  1.0000
  H   H638      1.0  0.27948  0.43491  0.05689  1.0000
  H   H639      1.0  0.21234  0.51421  0.15985  1.0000
  C   C806      1.0  0.07511  0.58962  0.04385  1.0000
  C   C807      1.0  0.07755  0.60885  0.02995  1.0000
  C   C808      1.0  0.06284  0.61925  0.01723  1.0000
  C   C809      1.0  0.04577  0.61032  0.01823  1.0000
  C   C810      1.0  0.04346  0.59080  0.03187  1.0000
  C   C811      1.0  0.05807  0.58069  0.04492  1.0000
  H   H640      1.0  0.24188  0.46565  0.12484  1.0000
  H   H641      1.0  0.21933  0.48358  0.19994  1.0000
  C   C812      1.0  0.13057  0.42869  0.01420  1.0000
  C   C813      1.0  0.14276  0.44343  0.00206  1.0000
  C   C814      1.0  0.02093  0.53552  0.04542  1.0000
  H   H642      1.0  0.08641  0.58150  0.05384  1.0000
  H   H643      1.0  0.09082  0.61571  0.02912  1.0000
  H   H644      1.0  0.14361  0.63046  0.16042  1.0000
  H   H645      1.0  0.05640  0.56575  0.05582  1.0000
  C   C815      1.0  0.18933  0.38490  0.08984  1.0000
  H   H646      1.0  0.01999  0.59153  0.07204  1.0000
  C   C816      1.0  0.34546  0.64617  0.17239  1.0000
  H   H647      1.0  0.40592  0.62361  0.23078  1.0000
  H   H648      1.0  0.15294  0.40844  0.05923  1.0000
  C   C817      1.0  0.15506  0.64930  0.22379  1.0000
  H   H649      1.0  0.02063  0.50247  0.05624  1.0000
  H   H650      1.0  0.24114  0.40326  0.13071  1.0000
  H   H651      1.0  0.18117  0.49817  0.17407  1.0000
  C   C818      1.0  0.16204  0.36101  0.04667  1.0000
  C   C819      1.0  0.11108  0.58362  0.13567  1.0000
  C   C820      1.0  0.21286  0.39590  0.12685  1.0000
  Fe  Fe58      1.0  0.21957  0.33600  0.19756  1.0000
  H   H652      1.0  0.12799  0.34365  0.10021  1.0000
  C   C821      1.0  0.22430  0.48958  0.21088  1.0000
  S   S117      1.0  0.12288  0.33428  0.04499  1.0000
  C   C822      1.0  0.19439  0.33425  0.04717  1.0000
  C   C823      1.0  0.25689  0.34971  0.07031  1.0000
  C   C824      1.0  0.03354  0.46141  0.03569  1.0000
  H   H653      1.0  0.20336  0.37995  0.01223  1.0000
  C   C825      1.0  0.16467  0.45395  0.11160  1.0000
  C   C826      1.0  0.15579  0.43609  0.11691  1.0000
  C   C827      1.0  0.15104  0.42563  0.13791  1.0000
  C   C828      1.0  0.15595  0.43254  0.15356  1.0000
  C   C829      1.0  0.16568  0.44999  0.14824  1.0000
  C   C830      1.0  0.16940  0.46102  0.12720  1.0000
  P   P28       1.0  0.17078  0.46007  0.16836  1.0000
  C   C831      1.0  0.14716  0.47799  0.17802  1.0000
  C   C832      1.0  0.17692  0.43887  0.19031  1.0000
  C   C833      1.0  0.25014  0.48765  0.23132  1.0000
  S   S118      1.0  0.16868  0.34849  0.14910  1.0000
  H   H654      1.0  0.03161  0.40283  0.99861  1.0000
  H   H655      1.0  0.01650  0.34708  0.20726  1.0000
  H   H656      1.0  0.37202  0.63051  0.10169  1.0000
  C   C834      1.0  0.14549  0.48489  0.19640  1.0000
  C   C835      1.0  0.12717  0.49856  0.20411  1.0000
  C   C836      1.0  0.11022  0.50508  0.19378  1.0000
  C   C837      1.0  0.11156  0.49791  0.17576  1.0000
  C   C838      1.0  0.12996  0.48447  0.16784  1.0000
  C   C839      1.0  0.19336  0.47257  0.15752  1.0000
  C   C840      1.0  0.21077  0.46347  0.14364  1.0000
  C   C841      1.0  0.22858  0.47265  0.13563  1.0000
  C   C842      1.0  0.22919  0.49092  0.14149  1.0000
  C   C843      1.0  0.21210  0.49984  0.15552  1.0000
  C   C844      1.0  0.19428  0.49071  0.16353  1.0000
  H   H657      1.0  0.16770  0.46249  0.09537  1.0000
  H   H658      1.0  0.15240  0.43047  0.10479  1.0000
  H   H659      1.0  0.14378  0.41199  0.14195  1.0000
  H   H660      1.0  0.15221  0.42412  0.16968  1.0000
  H   H661      1.0  0.17582  0.47520  0.12280  1.0000
  C   C845      1.0  0.08628  0.34459  0.13557  1.0000
  Fe  Fe59      1.0  0.08868  0.34989  0.05215  1.0000
  C   C846      1.0  0.16624  0.40635  0.06645  1.0000
  H   H662      1.0  0.17451  0.59656  0.22803  1.0000
  H   H663      1.0  0.21084  0.43740  0.18220  1.0000
  H   H664      1.0  0.15843  0.47987  0.20465  1.0000
  C   C847      1.0  0.12294  0.41703  0.00448  1.0000
  H   H665      1.0  0.09610  0.51579  0.19967  1.0000
  H   H666      1.0  0.09850  0.50308  0.16762  1.0000
  H   H667      1.0  0.13069  0.47950  0.15362  1.0000
  P   P29       1.0  0.02213  0.57848  0.03279  1.0000
  C   C848      1.0  0.38553  0.50469  0.22485  1.0000
  C   C849      1.0  0.36040  0.64642  0.15346  1.0000
  H   H668      1.0  0.03454  0.61860  0.00827  1.0000
  Fe  Fe60      1.0  0.18921  0.60086  0.18010  1.0000
  H   H669      1.0  0.09683  0.56956  0.00307  1.0000
  C   C850      1.0  0.11449  0.64019  0.14878  1.0000
  H   H670      1.0  0.22842  0.56064  0.22645  1.0000
  C   C851      1.0  0.03302  0.55071  0.03416  1.0000
  H   H671      1.0  0.17192  0.43755  0.05169  1.0000
  H   H672      1.0  0.05759  0.49095  0.03814  1.0000
  C   C852      1.0  0.01053  0.35350  0.01303  1.0000
  H   H673      1.0  0.22224  0.34415  0.02600  1.0000
  H   H674      1.0  0.13987  0.36262  0.12075  1.0000
  C   C853      1.0  0.24150  0.35136  0.23060  1.0000
  H   H675      1.0  0.04476  0.33028  0.12842  1.0000
  H   H676      1.0  0.07895  0.51774  0.01772  1.0000
  H   H677      1.0  0.14524  0.36583  0.05242  1.0000
  S   S119      1.0  0.22692  0.36056  0.21043  1.0000
  H   H678      1.0  0.18305  0.38742  0.12920  1.0000
  C   C854      1.0  0.20544  0.34860  0.03191  1.0000
  C   C855      1.0  0.30774  0.50679  0.18318  1.0000
  C   C856      1.0  0.26123  0.55171  0.21219  1.0000
  H   H679      1.0  0.19389  0.37012  0.10049  1.0000
  C   C857      1.0  0.12065  0.57218  0.11992  1.0000
  C   C858      1.0  0.12026  0.59936  0.13780  1.0000
  C   C859      1.0  0.17310  0.37512  0.03137  1.0000
  S   S120      1.0  0.36606  0.58832  0.20709  1.0000
  C   C860      1.0  0.06311  0.38392  0.99580  1.0000
  H   H680      1.0  0.16436  0.59362  0.09897  1.0000
  H   H681      1.0  0.06275  0.45069  0.01514  1.0000
  C   C861      1.0  0.02734  0.36232  0.12134  1.0000
  C   C862      1.0  0.30071  0.43675  0.23086  1.0000
  H   H682      1.0  0.11019  0.62940  0.19426  1.0000
  H   H683      1.0  0.20098  0.63539  0.13891  1.0000
  P   P30       1.0  0.00587  0.40403  0.10963  1.0000
  H   H684      1.0  0.25996  0.34604  0.05499  1.0000
  C   C863      1.0  0.05525  0.42209  0.98693  1.0000
  H   H685      1.0  0.14082  0.57335  0.23172  1.0000
  H   H686      1.0  0.09169  0.35336  0.18123  1.0000
  C   C864      1.0  0.30438  0.41498  0.23204  1.0000
  C   C865      1.0  0.10162  0.57412  0.98612  1.0000
  H   H687      1.0  0.31984  0.40666  0.22543  1.0000
  C   C866      1.0  0.32987  0.49780  0.20880  1.0000
  C   C867      1.0  0.99539  0.60633  0.00730  1.0000
  C   C868      1.0  0.04750  0.33257  0.19248  1.0000
  C   C869      1.0  0.29242  0.49703  0.19815  1.0000
  H   H688      1.0  0.31351  0.44503  0.22328  1.0000
  C   C870      1.0  0.31464  0.48788  0.22378  1.0000
  H   H689      1.0  0.24170  0.64685  0.07348  1.0000
  H   H690      1.0  0.13397  0.55812  0.98595  1.0000
  S   S121      1.0  0.07729  0.32943  0.03761  1.0000
  C   C871      1.0  0.20645  0.32363  0.09230  1.0000
  H   H691      1.0  0.01619  0.32388  0.07247  1.0000
  C   C872      1.0  0.28649  0.55427  0.23116  1.0000
  C   C873      1.0  0.21847  0.51540  0.23192  1.0000
  C   C874      1.0  0.16797  0.61150  0.23275  1.0000
  C   C875      1.0  0.99058  0.43584  0.05278  1.0000
  H   H692      1.0  0.19355  0.65223  0.10353  1.0000
  C   C876      1.0  0.02170  0.57989  0.99102  1.0000
  C   C877      1.0  0.19654  0.65237  0.13446  1.0000
  C   C878      1.0  0.15873  0.34877  0.99377  1.0000
  C   C879      1.0  0.14679  0.36938  0.99068  1.0000
  H   H693      1.0  0.05503  0.51574  0.98950  1.0000
  C   C880      1.0  0.11786  0.50365  0.98998  1.0000
  H   H694      1.0  0.99125  0.59644  0.10272  1.0000
  C   C881      1.0  0.99118  0.36804  0.01442  1.0000
  H   H695      1.0  0.38006  0.53449  0.23386  1.0000
  H   H696      1.0  0.12483  0.32946  0.17494  1.0000
  Fe  Fe61      1.0  0.19261  0.33023  0.16936  1.0000
  C   C882      1.0  0.03291  0.32410  0.22985  1.0000
  H   H697      1.0  0.31202  0.65453  0.23455  1.0000
  H   H698      1.0  0.99083  0.33882  0.10144  1.0000
  H   H699      1.0  0.30267  0.55250  0.23243  1.0000
  H   H700      1.0  0.25892  0.32252  0.22087  1.0000
  C   C883      1.0  0.10014  0.47791  0.98640  1.0000
  C   C884      1.0  0.42723  0.61456  0.30197  1.0000
  H   H701      1.0  0.21684  0.50867  0.33819  1.0000
  C   C885      1.0  0.26817  0.41449  0.25024  1.0000
  Fe  Fe62      1.0  0.42656  0.51164  0.40762  1.0000
  S   S122      1.0  0.39553  0.51397  0.43066  1.0000
  S   S123      1.0  0.44593  0.47995  0.40198  1.0000
  Fe  Fe63      1.0  0.42308  0.55905  0.39446  1.0000
  S   S124      1.0  0.39157  0.56549  0.41604  1.0000
  S   S125      1.0  0.43582  0.58625  0.37162  1.0000
  Fe  Fe64      1.0  0.40618  0.53894  0.43944  1.0000
  S   S126      1.0  0.39760  0.54330  0.47270  1.0000
  Fe  Fe65      1.0  0.38349  0.54022  0.40546  1.0000
  S   S127      1.0  0.35127  0.54473  0.39828  1.0000
  S   S128      1.0  0.43852  0.53434  0.41868  1.0000
  S   S129      1.0  0.41374  0.53616  0.38167  1.0000
  Fe  Fe66      1.0  0.39180  0.36774  0.35182  1.0000
  S   S130      1.0  0.41795  0.34266  0.36395  1.0000
  S   S131      1.0  0.36803  0.36506  0.33454  1.0000
  Fe  Fe67      1.0  0.40331  0.40205  0.36650  1.0000
  S   S132      1.0  0.43023  0.37988  0.37989  1.0000
  S   S133      1.0  0.39327  0.43686  0.36592  1.0000
  Fe  Fe68      1.0  0.43779  0.36741  0.35049  1.0000
  S   S134      1.0  0.47040  0.36223  0.32998  1.0000
  Fe  Fe69      1.0  0.40800  0.35738  0.39231  1.0000
  H   H702      1.0  0.27660  0.44767  0.28055  1.0000
  S   S135      1.0  0.41243  0.39142  0.33608  1.0000
  S   S136      1.0  0.38024  0.38057  0.38129  1.0000
  Fe  Fe70      1.0  0.31769  0.61353  0.27176  1.0000
  S   S137      1.0  0.30922  0.58423  0.29440  1.0000
  H   H703      1.0  0.18044  0.59115  0.33934  1.0000
  H   H704      1.0  0.44084  0.37337  0.30003  1.0000
  C   C886      1.0  0.18633  0.63635  0.36177  1.0000
  H   H705      1.0  0.36578  0.58737  0.37289  1.0000
  C   C887      1.0  0.21185  0.53446  0.35350  1.0000
  Fe  Fe71      1.0  0.34284  0.56882  0.28348  1.0000
  S   S138      1.0  0.36550  0.54524  0.30203  1.0000
  C   C888      1.0  0.40633  0.57225  0.25527  1.0000
  S   S139      1.0  0.35203  0.59873  0.26332  1.0000
  H   H706      1.0  0.25562  0.40578  0.25772  1.0000
  C   C889      1.0  0.27738  0.46339  0.28114  1.0000
  C   C890      1.0  0.38559  0.32397  0.33000  1.0000
  C   C891      1.0  0.48709  0.49406  0.30472  1.0000
  H   H707      1.0  0.37017  0.33680  0.40807  1.0000
  H   H708      1.0  0.47097  0.35200  0.37417  1.0000
  C   C892      1.0  0.39709  0.35024  0.44578  1.0000
  H   H709      1.0  0.40372  0.55788  0.25281  1.0000
  H   H710      1.0  0.38592  0.38040  0.42667  1.0000
  C   C893      1.0  0.46332  0.58338  0.36250  1.0000
  H   H711      1.0  0.28061  0.45381  0.31354  1.0000
  C   C894      1.0  0.42073  0.33304  0.28220  1.0000
  H   H712      1.0  0.23052  0.62563  0.24027  1.0000
  C   C895      1.0  0.43183  0.46782  0.39156  1.0000
  C   C896      1.0  0.41280  0.47899  0.38574  1.0000
  C   C897      1.0  0.40158  0.46956  0.37720  1.0000
  C   C898      1.0  0.40878  0.44853  0.37525  1.0000
  C   C899      1.0  0.42803  0.43737  0.38076  1.0000
  C   C900      1.0  0.43953  0.44699  0.38896  1.0000
  H   H713      1.0  0.40665  0.49488  0.38798  1.0000
  H   H714      1.0  0.38725  0.47860  0.37214  1.0000
  H   H715      1.0  0.43409  0.42141  0.37862  1.0000
  H   H716      1.0  0.45423  0.43828  0.39353  1.0000
  C   C901      1.0  0.35376  0.54318  0.37218  1.0000
  C   C902      1.0  0.37175  0.53086  0.36230  1.0000
  C   C903      1.0  0.37474  0.53109  0.34097  1.0000
  C   C904      1.0  0.35999  0.54402  0.32920  1.0000
  C   C905      1.0  0.34142  0.55569  0.33925  1.0000
  C   C906      1.0  0.33815  0.55492  0.36089  1.0000
  H   H717      1.0  0.38336  0.52110  0.37113  1.0000
  H   H718      1.0  0.38895  0.52179  0.33349  1.0000
  H   H719      1.0  0.32984  0.56553  0.33032  1.0000
  H   H720      1.0  0.32411  0.56417  0.36873  1.0000
  H   H721      1.0  0.23508  0.56529  0.29843  1.0000
  H   H722      1.0  0.28332  0.62448  0.33153  1.0000
  H   H723      1.0  0.44099  0.52014  0.46332  1.0000
  H   H724      1.0  0.47964  0.48136  0.35805  1.0000
  H   H725      1.0  0.45085  0.60874  0.27422  1.0000
  H   H726      1.0  0.48277  0.43692  0.42576  1.0000
  C   C907      1.0  0.48663  0.35373  0.36541  1.0000
  C   C908      1.0  0.37007  0.34205  0.32559  1.0000
  C   C909      1.0  0.35593  0.34210  0.31342  1.0000
  C   C910      1.0  0.35742  0.32430  0.30547  1.0000
  C   C911      1.0  0.48096  0.32802  0.43505  1.0000
  H   H727      1.0  0.20909  0.52956  0.23709  1.0000
  H   H728      1.0  0.34386  0.35601  0.30997  1.0000
  C   C912      1.0  0.44480  0.61845  0.28583  1.0000
  H   H729      1.0  0.20889  0.56257  0.36449  1.0000
  H   H730      1.0  0.41151  0.62482  0.26513  1.0000
  C   C913      1.0  0.47864  0.57338  0.47033  1.0000
  H   H731      1.0  0.46263  0.51791  0.34712  1.0000
  C   C914      1.0  0.48029  0.53102  0.28672  1.0000
  H   H732      1.0  0.28302  0.48945  0.31571  1.0000
  C   C915      1.0  0.28108  0.48681  0.30120  1.0000
  C   C916      1.0  0.41229  0.59147  0.27842  1.0000
  H   H733      1.0  0.26120  0.59996  0.29258  1.0000
  C   C917      1.0  0.28813  0.40386  0.24171  1.0000
  H   H734      1.0  0.46047  0.58056  0.44623  1.0000
  H   H735      1.0  0.34853  0.49778  0.38280  1.0000
  C   C918      1.0  0.22961  0.62072  0.25705  1.0000
  C   C919      1.0  0.46260  0.55006  0.33051  1.0000
  C   C920      1.0  0.45743  0.36627  0.45174  1.0000
  H   H736      1.0  0.47534  0.41348  0.31184  1.0000
  H   H737      1.0  0.25298  0.56003  0.35336  1.0000
  H   H738      1.0  0.45382  0.42145  0.45015  1.0000
  C   C921      1.0  0.26443  0.43623  0.24913  1.0000
  H   H739      1.0  0.18943  0.35132  0.30284  1.0000
  C   C922      1.0  0.48788  0.43904  0.31461  1.0000
  C   C923      1.0  0.46129  0.52881  0.28341  1.0000
  H   H740      1.0  0.43381  0.40300  0.41456  1.0000
  H   H741      1.0  0.34958  0.50001  0.41810  1.0000
  H   H742      1.0  0.40966  0.55854  0.28692  1.0000
  C   C924      1.0  0.20996  0.62098  0.27062  1.0000
  H   H743      1.0  0.37275  0.39852  0.45655  1.0000
  C   C925      1.0  0.34737  0.46729  0.43225  1.0000
  H   H744      1.0  0.46246  0.33780  0.29958  1.0000
  C   C926      1.0  0.43142  0.56847  0.31599  1.0000
  H   H745      1.0  0.44822  0.33856  0.43177  1.0000
  H   H746      1.0  0.24889  0.44420  0.25594  1.0000
  H   H747      1.0  0.29097  0.38697  0.24264  1.0000
  P   P31       1.0  0.41537  0.59256  0.30402  1.0000
  H   H748      1.0  0.47750  0.55033  0.33391  1.0000
  H   H749      1.0  0.22733  0.37881  0.24390  1.0000
  C   C927      1.0  0.37130  0.60529  0.31234  1.0000
  H   H750      1.0  0.28554  0.55986  0.36411  1.0000
  C   C928      1.0  0.46785  0.49206  0.30155  1.0000
  C   C929      1.0  0.35135  0.60835  0.32555  1.0000
  C   C930      1.0  0.41336  0.47940  0.32203  1.0000
  C   C931      1.0  0.42630  0.45938  0.32215  1.0000
  C   C932      1.0  0.42163  0.44528  0.31294  1.0000
  C   C933      1.0  0.40341  0.45077  0.30455  1.0000
  C   C934      1.0  0.38963  0.47039  0.30556  1.0000
  C   C935      1.0  0.39530  0.48504  0.31337  1.0000
  P   P32       1.0  0.36556  0.47708  0.29569  1.0000
  C   C936      1.0  0.34513  0.49567  0.30860  1.0000
  C   C937      1.0  0.37289  0.48784  0.26790  1.0000
  C   C938      1.0  0.37370  0.50934  0.26073  1.0000
  H   H751      1.0  0.30449  0.54176  0.44562  1.0000
  C   C939      1.0  0.45504  0.63448  0.28497  1.0000
  C   C940      1.0  0.41073  0.60988  0.26243  1.0000
  C   C941      1.0  0.34647  0.52630  0.46959  1.0000
  C   C942      1.0  0.33004  0.50985  0.29774  1.0000
  C   C943      1.0  0.31414  0.52417  0.30774  1.0000
  C   C944      1.0  0.31289  0.52412  0.32874  1.0000
  C   C945      1.0  0.32735  0.50954  0.33988  1.0000
  C   C946      1.0  0.34336  0.49527  0.32990  1.0000
  C   C947      1.0  0.35420  0.45402  0.30158  1.0000
  C   C948      1.0  0.35677  0.43845  0.31990  1.0000
  C   C949      1.0  0.34809  0.42050  0.32450  1.0000
  C   C950      1.0  0.33655  0.41807  0.31108  1.0000
  C   C951      1.0  0.33315  0.43393  0.29328  1.0000
  C   C952      1.0  0.34174  0.45199  0.28866  1.0000
  H   H752      1.0  0.41696  0.49026  0.32928  1.0000
  H   H753      1.0  0.43958  0.45456  0.32995  1.0000
  H   H754      1.0  0.43169  0.42977  0.31308  1.0000
  H   H755      1.0  0.39977  0.43944  0.29792  1.0000
  H   H756      1.0  0.38543  0.50060  0.31325  1.0000
  H   H757      1.0  0.36974  0.51960  0.27176  1.0000
  C   C953      1.0  0.44762  0.34201  0.29438  1.0000
  H   H758      1.0  0.37972  0.45786  0.25869  1.0000
  H   H759      1.0  0.33065  0.51011  0.28149  1.0000
  H   H760      1.0  0.30300  0.53560  0.29910  1.0000
  H   H761      1.0  0.30089  0.53558  0.33626  1.0000
  H   H762      1.0  0.32651  0.50973  0.35608  1.0000
  H   H763      1.0  0.35453  0.48417  0.33872  1.0000
  H   H764      1.0  0.36554  0.44003  0.33066  1.0000
  H   H765      1.0  0.35053  0.40833  0.33844  1.0000
  H   H766      1.0  0.33029  0.40385  0.31458  1.0000
  C   C954      1.0  0.19029  0.34827  0.27163  1.0000
  H   H767      1.0  0.33868  0.46432  0.27505  1.0000
  C   C955      1.0  0.41096  0.45387  0.45277  1.0000
  H   H768      1.0  0.47964  0.51043  0.42685  1.0000
  C   C956      1.0  0.38011  0.38196  0.45933  1.0000
  C   C957      1.0  0.22696  0.60632  0.30060  1.0000
  H   H769      1.0  0.45127  0.54226  0.27535  1.0000
  H   H770      1.0  0.24242  0.51247  0.24876  1.0000
  S   S140      1.0  0.27492  0.56317  0.27044  1.0000
  C   C958      1.0  0.31714  0.53130  0.45288  1.0000
  H   H771      1.0  0.19578  0.62658  0.26427  1.0000
  H   H772      1.0  0.46434  0.37324  0.41767  1.0000
  H   H773      1.0  0.19315  0.34041  0.24194  1.0000
  C   C959      1.0  0.36176  0.32750  0.40351  1.0000
  H   H774      1.0  0.46877  0.63718  0.27269  1.0000
  S   S141      1.0  0.33614  0.55883  0.25718  1.0000
  C   C960      1.0  0.45502  0.50937  0.29090  1.0000
  H   H775      1.0  0.43941  0.32849  0.47337  1.0000
  H   H776      1.0  0.48023  0.41302  0.37404  1.0000
  C   C961      1.0  0.37923  0.47467  0.25340  1.0000
  C   C962      1.0  0.47067  0.59784  0.34460  1.0000
  C   C963      1.0  0.32847  0.45309  0.47624  1.0000
  C   C964      1.0  0.27647  0.61053  0.33648  1.0000
  C   C965      1.0  0.43527  0.36221  0.29485  1.0000
  H   H777      1.0  0.46923  0.39790  0.34995  1.0000
  C   C966      1.0  0.35109  0.50472  0.46982  1.0000
  H   H778      1.0  0.32653  0.55644  0.46023  1.0000
  H   H779      1.0  0.45783  0.58243  0.31456  1.0000
  C   C967      1.0  0.48413  0.42999  0.44197  1.0000
  C   C968      1.0  0.27774  0.57409  0.35474  1.0000
  C   C969      1.0  0.26804  0.32577  0.24816  1.0000
  C   C970      1.0  0.43483  0.53158  0.33411  1.0000
  C   C971      1.0  0.16349  0.61234  0.25410  1.0000
  C   C972      1.0  0.47588  0.57412  0.45026  1.0000
  H   H780      1.0  0.42815  0.51754  0.34047  1.0000
  P   P33       1.0  0.34675  0.46897  0.45871  1.0000
  C   C973      1.0  0.22674  0.53603  0.31646  1.0000
  C   C974      1.0  0.34757  0.44663  0.40756  1.0000
  S   S142      1.0  0.15143  0.63302  0.28663  1.0000
  S   S143      1.0  0.40637  0.33682  0.42491  1.0000
  C   C975      1.0  0.39081  0.46019  0.44804  1.0000
  H   H781      1.0  0.23604  0.56746  0.25789  1.0000
  H   H782      1.0  0.25052  0.62507  0.32099  1.0000
  H   H783      1.0  0.46263  0.47729  0.30728  1.0000
  H   H784      1.0  0.39279  0.35730  0.27909  1.0000
  C   C976      1.0  0.15146  0.65028  0.24495  1.0000
  H   H785      1.0  0.27149  0.64448  0.26867  1.0000
  C   C977      1.0  0.32957  0.53961  0.46106  1.0000
  C   C978      1.0  0.41328  0.44551  0.47356  1.0000
  Fe  Fe72      1.0  0.30336  0.57684  0.26610  1.0000
  C   C979      1.0  0.25794  0.61081  0.33045  1.0000
  C   C980      1.0  0.33897  0.49626  0.46122  1.0000
  C   C981      1.0  0.24909  0.59276  0.33644  1.0000
  C   C982      1.0  0.44446  0.37307  0.46970  1.0000
  C   C983      1.0  0.34822  0.48515  0.41567  1.0000
  P   P34       1.0  0.27562  0.47559  0.23832  1.0000
  C   C984      1.0  0.15545  0.63179  0.26017  1.0000
  C   C985      1.0  0.16651  0.63149  0.36490  1.0000
  C   C986      1.0  0.24669  0.60637  0.28683  1.0000
  C   C987      1.0  0.20247  0.60792  0.34306  1.0000
  C   C988      1.0  0.27777  0.32674  0.34356  1.0000
  C   C989      1.0  0.27971  0.46677  0.29995  1.0000
  C   C990      1.0  0.42348  0.40079  0.44786  1.0000
  H   H786      1.0  0.23184  0.52866  0.30301  1.0000
  C   C991      1.0  0.16454  0.61506  0.35693  1.0000
  H   H787      1.0  0.19305  0.61378  0.30235  1.0000
  C   C992      1.0  0.32178  0.50972  0.45296  1.0000
  C   C993      1.0  0.28007  0.50349  0.28366  1.0000
  C   C994      1.0  0.46873  0.41253  0.47684  1.0000
  C   C995      1.0  0.34773  0.48394  0.39546  1.0000
  C   C996      1.0  0.45432  0.53174  0.33788  1.0000
  C   C997      1.0  0.34743  0.46468  0.39139  1.0000
  H   H788      1.0  0.31259  0.50375  0.44565  1.0000
  H   H789      1.0  0.40554  0.38310  0.29053  1.0000
  P   P35       1.0  0.22530  0.59338  0.32799  1.0000
  H   H790      1.0  0.26672  0.33526  0.33341  1.0000
  C   C998      1.0  0.38760  0.37171  0.44236  1.0000
  H   H791      1.0  0.45955  0.61024  0.33692  1.0000
  H   H792      1.0  0.40987  0.41357  0.44638  1.0000
  C   C999      1.0  0.42327  0.54998  0.32356  1.0000
  H   H793      1.0  0.21920  0.62926  0.34818  1.0000
  C   C1000     1.0  0.40529  0.59051  0.23934  1.0000
  C   C1001     1.0  0.45129  0.56834  0.31947  1.0000
  C   C1002     1.0  0.43696  0.39477  0.42990  1.0000
  C   C1003     1.0  0.34745  0.44790  0.42794  1.0000
  C   C1004     1.0  0.25920  0.57430  0.34863  1.0000
  H   H794      1.0  0.48048  0.33125  0.26082  1.0000
  H   H795      1.0  0.24709  0.36684  0.27272  1.0000
  C   C1005     1.0  0.18241  0.60335  0.34601  1.0000
  C   C1006     1.0  0.40834  0.35322  0.28285  1.0000
  H   H796      1.0  0.16679  0.59805  0.26584  1.0000
  H   H797      1.0  0.35660  0.53287  0.47520  1.0000
  C   C1007     1.0  0.43062  0.64271  0.31651  1.0000
  C   C1008     1.0  0.37975  0.51778  0.23926  1.0000
  H   H798      1.0  0.33176  0.33193  0.36845  1.0000
  H   H799      1.0  0.20532  0.52579  0.36883  1.0000
  C   C1009     1.0  0.20855  0.61382  0.29230  1.0000
  C   C1010     1.0  0.21379  0.55532  0.35097  1.0000
  H   H800      1.0  0.38932  0.46702  0.43187  1.0000
  C   C1011     1.0  0.41552  0.36775  0.28931  1.0000
  H   H801      1.0  0.40761  0.62335  0.33068  1.0000
  C   C1012     1.0  0.45411  0.37779  0.43177  1.0000
  H   H802      1.0  0.15259  0.64094  0.37285  1.0000
  C   C1013     1.0  0.22859  0.55689  0.31389  1.0000
  C   C1014     1.0  0.38728  0.58954  0.34282  1.0000
  C   C1015     1.0  0.34939  0.60211  0.34737  1.0000
  C   C1016     1.0  0.38282  0.37102  0.47965  1.0000
  C   C1017     1.0  0.26455  0.33813  0.26298  1.0000
  H   H803      1.0  0.35069  0.35278  0.37906  1.0000
  H   H804      1.0  0.30075  0.59215  0.35313  1.0000
  C   C1018     1.0  0.28635  0.59222  0.34864  1.0000
  H   H805      1.0  0.40757  0.55010  0.32205  1.0000
  H   H806      1.0  0.37242  0.61027  0.29552  1.0000
  P   P36       1.0  0.47840  0.34319  0.45434  1.0000
  H   H807      1.0  0.48674  0.49738  0.38366  1.0000
  H   H808      1.0  0.42475  0.45573  0.44030  1.0000
  H   H809      1.0  0.26325  0.61303  0.25471  1.0000
  H   H810      1.0  0.33742  0.61545  0.31881  1.0000
  C   C1019     1.0  0.46755  0.42133  0.45582  1.0000
  C   C1020     1.0  0.19321  0.34063  0.29229  1.0000
  H   H811      1.0  0.14908  0.61179  0.35867  1.0000
  C   C1021     1.0  0.20423  0.62466  0.35089  1.0000
  H   H812      1.0  0.40103  0.58236  0.34985  1.0000
  C   C1022     1.0  0.42041  0.62662  0.31748  1.0000
  H   H813      1.0  0.18421  0.36487  0.26618  1.0000
  C   C1023     1.0  0.38943  0.59588  0.32088  1.0000
  H   H814      1.0  0.32390  0.43216  0.28309  1.0000
  C   C1024     1.0  0.36733  0.59262  0.35598  1.0000
  C   C1025     1.0  0.35075  0.33650  0.38722  1.0000
  C   C1026     1.0  0.22216  0.56669  0.33112  1.0000
  C   C1027     1.0  0.21834  0.52481  0.33625  1.0000
  H   H815      1.0  0.34833  0.43153  0.40413  1.0000
  C   C1028     1.0  0.33992  0.32453  0.38127  1.0000
  C   C1029     1.0  0.24981  0.35724  0.26134  1.0000
  C   C1030     1.0  0.43715  0.52173  0.47946  1.0000
  H   H816      1.0  0.47228  0.55603  0.38626  1.0000
  C   C1031     1.0  0.27646  0.48008  0.26337  1.0000
  C   C1032     1.0  0.24796  0.61367  0.26518  1.0000
  H   H817      1.0  0.34807  0.46349  0.37553  1.0000
  C   C1033     1.0  0.37285  0.45823  0.46419  1.0000
  C   C1034     1.0  0.40975  0.57271  0.27472  1.0000
  H   H818      1.0  0.33396  0.60428  0.35764  1.0000
  C   C1035     1.0  0.39913  0.33915  0.46620  1.0000
  H   H819      1.0  0.31757  0.48066  0.23943  1.0000
  H   H820      1.0  0.34778  0.43366  0.44014  1.0000
  H   H821      1.0  0.42551  0.65163  0.32880  1.0000
  H   H822      1.0  0.41698  0.39487  0.48168  1.0000
  H   H823      1.0  0.28111  0.51903  0.28460  1.0000
  C   C1036     1.0  0.26986  0.56032  0.24724  1.0000
  S   S144      1.0  0.30918  0.60745  0.24408  1.0000
  C   C1037     1.0  0.39241  0.34959  0.48303  1.0000
  H   H824      1.0  0.27757  0.51321  0.25127  1.0000
  C   C1038     1.0  0.27789  0.50015  0.26481  1.0000
  C   C1039     1.0  0.47930  0.42084  0.32240  1.0000
  C   C1040     1.0  0.23857  0.36397  0.24505  1.0000
  H   H825      1.0  0.44011  0.50777  0.28861  1.0000
  C   C1041     1.0  0.47608  0.41183  0.34388  1.0000
  S   S145      1.0  0.30992  0.64455  0.28175  1.0000
  C   C1042     1.0  0.42742  0.39016  0.46774  1.0000
  H   H826      1.0  0.48561  0.47200  0.43104  1.0000
  C   C1043     1.0  0.46345  0.32882  0.42681  1.0000
  C   C1044     1.0  0.24893  0.56261  0.24553  1.0000
  C   C1045     1.0  0.48205  0.42054  0.35750  1.0000
  C   C1046     1.0  0.26717  0.65212  0.28184  1.0000
  H   H827      1.0  0.34655  0.32453  0.29595  1.0000
  H   H828      1.0  0.46525  0.58002  0.48118  1.0000
  H   H829      1.0  0.42878  0.44107  0.47734  1.0000
  H   H830      1.0  0.48496  0.54620  0.28130  1.0000
  C   C1047     1.0  0.28299  0.65461  0.29060  1.0000
  C   C1048     1.0  0.44793  0.64663  0.30028  1.0000
  C   C1049     1.0  0.47787  0.56729  0.37243  1.0000
  H   H831      1.0  0.39649  0.32379  0.33941  1.0000
  C   C1050     1.0  0.33541  0.43121  0.48282  1.0000
  C   C1051     1.0  0.29942  0.32553  0.33572  1.0000
  H   H832      1.0  0.36474  0.49502  0.47583  1.0000
  C   C1052     1.0  0.40741  0.60933  0.24295  1.0000
  Fe  Fe73      1.0  0.34289  0.58996  0.23766  1.0000
  C   C1053     1.0  0.23750  0.50558  0.23853  1.0000
  C   C1054     1.0  0.48656  0.41240  0.48400  1.0000
  H   H833      1.0  0.02007  0.32653  0.24315  1.0000
  C   C1055     1.0  0.28067  0.44754  0.23938  1.0000
  H   H834      1.0  0.35177  0.42380  0.47799  1.0000
  H   H835      1.0  0.30117  0.47883  0.47775  1.0000
  C   C1056     1.0  0.47056  0.32535  0.47888  1.0000
  H   H836      1.0  0.18780  0.64966  0.36714  1.0000
  C   C1057     1.0  0.19526  0.33448  0.25800  1.0000
  C   C1058     1.0  0.30707  0.46209  0.48264  1.0000
  S   S146      1.0  0.27820  0.33022  0.28379  1.0000
  C   C1059     1.0  0.44047  0.32724  0.28803  1.0000
  H   H837      1.0  0.30507  0.33301  0.31952  1.0000
  C   C1060     1.0  0.37535  0.45006  0.48506  1.0000
  H   H838      1.0  0.44723  0.36498  0.48525  1.0000
  H   H839      1.0  0.18998  0.39230  0.23678  1.0000
  H   H840      1.0  0.40612  0.32247  0.46899  1.0000
  Fe  Fe74      1.0  0.42133  0.53018  0.59403  1.0000
  S   S147      1.0  0.45364  0.53200  0.57413  1.0000
  S   S148      1.0  0.39749  0.56096  0.59517  1.0000
  Fe  Fe75      1.0  0.43248  0.48229  0.60715  1.0000
  S   S149      1.0  0.46592  0.48024  0.58906  1.0000
  S   S150      1.0  0.41893  0.45454  0.62805  1.0000
  Fe  Fe76      1.0  0.46551  0.50855  0.60106  1.0000
  C   C1061     1.0  0.44130  0.56854  0.53362  1.0000
  Fe  Fe77      1.0  0.45137  0.50390  0.56360  1.0000
  S   S151      1.0  0.46441  0.50005  0.53022  1.0000
  S   S152      1.0  0.43342  0.50835  0.62181  1.0000
  S   S153      1.0  0.41778  0.50406  0.58087  1.0000
  Fe  Fe78      1.0  0.39510  0.38348  0.56666  1.0000
  S   S154      1.0  0.40781  0.39579  0.53254  1.0000
  S   S155      1.0  0.37654  0.40292  0.59045  1.0000
  Fe  Fe79      1.0  0.39228  0.37262  0.52660  1.0000
  C   C1062     1.0  0.33136  0.35105  0.54245  1.0000
  Fe  Fe80      1.0  0.43480  0.36827  0.53672  1.0000
  S   S156      1.0  0.37741  0.36227  0.56055  1.0000
  S   S157      1.0  0.42365  0.35801  0.57138  1.0000
  Fe  Fe81      1.0  0.36746  0.62835  0.67968  1.0000
  S   S158      1.0  0.37790  0.59357  0.67964  1.0000
  H   H841      1.0  0.31746  0.42824  0.59438  1.0000
  H   H842      1.0  0.46090  0.37991  0.56104  1.0000
  C   C1063     1.0  0.29170  0.62180  0.66456  1.0000
  H   H843      1.0  0.31138  0.65089  0.63127  1.0000
  H   H844      1.0  0.30759  0.63325  0.72278  1.0000
  H   H845      1.0  0.26354  0.37340  0.61911  1.0000
  H   H846      1.0  0.29400  0.42193  0.57458  1.0000
  C   C1064     1.0  0.30143  0.32956  0.57120  1.0000
  C   C1065     1.0  0.30071  0.40912  0.58614  1.0000
  H   H847      1.0  0.23056  0.62541  0.72990  1.0000
  H   H848      1.0  0.26305  0.34843  0.69221  1.0000
  C   C1066     1.0  0.40841  0.43977  0.61682  1.0000
  C   C1067     1.0  0.41607  0.43739  0.59597  1.0000
  C   C1068     1.0  0.40702  0.42536  0.58774  1.0000
  C   C1069     1.0  0.39002  0.41623  0.60027  1.0000
  C   C1070     1.0  0.38266  0.41848  0.62110  1.0000
  C   C1071     1.0  0.39208  0.42984  0.62944  1.0000
  H   H849      1.0  0.42899  0.44472  0.58631  1.0000
  H   H850      1.0  0.41281  0.42363  0.57162  1.0000
  H   H851      1.0  0.36956  0.41148  0.63085  1.0000
  H   H852      1.0  0.38625  0.43148  0.64558  1.0000
  C   C1072     1.0  0.44669  0.51349  0.51361  1.0000
  S   S159      1.0  0.37384  0.38438  0.50058  1.0000
  C   C1073     1.0  0.45486  0.58487  0.60384  1.0000
  C   C1074     1.0  0.42698  0.52489  0.52163  1.0000
  C   C1075     1.0  0.24050  0.35386  0.63155  1.0000
  H   H853      1.0  0.42287  0.52601  0.53791  1.0000
  C   C1076     1.0  0.39093  0.56973  0.61898  1.0000
  C   C1077     1.0  0.39480  0.55585  0.63775  1.0000
  C   C1078     1.0  0.39017  0.56330  0.65634  1.0000
  C   C1079     1.0  0.38203  0.58479  0.65623  1.0000
  C   C1080     1.0  0.37755  0.59864  0.63762  1.0000
  C   C1081     1.0  0.38167  0.59100  0.61915  1.0000
  H   H854      1.0  0.40119  0.53933  0.63806  1.0000
  H   H855      1.0  0.39337  0.55245  0.67076  1.0000
  H   H856      1.0  0.37090  0.61517  0.63747  1.0000
  H   H857      1.0  0.37782  0.60157  0.60491  1.0000
  H   H858      1.0  0.45786  0.35921  0.62238  1.0000
  C   C1082     1.0  0.41239  0.53472  0.50866  1.0000
  H   H859      1.0  0.48733  0.64136  0.59768  1.0000
  H   H860      1.0  0.48370  0.43297  0.55106  1.0000
  C   C1083     1.0  0.30604  0.37202  0.60391  1.0000
  H   H861      1.0  0.44317  0.54502  0.64555  1.0000
  C   C1084     1.0  0.31999  0.60840  0.68406  1.0000
  H   H862      1.0  0.33376  0.36240  0.56834  1.0000
  H   H863      1.0  0.18782  0.35211  0.67921  1.0000
  C   C1085     1.0  0.45571  0.59302  0.54361  1.0000
  H   H864      1.0  0.44737  0.45096  0.65882  1.0000
  P   P37       1.0  0.30396  0.34531  0.60512  1.0000
  C   C1086     1.0  0.34428  0.32555  0.61238  1.0000
  H   H865      1.0  0.46196  0.58696  0.58730  1.0000
  H   H866      1.0  0.28732  0.38607  0.58000  1.0000
  H   H867      1.0  0.48748  0.40557  0.50032  1.0000
  C   C1087     1.0  0.41089  0.62903  0.58672  1.0000
  H   H868      1.0  0.47210  0.47563  0.64898  1.0000
  H   H869      1.0  0.23118  0.60685  0.62941  1.0000
  C   C1088     1.0  0.30003  0.42763  0.50180  1.0000
  C   C1089     1.0  0.29686  0.38885  0.58936  1.0000
  H   H870      1.0  0.46270  0.54987  0.51255  1.0000
  C   C1090     1.0  0.46094  0.64461  0.55590  1.0000
  P   P38       1.0  0.44757  0.62895  0.59891  1.0000
  H   H871      1.0  0.45364  0.60489  0.55247  1.0000
  C   C1091     1.0  0.32248  0.32701  0.62019  1.0000
  H   H872      1.0  0.48612  0.38026  0.58221  1.0000
  C   C1092     1.0  0.24835  0.63378  0.69834  1.0000
  H   H873      1.0  0.13929  0.35507  0.64712  1.0000
  C   C1093     1.0  0.42439  0.36818  0.62544  1.0000
  P   P39       1.0  0.27051  0.64295  0.65659  1.0000
  C   C1094     1.0  0.44439  0.33261  0.62360  1.0000
  C   C1095     1.0  0.32264  0.39621  0.61216  1.0000
  C   C1096     1.0  0.45367  0.56439  0.61544  1.0000
  C   C1097     1.0  0.31381  0.41274  0.59736  1.0000
  H   H874      1.0  0.33319  0.39895  0.62050  1.0000
  S   S160      1.0  0.35027  0.63650  0.71073  1.0000
  H   H875      1.0  0.28909  0.41775  0.51152  1.0000
  S   S161      1.0  0.46830  0.36875  0.52044  1.0000
  C   C1098     1.0  0.44427  0.56093  0.63675  1.0000
  H   H876      1.0  0.24468  0.61391  0.65709  1.0000
  C   C1099     1.0  0.24859  0.62259  0.64101  1.0000
  H   H877      1.0  0.35020  0.33419  0.59683  1.0000
  C   C1100     1.0  0.41721  0.53271  0.48772  1.0000
  C   C1101     1.0  0.24092  0.61856  0.62537  1.0000
  C   C1102     1.0  0.24772  0.64568  0.67783  1.0000
  C   C1103     1.0  0.44652  0.60220  0.61358  1.0000
  C   C1104     1.0  0.26114  0.63781  0.63598  1.0000
  H   H878      1.0  0.33929  0.57804  0.68029  1.0000
  H   H879      1.0  0.45591  0.40571  0.48763  1.0000
  C   C1105     1.0  0.46265  0.44740  0.64856  1.0000
  C   C1106     1.0  0.47647  0.46134  0.64292  1.0000
  C   C1107     1.0  0.40629  0.34103  0.62621  1.0000
  H   H880      1.0  0.39729  0.43744  0.50582  1.0000
  C   C1108     1.0  0.30306  0.62426  0.67824  1.0000
  S   S162      1.0  0.34613  0.65373  0.66101  1.0000
  H   H881      1.0  0.32614  0.36339  0.62679  1.0000
  H   H882      1.0  0.36176  0.44903  0.49784  1.0000
  C   C1109     1.0  0.15059  0.32446  0.66542  1.0000
  C   C1110     1.0  0.29780  0.60341  0.65644  1.0000
  C   C1111     1.0  0.44367  0.35370  0.62377  1.0000
  H   H883      1.0  0.32606  0.33706  0.51952  1.0000
  H   H884      1.0  0.19693  0.64838  0.72202  1.0000
  C   C1112     1.0  0.32128  0.41857  0.49552  1.0000
  H   H885      1.0  0.29892  0.63857  0.68424  1.0000
  H   H886      1.0  0.41748  0.61259  0.58616  1.0000
  H   H887      1.0  0.45730  0.41856  0.64465  1.0000
  H   H888      1.0  0.28969  0.60123  0.64550  1.0000
  C   C1113     1.0  0.31107  0.34201  0.57813  1.0000
  H   H889      1.0  0.39718  0.54356  0.51502  1.0000
  H   H890      1.0  0.26288  0.62382  0.70237  1.0000
  H   H891      1.0  0.42385  0.64764  0.63510  1.0000
  H   H892      1.0  0.39188  0.33636  0.62652  1.0000
  H   H893      1.0  0.47565  0.59104  0.64596  1.0000
  C   C1114     1.0  0.46615  0.62985  0.57394  1.0000
  H   H894      1.0  0.42859  0.61146  0.64270  1.0000
  C   C1115     1.0  0.24573  0.62968  0.60459  1.0000
  C   C1116     1.0  0.30665  0.32800  0.55010  1.0000
  C   C1117     1.0  0.32592  0.59013  0.67600  1.0000
  C   C1118     1.0  0.43874  0.58383  0.54510  1.0000
  C   C1119     1.0  0.43555  0.57804  0.64647  1.0000
  C   C1120     1.0  0.27745  0.34086  0.61699  1.0000
  C   C1121     1.0  0.17821  0.32245  0.68368  1.0000
  C   C1122     1.0  0.26085  0.35756  0.62215  1.0000
  S   S163      1.0  0.42048  0.34609  0.52786  1.0000
  C   C1123     1.0  0.48534  0.36909  0.53609  1.0000
  H   H895      1.0  0.22712  0.36124  0.71193  1.0000
  H   H896      1.0  0.48814  0.59426  0.52977  1.0000
  H   H897      1.0  0.39427  0.34093  0.49868  1.0000
  C   C1124     1.0  0.21096  0.64744  0.70960  1.0000
  C   C1125     1.0  0.43999  0.64974  0.63180  1.0000
  C   C1126     1.0  0.41820  0.47634  0.50372  1.0000
  C   C1127     1.0  0.43359  0.46914  0.51599  1.0000
  C   C1128     1.0  0.42768  0.46736  0.53772  1.0000
  C   C1129     1.0  0.40639  0.47267  0.54724  1.0000
  C   C1130     1.0  0.39078  0.47972  0.53505  1.0000
  C   C1131     1.0  0.39685  0.48119  0.51324  1.0000
  P   P40       1.0  0.36309  0.48494  0.54736  1.0000
  C   C1132     1.0  0.35182  0.46500  0.54329  1.0000
  C   C1133     1.0  0.36056  0.48341  0.57503  1.0000
  C   C1134     1.0  0.35323  0.46673  0.59049  1.0000
  C   C1135     1.0  0.35169  0.46597  0.61176  1.0000
  C   C1136     1.0  0.35778  0.48156  0.61771  1.0000
  C   C1137     1.0  0.36488  0.49829  0.60244  1.0000
  C   C1138     1.0  0.36618  0.49928  0.58118  1.0000
  C   C1139     1.0  0.33325  0.47037  0.53533  1.0000
  C   C1140     1.0  0.32467  0.45455  0.53265  1.0000
  C   C1141     1.0  0.33467  0.43335  0.53765  1.0000
  C   C1142     1.0  0.35332  0.42797  0.54521  1.0000
  C   C1143     1.0  0.36197  0.44370  0.54786  1.0000
  C   C1144     1.0  0.34931  0.51133  0.53755  1.0000
  C   C1145     1.0  0.35927  0.52523  0.52070  1.0000
  C   C1146     1.0  0.34865  0.54594  0.51415  1.0000
  C   C1147     1.0  0.32796  0.55292  0.52430  1.0000
  C   C1148     1.0  0.31792  0.53923  0.54119  1.0000
  C   C1149     1.0  0.32859  0.51856  0.54788  1.0000
  C   C1150     1.0  0.43633  0.59858  0.63489  1.0000
  H   H898      1.0  0.45018  0.46571  0.50862  1.0000
  H   H899      1.0  0.43971  0.46245  0.54713  1.0000
  H   H900      1.0  0.40231  0.47121  0.56408  1.0000
  H   H901      1.0  0.38513  0.48638  0.50353  1.0000
  H   H902      1.0  0.34907  0.45408  0.58633  1.0000
  H   H903      1.0  0.34644  0.45288  0.62362  1.0000
  H   H904      1.0  0.35738  0.48049  0.63413  1.0000
  H   H905      1.0  0.36984  0.51028  0.60703  1.0000
  H   H906      1.0  0.37207  0.51219  0.56950  1.0000
  H   H907      1.0  0.32540  0.48667  0.53106  1.0000
  H   H908      1.0  0.31032  0.45875  0.52661  1.0000
  H   H909      1.0  0.32817  0.42103  0.53555  1.0000
  H   H910      1.0  0.36104  0.41153  0.54917  1.0000
  H   H911      1.0  0.37644  0.43921  0.55382  1.0000
  H   H912      1.0  0.37533  0.52040  0.51273  1.0000
  C   C1151     1.0  0.25027  0.34063  0.69372  1.0000
  C   C1152     1.0  0.29292  0.44939  0.49536  1.0000
  H   H913      1.0  0.30199  0.54473  0.54929  1.0000
  H   H914      1.0  0.32080  0.50824  0.56128  1.0000
  H   H915      1.0  0.42367  0.58823  0.55539  1.0000
  H   H916      1.0  0.16314  0.37257  0.65616  1.0000
  C   C1153     1.0  0.40571  0.36180  0.62680  1.0000
  C   C1154     1.0  0.15012  0.34600  0.65731  1.0000
  H   H917      1.0  0.42816  0.56132  0.53495  1.0000
  C   C1155     1.0  0.47546  0.64644  0.61060  1.0000
  H   H918      1.0  0.34329  0.35905  0.53140  1.0000
  H   H919      1.0  0.48583  0.61394  0.66338  1.0000
  C   C1156     1.0  0.29116  0.63948  0.72843  1.0000
  H   H920      1.0  0.35666  0.55660  0.50124  1.0000
  C   C1157     1.0  0.47526  0.58691  0.53070  1.0000
  H   H921      1.0  0.23974  0.62659  0.59248  1.0000
  H   H922      1.0  0.42744  0.57545  0.66283  1.0000
  C   C1158     1.0  0.46826  0.42911  0.64051  1.0000
  Fe  Fe82      1.0  0.40715  0.33767  0.56236  1.0000
  C   C1159     1.0  0.32163  0.33871  0.53574  1.0000
  H   H923      1.0  0.22779  0.36678  0.63553  1.0000
  H   H924      1.0  0.42392  0.38451  0.62529  1.0000
  H   H925      1.0  0.48823  0.43267  0.58599  1.0000
  H   H926      1.0  0.32878  0.61039  0.69457  1.0000
  H   H927      1.0  0.31981  0.57362  0.65566  1.0000
  C   C1160     1.0  0.45199  0.51231  0.49237  1.0000
  H   H928      1.0  0.39082  0.37306  0.62780  1.0000
  C   C1161     1.0  0.47801  0.57147  0.51915  1.0000
  C   C1162     1.0  0.31489  0.58766  0.66214  1.0000
  C   C1163     1.0  0.17757  0.34414  0.67555  1.0000
  C   C1164     1.0  0.46092  0.56207  0.52102  1.0000
  C   C1165     1.0  0.45479  0.64292  0.61472  1.0000
  H   H929      1.0  0.45972  0.55107  0.60791  1.0000
  C   C1166     1.0  0.22998  0.63458  0.71407  1.0000
  C   C1167     1.0  0.31869  0.37596  0.61556  1.0000
  C   C1168     1.0  0.47771  0.37508  0.55546  1.0000
  C   C1169     1.0  0.42552  0.32652  0.62445  1.0000
  H   H930      1.0  0.31985  0.56902  0.51923  1.0000
  C   C1170     1.0  0.32608  0.35273  0.56349  1.0000
  C   C1171     1.0  0.16358  0.35584  0.66240  1.0000
  C   C1172     1.0  0.25824  0.64482  0.59944  1.0000
  H   H931      1.0  0.19816  0.34303  0.71582  1.0000
  C   C1173     1.0  0.42156  0.64075  0.59336  1.0000
  S   S164      1.0  0.39160  0.64791  0.67464  1.0000
  H   H932      1.0  0.42287  0.47860  0.48678  1.0000
  H   H933      1.0  0.32695  0.40168  0.50038  1.0000
  C   C1174     1.0  0.21372  0.33742  0.70701  1.0000
  C   C1175     1.0  0.48755  0.42496  0.62652  1.0000
  H   H934      1.0  0.22081  0.33068  0.64319  1.0000
  H   H935      1.0  0.48723  0.54616  0.57766  1.0000
  C   C1176     1.0  0.23656  0.33351  0.63591  1.0000
  C   C1177     1.0  0.26595  0.64889  0.61504  1.0000
  C   C1178     1.0  0.48641  0.61686  0.57256  1.0000
  H   H936      1.0  0.27640  0.45641  0.50009  1.0000
  H   H937      1.0  0.38344  0.62940  0.57545  1.0000
  C   C1179     1.0  0.39155  0.63849  0.58065  1.0000
  C   C1180     1.0  0.47550  0.64586  0.53672  1.0000
  C   C1181     1.0  0.23006  0.34779  0.70483  1.0000
  C   C1182     1.0  0.39550  0.44351  0.48967  1.0000
  H   H938      1.0  0.46730  0.50355  0.48610  1.0000
  C   C1183     1.0  0.25413  0.32304  0.68494  1.0000
  H   H939      1.0  0.26195  0.65347  0.58334  1.0000
  H   H940      1.0  0.44564  0.65518  0.55649  1.0000
  H   H941      1.0  0.08205  0.43702  0.97532  1.0000
  H   H942      1.0  0.08162  0.60095  0.94281  1.0000
  H   H943      1.0  0.02091  0.58047  0.95914  1.0000
  C   C1184     1.0  0.00405  0.49950  0.88518  1.0000
  H   H944      1.0  0.07060  0.59103  0.98137  1.0000
  S   S165      1.0  0.03954  0.34141  0.87337  1.0000
  H   H945      1.0  0.07973  0.37052  0.94750  1.0000
  C   C1185     1.0  0.05444  0.52520  0.97388  1.0000
  H   H946      1.0  0.99179  0.55218  0.90335  1.0000
  Fe  Fe83      1.0  0.05545  0.35534  0.89011  1.0000
  S   S166      1.0  0.04323  0.38950  0.89153  1.0000
  H   H947      1.0  0.99066  0.61093  0.95708  1.0000
  P   P41       1.0  0.01807  0.51071  0.97665  1.0000
  Fe  Fe84      1.0  0.09711  0.48988  0.91472  1.0000
  S   S167      1.0  0.09284  0.52480  0.90191  1.0000
  S   S168      1.0  0.09479  0.47375  0.94898  1.0000
  Fe  Fe85      1.0  0.09786  0.48080  0.87235  1.0000
  S   S169      1.0  0.09305  0.51513  0.85623  1.0000
  S   S170      1.0  0.10357  0.45493  0.85469  1.0000
  Fe  Fe86      1.0  0.11695  0.51660  0.87357  1.0000
  S   S171      1.0  0.14645  0.52971  0.85787  1.0000
  Fe  Fe87      1.0  0.06929  0.52017  0.88588  1.0000
  S   S172      1.0  0.03673  0.54134  0.88862  1.0000
  S   S173      1.0  0.12327  0.48183  0.88790  1.0000
  S   S174      1.0  0.07222  0.48574  0.90047  1.0000
  H   H948      1.0  0.18921  0.55543  0.87389  1.0000
  C   C1186     1.0  0.03862  0.53735  0.94318  1.0000
  H   H949      1.0  0.37381  0.61227  0.83450  1.0000
  S   S175      1.0  0.05026  0.33159  0.92053  1.0000
  C   C1187     1.0  0.13485  0.37665  0.97488  1.0000
  C   C1188     1.0  0.00633  0.53523  0.76598  1.0000
  H   H950      1.0  0.18208  0.51953  0.88998  1.0000
  H   H951      1.0  0.03669  0.50242  0.87755  1.0000
  H   H952      1.0  0.16354  0.58653  0.88330  1.0000
  C   C1189     1.0  0.14449  0.55718  0.84878  1.0000
  C   C1190     1.0  0.12489  0.57104  0.85064  1.0000
  C   C1191     1.0  0.12380  0.59297  0.84462  1.0000
  C   C1192     1.0  0.16296  0.56531  0.84001  1.0000
  H   H953      1.0  0.11064  0.56478  0.85676  1.0000
  H   H954      1.0  0.10859  0.60367  0.84633  1.0000
  C   C1193     1.0  0.16033  0.57105  0.89122  1.0000
  C   C1194     1.0  0.04524  0.36492  0.81950  1.0000
  C   C1195     1.0  0.12127  0.51127  0.96815  1.0000
  C   C1196     1.0  0.11396  0.50236  0.95548  1.0000
  C   C1197     1.0  0.10347  0.48560  0.96457  1.0000
  C   C1198     1.0  0.13777  0.54812  0.91530  1.0000
  C   C1199     1.0  0.02122  0.47830  0.93192  1.0000
  H   H955      1.0  0.12956  0.52413  0.96108  1.0000
  H   H956      1.0  0.11645  0.50831  0.93867  1.0000
  C   C1200     1.0  0.14810  0.35107  0.84521  1.0000
  H   H957      1.0  0.01713  0.54605  0.76075  1.0000
  C   C1201     1.0  0.06066  0.40699  0.88157  1.0000
  C   C1202     1.0  0.07968  0.40220  0.86745  1.0000
  C   C1203     1.0  0.09269  0.41715  0.85902  1.0000
  C   C1204     1.0  0.08686  0.43666  0.86499  1.0000
  C   C1205     1.0  0.06787  0.44132  0.87915  1.0000
  C   C1206     1.0  0.05479  0.42655  0.88739  1.0000
  H   H958      1.0  0.08414  0.38717  0.86280  1.0000
  H   H959      1.0  0.10727  0.41368  0.84790  1.0000
  H   H960      1.0  0.06297  0.45649  0.88339  1.0000
  H   H961      1.0  0.03996  0.43038  0.89815  1.0000
  H   H962      1.0  0.02438  0.51494  0.74483  1.0000
  C   C1207     1.0  0.05321  0.55044  0.93372  1.0000
  H   H963      1.0  0.14298  0.43808  0.95338  1.0000
  H   H964      1.0  0.10587  0.35379  0.81413  1.0000
  C   C1208     1.0  0.01899  0.37490  0.95923  1.0000
  H   H965      1.0  0.03907  0.40598  0.84237  1.0000
  H   H966      1.0  0.00549  0.34074  0.95316  1.0000
  C   C1209     1.0  0.06847  0.55087  0.94427  1.0000
  H   H967      1.0  0.99570  0.54197  0.85142  1.0000
  H   H968      1.0  0.14661  0.33166  0.95606  1.0000
  C   C1210     1.0  0.00015  0.47183  0.82623  1.0000
  H   H969      1.0  0.27738  0.62921  0.78770  1.0000
  C   C1211     1.0  0.01390  0.58784  0.97251  1.0000
  C   C1212     1.0  0.99367  0.48719  0.96877  1.0000
  C   C1213     1.0  0.08692  0.58615  0.97389  1.0000
  C   C1214     1.0  0.06987  0.62232  0.88984  1.0000
  C   C1215     1.0  0.17112  0.53313  0.89496  1.0000
  H   H970      1.0  0.37119  0.64592  0.89555  1.0000
  C   C1216     1.0  0.01441  0.43917  0.85803  1.0000
  C   C1217     1.0  0.05021  0.38864  0.93960  1.0000
  C   C1218     1.0  0.01332  0.39265  0.84087  1.0000
  H   H971      1.0  0.08934  0.32365  0.95120  1.0000
  H   H972      1.0  0.24760  0.61519  0.81251  1.0000
  C   C1219     1.0  0.00836  0.37637  0.83470  1.0000
  H   H973      1.0  0.00200  0.37654  0.96251  1.0000
  H   H974      1.0  0.04101  0.49587  0.93776  1.0000
  H   H975      1.0  0.15781  0.40071  0.93770  1.0000
  C   C1220     1.0  0.01040  0.51772  0.75699  1.0000
  C   C1221     1.0  0.05347  0.35644  0.96633  1.0000
  H   H976      1.0  0.03288  0.46006  0.86045  1.0000
  H   H977      1.0  0.02002  0.42670  0.87042  1.0000
  C   C1222     1.0  0.15750  0.63441  0.91110  1.0000
  H   H978      1.0  0.12926  0.62156  0.87404  1.0000
  C   C1223     1.0  0.99681  0.60495  0.97138  1.0000
  C   C1224     1.0  0.99016  0.37865  0.88967  1.0000
  C   C1225     1.0  0.13980  0.43487  0.97038  1.0000
  C   C1226     1.0  0.01222  0.49531  0.96151  1.0000
  H   H979      1.0  0.08090  0.53854  0.97256  1.0000
  C   C1227     1.0  0.99640  0.50386  0.76363  1.0000
  H   H980      1.0  0.06680  0.38166  0.82359  1.0000
  H   H981      1.0  0.06337  0.34394  0.97544  1.0000
  C   C1228     1.0  0.11436  0.58512  0.94217  1.0000
  C   C1229     1.0  0.09325  0.59173  0.95199  1.0000
  C   C1230     1.0  0.21169  0.32292  0.79807  1.0000
  H   H982      1.0  0.36752  0.58111  0.73693  1.0000
  C   C1231     1.0  0.02625  0.49041  0.94324  1.0000
  C   C1232     1.0  0.11780  0.35309  0.82264  1.0000
  C   C1233     1.0  0.00220  0.47119  0.93867  1.0000
  C   C1234     1.0  0.10001  0.59716  0.90176  1.0000
  C   C1235     1.0  0.13550  0.61354  0.90543  1.0000
  C   C1236     1.0  0.02167  0.45806  0.85246  1.0000
  H   H983      1.0  0.99564  0.36777  0.87918  1.0000
  H   H984      1.0  0.13713  0.32223  0.88567  1.0000
  P   P42       1.0  0.11942  0.40329  0.97028  1.0000
  C   C1237     1.0  0.12400  0.41268  0.94202  1.0000
  C   C1238     1.0  0.19322  0.32438  0.81362  1.0000
  C   C1239     1.0  0.06475  0.60665  0.88309  1.0000
  C   C1240     1.0  0.01623  0.52848  0.89036  1.0000
  C   C1241     1.0  0.35825  0.59062  0.74818  1.0000
  H   H985      1.0  0.06051  0.63823  0.88745  1.0000
  S   S176      1.0  0.08800  0.33806  0.87804  1.0000
  C   C1242     1.0  0.10732  0.42339  0.93168  1.0000
  C   C1243     1.0  0.11128  0.43010  0.90982  1.0000
  C   C1244     1.0  0.13182  0.42614  0.89804  1.0000
  C   C1245     1.0  0.14854  0.41554  0.90816  1.0000
  C   C1246     1.0  0.14467  0.40883  0.93007  1.0000
  C   C1247     1.0  0.12264  0.56770  0.97647  1.0000
  C   C1248     1.0  0.02834  0.39021  0.94375  1.0000
  H   H986      1.0  0.15579  0.45880  0.97069  1.0000
  H   H987      1.0  0.99809  0.46244  0.92944  1.0000
  H   H988      1.0  0.99226  0.37402  0.83841  1.0000
  H   H989      1.0  0.00749  0.48468  0.88038  1.0000
  H   H990      1.0  0.15988  0.35064  0.85378  1.0000
  C   C1249     1.0  0.02426  0.36266  0.82395  1.0000
  H   H991      1.0  0.33020  0.57841  0.75294  1.0000
  H   H992      1.0  0.05144  0.61033  0.87548  1.0000
  C   C1250     1.0  0.99604  0.53211  0.98138  1.0000
  C   C1251     1.0  0.14594  0.61826  0.91866  1.0000
  H   H993      1.0  0.14532  0.56763  0.94744  1.0000
  C   C1252     1.0  0.07690  0.42211  0.98093  1.0000
  C   C1253     1.0  0.03156  0.35773  0.97044  1.0000
  H   H994      1.0  0.14561  0.60926  0.93461  1.0000
  H   H995      1.0  0.09124  0.42688  0.94021  1.0000
  H   H996      1.0  0.09841  0.43869  0.90200  1.0000
  C   C1254     1.0  0.15888  0.33530  0.98110  1.0000
  C   C1255     1.0  0.13469  0.37031  0.83906  1.0000
  H   H997      1.0  0.07339  0.57419  0.88013  1.0000
  H   H998      1.0  0.12558  0.36803  0.95031  1.0000
  H   H999      1.0  0.05755  0.35413  0.81137  1.0000
  C   C1256     1.0  0.14831  0.64132  0.87716  1.0000
  C   C1257     1.0  0.33426  0.63856  0.80812  1.0000
  H   H1000     1.0  0.16582  0.63781  0.92121  1.0000
  C   C1258     1.0  0.06278  0.37171  0.95079  1.0000
  C   C1259     1.0  0.07713  0.58628  0.88572  1.0000
  H   H1001     1.0  0.09802  0.32447  0.98506  1.0000
  H   H1002     1.0  0.21549  0.33699  0.78678  1.0000
  H   H1003     1.0  0.16449  0.41271  0.89900  1.0000
  H   H1004     1.0  0.05282  0.55991  0.91800  1.0000
  H   H1005     1.0  0.17621  0.59341  0.82741  1.0000
  H   H1006     1.0  0.17815  0.55461  0.83823  1.0000
  H   H1007     1.0  0.13601  0.38441  0.84311  1.0000
  C   C1260     1.0  0.99306  0.45283  0.83155  1.0000
  C   C1261     1.0  0.13671  0.62528  0.88468  1.0000
  C   C1262     1.0  0.16189  0.58725  0.83391  1.0000
  S   S177      1.0  0.24222  0.61886  0.77170  1.0000
  C   C1263     1.0  0.12900  0.57308  0.95461  1.0000
  H   H1008     1.0  0.36568  0.64647  0.84546  1.0000
  C   C1264     1.0  0.25754  0.63465  0.75169  1.0000
  H   H1009     1.0  0.02679  0.53733  0.93485  1.0000
  H   H1010     1.0  0.27312  0.64125  0.87492  1.0000
  Fe  Fe88      1.0  0.16988  0.64183  0.81481  1.0000
  C   C1265     1.0  0.09177  0.40300  0.98124  1.0000
  H   H1011     1.0  0.02038  0.34998  0.81950  1.0000
  C   C1266     1.0  0.08736  0.61759  0.89923  1.0000
  C   C1267     1.0  0.14229  0.60113  0.83639  1.0000
  C   C1268     1.0  0.15246  0.53050  0.90965  1.0000
  H   H1012     1.0  0.05747  0.40037  0.92746  1.0000
  C   C1269     1.0  0.01448  0.47444  0.83665  1.0000
  S   S178      1.0  0.14030  0.62870  0.82986  1.0000
  H   H1013     1.0  0.14921  0.51479  0.91617  1.0000
  C   C1270     1.0  0.33719  0.58920  0.75710  1.0000
  C   C1271     1.0  0.03921  0.52453  0.96328  1.0000
  C   C1272     1.0  0.36145  0.62494  0.82899  1.0000
  C   C1273     1.0  0.11946  0.37131  0.82785  1.0000
  H   H1014     1.0  0.02002  0.48912  0.83258  1.0000
  C   C1274     1.0  0.09471  0.58155  0.89496  1.0000
  H   H1015     1.0  0.14953  0.64986  0.86092  1.0000
  C   C1275     1.0  0.35003  0.62205  0.81568  1.0000
  P   P43       1.0  0.31786  0.63396  0.79308  1.0000
  C   C1276     1.0  0.33371  0.61658  0.77591  1.0000
  C   C1277     1.0  0.29638  0.62277  0.81115  1.0000
  C   C1278     1.0  0.27839  0.62289  0.80407  1.0000
  C   C1279     1.0  0.26137  0.61509  0.81812  1.0000
  C   C1280     1.0  0.26200  0.60726  0.83936  1.0000
  C   C1281     1.0  0.27985  0.60699  0.84658  1.0000
  C   C1282     1.0  0.29700  0.61469  0.83256  1.0000
  C   C1283     1.0  0.35485  0.61800  0.76676  1.0000
  C   C1284     1.0  0.03456  0.39434  0.83693  1.0000
  H   H1016     1.0  0.10885  0.38618  0.82336  1.0000
  H   H1017     1.0  0.13474  0.43159  0.88108  1.0000
  C   C1285     1.0  0.32497  0.60206  0.77097  1.0000
  Fe  Fe89      1.0  0.21401  0.63943  0.78798  1.0000
  H   H1018     1.0  0.08006  0.56063  0.93675  1.0000
  C   C1286     1.0  0.12789  0.41970  0.98251  1.0000
  C   C1287     1.0  0.14722  0.44664  0.98015  1.0000
  C   C1288     1.0  0.05043  0.38054  0.82623  1.0000
  C   C1289     1.0  0.13497  0.36291  0.96234  1.0000
  H   H1019     1.0  0.10440  0.56584  0.89623  1.0000
  C   C1290     1.0  0.36709  0.60496  0.75310  1.0000
  H   H1020     1.0  0.03187  0.47465  0.91769  1.0000
  C   C1291     1.0  0.14162  0.56855  0.90620  1.0000
  H   H1021     1.0  0.35336  0.60689  0.81142  1.0000
  H   H1022     1.0  0.99952  0.49033  0.75658  1.0000
  C   C1292     1.0  0.14697  0.34235  0.96543  1.0000
  H   H1023     1.0  0.24860  0.60145  0.85015  1.0000
  H   H1024     1.0  0.28033  0.60088  0.86305  1.0000
  H   H1025     1.0  0.31052  0.61448  0.83859  1.0000
  H   H1026     1.0  0.36177  0.62961  0.76967  1.0000
  P   P44       1.0  0.12264  0.59120  0.91385  1.0000
  C   C1293     1.0  0.17509  0.55337  0.88584  1.0000
  S   S179      1.0  0.20200  0.63043  0.82291  1.0000
  H   H1027     1.0  0.30866  0.60084  0.77746  1.0000
  H   H1028     1.0  0.09122  0.62995  0.90423  1.0000
  H   H1029     1.0  0.12325  0.54584  0.92649  1.0000
  P   P45       1.0  0.99249  0.41098  0.85378  1.0000
  C   C1294     1.0  0.02059  0.50945  0.88380  1.0000
  H   H1030     1.0  0.28589  0.61050  0.75058  1.0000
  C   C1295     1.0  0.06901  0.53833  0.96439  1.0000
  H   H1031     1.0  0.01875  0.40309  0.93459  1.0000
  C   C1296     1.0  0.27888  0.62660  0.74416  1.0000
  C   C1297     1.0  0.00030  0.43622  0.84743  1.0000
  H   H1032     1.0  0.05454  0.47752  0.98389  1.0000
  C   C1298     1.0  0.15880  0.64583  0.89031  1.0000
  C   C1299     1.0  0.35683  0.64413  0.83526  1.0000
  H   H1033     1.0  0.38318  0.60666  0.74562  1.0000
  C   C1300     1.0  0.14627  0.33259  0.84035  1.0000
  H   H1034     1.0  0.39993  0.65006  0.76898  1.0000
  S   S180      1.0  0.18194  0.64801  0.77984  1.0000
  C   C1301     1.0  0.99521  0.53755  0.89817  1.0000
  C   C1302     1.0  0.99407  0.33502  0.96678  1.0000
  H   H1035     1.0  0.99452  0.48458  0.81410  1.0000
  H   H1036     1.0  0.04387  0.43692  0.98584  1.0000
  H   H1037     1.0  0.18299  0.33971  0.81401  1.0000
  C   C1303     1.0  0.13115  0.33377  0.82885  1.0000
  C   C1304     1.0  0.24840  0.65528  0.74300  1.0000
  C   C1305     1.0  0.20696  0.68736  0.17885  1.0000
  H   H1038     1.0  0.37035  0.70751  0.09621  1.0000
  H   H1039     1.0  0.34526  0.77923  0.02946  1.0000
  C   C1306     1.0  0.46082  0.74983  0.16718  1.0000
  C   C1307     1.0  0.36142  0.79972  0.03625  1.0000
  C   C1308     1.0  0.39502  0.68514  0.08143  1.0000
  H   H1040     1.0  0.44262  0.89029  0.11255  1.0000
  H   H1041     1.0  0.39326  0.97519  0.18802  1.0000
  Fe  Fe90      1.0  0.30309  0.73456  0.12665  1.0000
  S   S181      1.0  0.31724  0.71400  0.15379  1.0000
  S   S182      1.0  0.30622  0.76852  0.11346  1.0000
  Fe  Fe91      1.0  0.28650  0.70311  0.16513  1.0000
  S   S183      1.0  0.27440  0.69697  0.20002  1.0000
  S   S184      1.0  0.27126  0.72593  0.13967  1.0000
  H   H1042     1.0  0.40821  0.79883  0.15318  1.0000
  H   H1043     1.0  0.39205  0.68737  0.13080  1.0000
  C   C1309     1.0  0.22906  0.68338  0.17237  1.0000
  Fe  Fe92      1.0  0.45519  0.81968  0.07266  1.0000
  S   S185      1.0  0.44237  0.85382  0.06009  1.0000
  Fe  Fe93      1.0  0.41227  0.80765  0.08189  1.0000
  S   S186      1.0  0.39544  0.84088  0.07048  1.0000
  S   S187      1.0  0.40159  0.77664  0.09426  1.0000
  Fe  Fe94      1.0  0.42399  0.84185  0.04387  1.0000
  S   S188      1.0  0.42355  0.85751  0.00981  1.0000
  Fe  Fe95      1.0  0.41535  0.85002  0.08760  1.0000
  S   S189      1.0  0.40586  0.87226  0.10967  1.0000
  S   S190      1.0  0.43919  0.80804  0.05411  1.0000
  S   S191      1.0  0.42960  0.81673  0.10131  1.0000
  H   H1044     1.0  0.18101  0.68037  0.20489  1.0000
  C   C1310     1.0  0.12606  0.71259  0.18019  1.0000
  S   S192      1.0  0.37079  0.96669  0.06736  1.0000
  C   C1311     1.0  0.38254  0.82026  0.14058  1.0000
  H   H1045     1.0  0.41150  0.78620  0.04445  1.0000
  C   C1312     1.0  0.39696  0.89857  0.09750  1.0000
  C   C1313     1.0  0.39627  0.91501  0.10700  1.0000
  C   C1314     1.0  0.38874  0.93608  0.09755  1.0000
  C   C1315     1.0  0.38160  0.94067  0.07879  1.0000
  C   C1316     1.0  0.38232  0.92420  0.06934  1.0000
  C   C1317     1.0  0.39018  0.90320  0.07855  1.0000
  H   H1046     1.0  0.40149  0.91144  0.12168  1.0000
  H   H1047     1.0  0.38796  0.94874  0.10501  1.0000
  H   H1048     1.0  0.37688  0.92764  0.05484  1.0000
  H   H1049     1.0  0.39068  0.89059  0.07115  1.0000
  C   C1318     1.0  0.36923  0.97314  0.17338  1.0000
  H   H1050     1.0  0.10700  0.72454  0.20728  1.0000
  H   H1051     1.0  0.37572  0.78230  0.19158  1.0000
  C   C1319     1.0  0.10707  0.67703  0.13061  1.0000
  C   C1320     1.0  0.39670  0.73562  0.14977  1.0000
  C   C1321     1.0  0.39332  0.70080  0.13607  1.0000
  H   H1052     1.0  0.42531  0.81264  0.01682  1.0000
  C   C1322     1.0  0.33278  0.77096  0.10646  1.0000
  C   C1323     1.0  0.33819  0.79074  0.09715  1.0000
  C   C1324     1.0  0.35942  0.79279  0.09265  1.0000
  C   C1325     1.0  0.37513  0.77502  0.09753  1.0000
  C   C1326     1.0  0.36966  0.75530  0.10627  1.0000
  C   C1327     1.0  0.34861  0.75322  0.11072  1.0000
  H   H1053     1.0  0.32595  0.80450  0.09373  1.0000
  H   H1054     1.0  0.36354  0.80810  0.08595  1.0000
  H   H1055     1.0  0.38180  0.74155  0.10963  1.0000
  H   H1056     1.0  0.34464  0.73788  0.11764  1.0000
  C   C1328     1.0  0.41152  0.70927  0.12828  1.0000
  H   H1057     1.0  0.42751  0.73276  0.12877  1.0000
  P   P46       1.0  0.39991  0.75614  0.16083  1.0000
  C   C1329     1.0  0.36647  0.78455  0.14432  1.0000
  C   C1330     1.0  0.18696  0.68394  0.10859  1.0000
  C   C1331     1.0  0.37665  0.70984  0.15040  1.0000
  H   H1058     1.0  0.48156  0.95932  0.09591  1.0000
  C   C1332     1.0  0.39745  0.78464  0.04046  1.0000
  C   C1333     1.0  0.16385  0.71089  0.17425  1.0000
  C   C1334     1.0  0.22789  0.74031  0.11648  1.0000
  H   H1059     1.0  0.25923  0.65935  0.13568  1.0000
  C   C1335     1.0  0.46297  0.93014  0.13249  1.0000
  H   H1060     1.0  0.45364  0.89373  0.07516  1.0000
  C   C1336     1.0  0.19586  0.66463  0.14847  1.0000
  C   C1337     1.0  0.25788  0.67134  0.10295  1.0000
  C   C1338     1.0  0.43394  0.94316  0.11409  1.0000
  C   C1339     1.0  0.20471  0.72152  0.22538  1.0000
  C   C1340     1.0  0.21341  0.72865  0.20414  1.0000
  C   C1341     1.0  0.23498  0.72158  0.19613  1.0000
  C   C1342     1.0  0.24783  0.70761  0.20946  1.0000
  H   H1061     1.0  0.48756  0.96531  0.00344  1.0000
  C   C1343     1.0  0.46968  0.76380  0.04086  1.0000
  H   H1062     1.0  0.20345  0.73916  0.19379  1.0000
  H   H1063     1.0  0.24149  0.72656  0.17962  1.0000
  C   C1344     1.0  0.19227  0.66195  0.11450  1.0000
  H   H1064     1.0  0.45907  0.71933  0.01871  1.0000
  H   H1065     1.0  0.22439  0.70823  0.12304  1.0000
  H   H1066     1.0  0.34370  0.71821  0.21007  1.0000
  H   H1067     1.0  0.38265  0.73864  0.07204  1.0000
  C   C1345     1.0  0.42161  0.95213  0.13094  1.0000
  H   H1068     1.0  0.46644  0.77435  0.11540  1.0000
  H   H1069     1.0  0.17349  0.72179  0.19699  1.0000
  H   H1070     1.0  0.45373  0.74308  0.09280  1.0000
  C   C1346     1.0  0.20197  0.72531  0.14542  1.0000
  H   H1071     1.0  0.18218  0.71336  0.11779  1.0000
  C   C1347     1.0  0.25283  0.66768  0.08553  1.0000
  C   C1348     1.0  0.47054  0.75904  0.14698  1.0000
  H   H1072     1.0  0.44856  0.96764  0.21558  1.0000
  H   H1073     1.0  0.47907  0.84855  0.07382  1.0000
  H   H1074     1.0  0.47988  0.88713  0.03805  1.0000
  C   C1349     1.0  0.35425  0.98418  0.16117  1.0000
  C   C1350     1.0  0.19080  0.68672  0.14258  1.0000
  C   C1351     1.0  0.45420  0.74713  0.07605  1.0000
  H   H1075     1.0  0.18398  0.69137  0.09299  1.0000
  H   H1076     1.0  0.44857  0.85206  0.12730  1.0000
  H   H1077     1.0  0.15268  0.66534  0.14862  1.0000
  C   C1352     1.0  0.36304  0.94813  0.01640  1.0000
  S   S193      1.0  0.35870  0.66822  0.13224  1.0000
  H   H1078     1.0  0.46988  0.74358  0.17947  1.0000
  C   C1353     1.0  0.24177  0.67218  0.18685  1.0000
  H   H1079     1.0  0.45715  0.93771  0.16280  1.0000
  C   C1354     1.0  0.38020  0.80164  0.04028  1.0000
  C   C1355     1.0  0.45738  0.92576  0.07215  1.0000
  H   H1080     1.0  0.26036  0.75738  0.22035  1.0000
  C   C1356     1.0  0.20464  0.76193  0.14009  1.0000
  C   C1357     1.0  0.16031  0.71954  0.19194  1.0000
  H   H1081     1.0  0.12988  0.69535  0.12882  1.0000
  H   H1082     1.0  0.48127  0.76164  0.06849  1.0000
  H   H1083     1.0  0.38954  0.67151  0.09219  1.0000
  C   C1358     1.0  0.48410  0.83098  0.98855  1.0000
  C   C1359     1.0  0.34507  0.94075  0.02872  1.0000
  H   H1084     1.0  0.40431  0.75934  0.99571  1.0000
  C   C1360     1.0  0.45323  0.94661  0.06052  1.0000
  C   C1361     1.0  0.19505  0.74488  0.15139  1.0000
  H   H1085     1.0  0.42650  0.73514  0.07921  1.0000
  C   C1362     1.0  0.38419  0.70544  0.08368  1.0000
  H   H1086     1.0  0.40568  0.96085  0.13024  1.0000
  Fe  Fe96      1.0  0.32637  0.68888  0.13522  1.0000
  S   S194      1.0  0.48860  0.80370  0.07544  1.0000
  C   C1363     1.0  0.21065  0.66789  0.21414  1.0000
  H   H1087     1.0  0.09706  0.69006  0.12208  1.0000
  H   H1088     1.0  0.36248  0.70328  0.15617  1.0000
  H   H1089     1.0  0.42885  0.77220  0.12287  1.0000
  C   C1364     1.0  0.14652  0.70758  0.16839  1.0000
  C   C1365     1.0  0.42762  0.75703  0.15569  1.0000
  H   H1090     1.0  0.40085  0.71610  0.19188  1.0000
  H   H1091     1.0  0.34759  0.66303  0.08800  1.0000
  C   C1366     1.0  0.43319  0.93635  0.04105  1.0000
  C   C1367     1.0  0.43798  0.91545  0.05188  1.0000
  H   H1092     1.0  0.24087  0.73832  0.10316  1.0000
  C   C1368     1.0  0.29717  0.76148  0.17113  1.0000
  H   H1093     1.0  0.34071  0.80658  0.13174  1.0000
  C   C1369     1.0  0.45895  0.76709  0.13108  1.0000
  H   H1094     1.0  0.18249  0.74708  0.16486  1.0000
  C   C1370     1.0  0.39199  0.72869  0.19987  1.0000
  H   H1095     1.0  0.42316  0.94063  0.02964  1.0000
  H   H1096     1.0  0.43179  0.90344  0.04875  1.0000
  C   C1371     1.0  0.44130  0.95179  0.04494  1.0000
  H   H1097     1.0  0.43384  0.69763  0.03936  1.0000
  C   C1372     1.0  0.43877  0.74264  0.06826  1.0000
  C   C1373     1.0  0.13991  0.72451  0.20375  1.0000
  C   C1374     1.0  0.38310  0.72360  0.22133  1.0000
  C   C1375     1.0  0.21848  0.72321  0.12785  1.0000
  H   H1098     1.0  0.15139  0.66357  0.21213  1.0000
  H   H1099     1.0  0.37096  0.95620  0.17904  1.0000
  H   H1100     1.0  0.38897  0.83410  0.13872  1.0000
  C   C1376     1.0  0.37731  0.76392  0.03209  1.0000
  C   C1377     1.0  0.43943  0.74878  0.17156  1.0000
  C   C1378     1.0  0.45407  0.75968  0.03306  1.0000
  C   C1379     1.0  0.22109  0.75963  0.12267  1.0000
  C   C1380     1.0  0.45476  0.93221  0.11472  1.0000
  H   H1101     1.0  0.42486  0.79021  0.99322  1.0000
  H   H1102     1.0  0.33637  0.91539  0.99529  1.0000
  H   H1103     1.0  0.35526  0.83814  0.12796  1.0000
  C   C1381     1.0  0.31748  0.76372  0.20159  1.0000
  C   C1382     1.0  0.46183  0.85999  0.12231  1.0000
  C   C1383     1.0  0.43007  0.73913  0.01025  1.0000
  C   C1384     1.0  0.43866  0.74879  0.04668  1.0000
  H   H1104     1.0  0.24243  0.65810  0.21936  1.0000
  C   C1385     1.0  0.37790  0.76585  0.19964  1.0000
  H   H1105     1.0  0.14877  0.70078  0.15498  1.0000
  H   H1106     1.0  0.42721  0.94499  0.10062  1.0000
  C   C1386     1.0  0.29420  0.74810  0.19100  1.0000
  C   C1387     1.0  0.48647  0.88871  0.02139  1.0000
  C   C1388     1.0  0.18609  0.69632  0.12263  1.0000
  H   H1107     1.0  0.45378  0.76538  0.01649  1.0000
  H   H1108     1.0  0.25879  0.66979  0.18203  1.0000
  H   H1109     1.0  0.34447  0.97583  0.15720  1.0000
  C   C1389     1.0  0.36911  0.76069  0.22113  1.0000
  H   H1110     1.0  0.33064  0.78830  0.17801  1.0000
  C   C1390     1.0  0.41289  0.68246  0.06538  1.0000
  C   C1391     1.0  0.43762  0.76599  0.13539  1.0000
  H   H1111     1.0  0.31267  0.78605  0.15083  1.0000
  P   P47       1.0  0.41846  0.74361  0.03654  1.0000
  H   H1112     1.0  0.19942  0.65676  0.16379  1.0000
  C   C1392     1.0  0.34892  0.68492  0.21185  1.0000
  C   C1393     1.0  0.37822  0.72727  0.15714  1.0000
  C   C1394     1.0  0.38577  0.78206  0.15012  1.0000
  H   H1113     1.0  0.42425  0.70249  0.11685  1.0000
  C   C1395     1.0  0.41992  0.70011  0.05153  1.0000
  C   C1396     1.0  0.13845  0.66319  0.14537  1.0000
  C   C1397     1.0  0.45019  0.91009  0.06721  1.0000
  C   C1398     1.0  0.34012  0.66690  0.21893  1.0000
  H   H1114     1.0  0.03399  0.79507  0.22485  1.0000
  C   C1399     1.0  0.38930  0.74985  0.18880  1.0000
  C   C1400     1.0  0.46969  0.75761  0.06236  1.0000
  C   C1401     1.0  0.31551  0.70593  0.22642  1.0000
  S   S195      1.0  0.26676  0.69477  0.09980  1.0000
  H   H1115     1.0  0.19950  0.77686  0.14500  1.0000
  H   H1116     1.0  0.37046  0.95722  0.02242  1.0000
  H   H1117     1.0  0.37367  0.88626  0.99661  1.0000
  H   H1118     1.0  0.37589  0.74931  0.02912  1.0000
  H   H1119     1.0  0.46441  0.83175  0.01916  1.0000
  H   H1120     1.0  0.13758  0.73066  0.21769  1.0000
  H   H1121     1.0  0.11283  0.70960  0.17580  1.0000
  C   C1402     1.0  0.30392  0.74943  0.20656  1.0000
  H   H1122     1.0  0.28436  0.73663  0.19418  1.0000
  H   H1123     1.0  0.47562  0.96255  0.18330  1.0000
  H   H1124     1.0  0.32610  0.76434  0.21284  1.0000
  H   H1125     1.0  0.46787  0.98151  0.14828  1.0000
  C   C1403     1.0  0.42486  0.80681  0.98708  1.0000
  H   H1126     1.0  0.30885  0.66552  0.09930  1.0000
  C   C1404     1.0  0.36351  0.82256  0.13454  1.0000
  H   H1127     1.0  0.36509  0.73405  0.16824  1.0000
  S   S196      1.0  0.31501  0.71027  0.10688  1.0000
  H   H1128     1.0  0.38131  0.81616  0.04370  1.0000
  H   H1129     1.0  0.25453  0.67907  0.07073  1.0000
  H   H1130     1.0  0.22878  0.77269  0.11409  1.0000
  C   C1405     1.0  0.42464  0.84109  0.99290  1.0000
  H   H1131     1.0  0.33870  0.94407  0.04429  1.0000
  C   C1406     1.0  0.37157  0.94366  0.99644  1.0000
  C   C1407     1.0  0.43002  0.95030  0.14842  1.0000
  C   C1408     1.0  0.42511  0.81949  0.00051  1.0000
  H   H1132     1.0  0.23656  0.68921  0.15631  1.0000
  C   C1409     1.0  0.31026  0.77598  0.16643  1.0000
  H   H1133     1.0  0.42063  0.95763  0.16120  1.0000
  H   H1134     1.0  0.37404  0.84961  0.99655  1.0000
  C   C1410     1.0  0.39353  0.80014  0.14853  1.0000
  C   C1411     1.0  0.40899  0.72060  0.05355  1.0000
  H   H1135     1.0  0.42132  0.66669  0.06372  1.0000
  C   C1412     1.0  0.32040  0.77713  0.18168  1.0000
  C   C1413     1.0  0.39118  0.72307  0.06989  1.0000
  P   P48       1.0  0.19057  0.70269  0.16031  1.0000
  Fe  Fe97      1.0  0.28422  0.69977  0.12194  1.0000
  C   C1414     1.0  0.36237  0.93137  0.98883  1.0000
  C   C1415     1.0  0.45855  0.88167  0.11366  1.0000
  H   H1136     1.0  0.43802  0.96784  0.03599  1.0000
  S   S197      1.0  0.29677  0.67609  0.14858  1.0000
  C   C1416     1.0  0.35994  0.78083  0.03224  1.0000
  C   C1417     1.0  0.39629  0.76577  0.03604  1.0000
  H   H1137     1.0  0.34792  0.81276  0.03657  1.0000
  H   H1138     1.0  0.34001  0.98621  0.03645  1.0000
  H   H1139     1.0  0.46097  0.87872  0.01513  1.0000
  C   C1418     1.0  0.47557  0.96720  0.99460  1.0000
  C   C1419     1.0  0.12277  0.72099  0.19791  1.0000
  C   C1420     1.0  0.23928  0.70128  0.23082  1.0000
  C   C1421     1.0  0.44536  0.97625  0.20029  1.0000
  P   P49       1.0  0.47101  0.91988  0.09365  1.0000
  H   H1140     1.0  0.28956  0.76035  0.15920  1.0000
  H   H1141     1.0  0.43220  0.74168  0.18730  1.0000
  C   C1422     1.0  0.47586  0.88388  0.00849  1.0000
  C   C1423     1.0  0.47570  0.89200  0.10587  1.0000
  H   H1142     1.0  0.36013  0.77096  0.14527  1.0000
  C   C1424     1.0  0.41324  0.72658  0.13509  1.0000
  H   H1143     1.0  0.47140  0.93510  0.00685  1.0000
  C   C1425     1.0  0.33668  0.70436  0.21563  1.0000
  C   C1426     1.0  0.12553  0.68003  0.13442  1.0000
  H   H1144     1.0  0.32150  0.92336  0.03058  1.0000
  C   C1427     1.0  0.35535  0.80476  0.13667  1.0000
  H   H1145     1.0  0.33269  0.65967  0.17421  1.0000
  C   C1428     1.0  0.33546  0.92903  0.02102  1.0000
  C   C1429     1.0  0.45065  0.93920  0.14925  1.0000
  C   C1430     1.0  0.45045  0.72661  0.00617  1.0000
  C   C1431     1.0  0.48217  0.84855  0.12408  1.0000
  C   C1432     1.0  0.19790  0.67863  0.19962  1.0000
  C   C1433     1.0  0.48511  0.88448  0.98728  1.0000
  H   H1146     1.0  0.38896  0.98534  0.00295  1.0000
  H   H1147     1.0  0.45869  0.95897  0.06390  1.0000
  H   H1148     1.0  0.47898  0.92159  0.13326  1.0000
  C   C1434     1.0  0.23257  0.66512  0.20786  1.0000
  H   H1149     1.0  0.36516  0.68379  0.20336  1.0000
  C   C1435     1.0  0.45629  0.98406  0.16243  1.0000
  C   C1436     1.0  0.46642  0.95008  0.99661  1.0000
  C   C1437     1.0  0.46058  0.97330  0.18214  1.0000
  C   C1438     1.0  0.31898  0.66841  0.22931  1.0000
  C   C1439     1.0  0.34400  0.92445  0.00108  1.0000
  H   H1150     1.0  0.48128  0.77257  0.03041  1.0000
  C   C1440     1.0  0.38199  0.98394  0.17825  1.0000
  C   C1441     1.0  0.41962  0.74892  0.99348  1.0000
  H   H1151     1.0  0.48483  0.83164  0.13023  1.0000
  H   H1152     1.0  0.18250  0.79298  0.23529  1.0000
  C   C1442     1.0  0.48012  0.83188  0.00967  1.0000
  H   H1153     1.0  0.44252  0.93954  0.98834  1.0000
  H   H1154     1.0  0.20346  0.66212  0.23035  1.0000
  H   H1155     1.0  0.36034  0.77310  0.22940  1.0000
  H   H1156     1.0  0.48706  0.76001  0.14359  1.0000
  C   C1443     1.0  0.10152  0.65719  0.13780  1.0000
  C   C1444     1.0  0.30669  0.68782  0.23315  1.0000
  P   P50       1.0  0.30064  0.73116  0.23175  1.0000
  H   H1157     1.0  0.38507  0.70723  0.22972  1.0000
  C   C1445     1.0  0.25691  0.74651  0.23521  1.0000
  C   C1446     1.0  0.37166  0.73959  0.23194  1.0000
  S   S198      1.0  0.17743  0.72852  0.23527  1.0000
  C   C1447     1.0  0.25550  0.65659  0.12209  1.0000
  H   H1158     1.0  0.38533  0.94984  0.98703  1.0000
  C   C1448     1.0  0.45026  0.95252  0.98607  1.0000
  H   H1159     1.0  0.00708  0.84347  0.31794  1.0000
  C   C1449     1.0  0.09411  0.91414  0.37381  1.0000
  C   C1450     1.0  0.02047  0.95467  0.44221  1.0000
  C   C1451     1.0  0.99231  0.79826  0.48508  1.0000
  H   H1160     1.0  0.12715  0.95684  0.36454  1.0000
  Fe  Fe98      1.0  0.08763  0.82533  0.39836  1.0000
  S   S199      1.0  0.11853  0.82743  0.37577  1.0000
  S   S200      1.0  0.08568  0.80538  0.43099  1.0000
  Fe  Fe99      1.0  0.06187  0.85712  0.36907  1.0000
  S   S201      1.0  0.09054  0.86285  0.34401  1.0000
  S   S202      1.0  0.02967  0.87515  0.36340  1.0000
  Fe  Fe100     1.0  0.10115  0.82765  0.35144  1.0000
  S   S203      1.0  0.11662  0.81342  0.32316  1.0000
  Fe  Fe101     1.0  0.10568  0.86229  0.37018  1.0000
  S   S204      1.0  0.12873  0.88293  0.36651  1.0000
  S   S205      1.0  0.07132  0.82181  0.37458  1.0000
  S   S206      1.0  0.07582  0.86030  0.39466  1.0000
  H   H1161     1.0  0.08483  0.90239  0.37623  1.0000
  C   C1452     1.0  0.00892  0.86141  0.37458  1.0000
  C   C1453     1.0  0.01223  0.84118  0.38739  1.0000
  C   C1454     1.0  0.17722  0.77183  0.26550  1.0000
  H   H1162     1.0  0.16188  0.88656  0.46190  1.0000
  H   H1163     1.0  0.26971  0.75003  0.28721  1.0000
  H   H1164     1.0  0.03888  0.77448  0.47807  1.0000
  H   H1165     1.0  0.02758  0.83391  0.39108  1.0000
  H   H1166     1.0  0.01811  0.95777  0.31309  1.0000
  C   C1455     1.0  0.05663  0.75944  0.33348  1.0000
  H   H1167     1.0  0.25163  0.72340  0.35303  1.0000
  C   C1456     1.0  0.11205  0.84330  0.44999  1.0000
  C   C1457     1.0  0.10523  0.83395  0.43730  1.0000
  C   C1458     1.0  0.09530  0.81674  0.44639  1.0000
  Fe  Fe102     1.0  0.16953  0.70535  0.26568  1.0000
  P   P51       1.0  0.02343  0.92661  0.45345  1.0000
  H   H1168     1.0  0.11980  0.85653  0.44285  1.0000
  H   H1169     1.0  0.10783  0.84001  0.42051  1.0000
  C   C1459     1.0  0.23580  0.74773  0.24575  1.0000
  C   C1460     1.0  0.08404  0.93511  0.37423  1.0000
  C   C1461     1.0  0.10577  0.91645  0.31645  1.0000
  C   C1462     1.0  0.10348  0.75478  0.34521  1.0000
  C   C1463     1.0  0.10416  0.77588  0.34382  1.0000
  C   C1464     1.0  0.11588  0.78688  0.32584  1.0000
  H   H1170     1.0  0.09471  0.74617  0.35924  1.0000
  H   H1171     1.0  0.09574  0.78354  0.35666  1.0000
  H   H1172     1.0  0.17568  0.70105  0.34513  1.0000
  H   H1173     1.0  0.45613  0.65874  0.29988  1.0000
  C   C1465     1.0  0.09488  0.90033  0.44777  1.0000
  H   H1174     1.0  0.07268  0.74878  0.47365  1.0000
  H   H1175     1.0  0.16169  0.80984  0.31379  1.0000
  C   C1466     1.0  0.08093  0.89474  0.46667  1.0000
  H   H1176     1.0  0.14530  0.66531  0.24953  1.0000
  C   C1467     1.0  0.00762  0.94327  0.34574  1.0000
  H   H1177     1.0  0.23348  0.65743  0.28359  1.0000
  C   C1468     1.0  0.05396  0.72264  0.34517  1.0000
  C   C1469     1.0  0.10883  0.83559  0.47181  1.0000
  C   C1470     1.0  0.12809  0.92391  0.36650  1.0000
  H   H1178     1.0  0.16563  0.98560  0.33611  1.0000
  H   H1179     1.0  0.03155  0.79642  0.35658  1.0000
  S   S207      1.0  0.21382  0.67609  0.32065  1.0000
  H   H1180     1.0  0.33667  0.71299  0.29147  1.0000
  C   C1471     1.0  0.03173  0.96669  0.44774  1.0000
  C   C1472     1.0  0.04420  0.78963  0.25400  1.0000
  H   H1181     1.0  0.04290  0.89447  0.42740  1.0000
  H   H1182     1.0  0.05257  0.70747  0.32135  1.0000
  C   C1473     1.0  0.99582  0.89306  0.41825  1.0000
  C   C1474     1.0  0.18982  0.77879  0.29319  1.0000
  C   C1475     1.0  0.25607  0.67151  0.31616  1.0000
  C   C1476     1.0  0.15947  0.75965  0.35016  1.0000
  C   C1477     1.0  0.21781  0.70823  0.23873  1.0000
  S   S208      1.0  0.15748  0.66900  0.32047  1.0000
  C   C1478     1.0  0.01736  0.77981  0.38682  1.0000
  H   H1183     1.0  0.36488  0.73563  0.24857  1.0000
  C   C1479     1.0  0.16122  0.95640  0.46798  1.0000
  C   C1480     1.0  0.11796  0.94488  0.36740  1.0000
  C   C1481     1.0  0.99091  0.91785  0.44027  1.0000
  H   H1184     1.0  0.00276  0.79705  0.33955  1.0000
  C   C1482     1.0  0.23065  0.73432  0.26523  1.0000
  C   C1483     1.0  0.09792  0.94708  0.28053  1.0000
  H   H1185     1.0  0.17073  0.95497  0.31989  1.0000
  C   C1484     1.0  0.00187  0.78975  0.35601  1.0000
  C   C1485     1.0  0.99552  0.83034  0.39573  1.0000
  H   H1186     1.0  0.04068  0.91388  0.37846  1.0000
  H   H1187     1.0  0.19899  0.81592  0.36589  1.0000
  H   H1188     1.0  0.14373  0.95250  0.30228  1.0000
  H   H1189     1.0  0.09802  0.91834  0.41585  1.0000
  Fe  Fe103     1.0  0.14079  0.70201  0.30877  1.0000
  C   C1486     1.0  0.31096  0.73730  0.25109  1.0000
  H   H1190     1.0  0.16869  0.84406  0.35603  1.0000
  H   H1191     1.0  0.13985  0.77636  0.24033  1.0000
  C   C1487     1.0  0.30612  0.75805  0.25413  1.0000
  H   H1192     1.0  0.08083  0.80252  0.30910  1.0000
  C   C1488     1.0  0.09920  0.81819  0.48084  1.0000
  C   C1489     1.0  0.01869  0.77938  0.28566  1.0000
  H   H1193     1.0  0.02997  0.77966  0.39426  1.0000
  H   H1194     1.0  0.00752  0.88963  0.30589  1.0000
  C   C1490     1.0  0.02602  0.89850  0.42815  1.0000
  C   C1491     1.0  0.24766  0.73385  0.33866  1.0000
  H   H1195     1.0  0.29031  0.68851  0.24098  1.0000
  C   C1492     1.0  0.05312  0.72215  0.32483  1.0000
  H   H1196     1.0  0.13281  0.75035  0.37347  1.0000
  S   S209      1.0  0.08270  0.97683  0.36837  1.0000
  H   H1197     1.0  0.13470  0.74812  0.29797  1.0000
  H   H1198     1.0  0.10874  0.94173  0.32859  1.0000
  C   C1493     1.0  0.09755  0.92600  0.28186  1.0000
  C   C1494     1.0  0.02898  0.81765  0.30557  1.0000
  H   H1199     1.0  0.10141  0.89430  0.30083  1.0000
  C   C1495     1.0  0.05902  0.82855  0.32054  1.0000
  H   H1200     1.0  0.02783  0.87708  0.40860  1.0000
  H   H1201     1.0  0.25189  0.67870  0.32965  1.0000
  H   H1202     1.0  0.32502  0.70475  0.26338  1.0000
  C   C1496     1.0  0.01830  0.78918  0.36554  1.0000
  H   H1203     1.0  0.04881  0.89764  0.48311  1.0000
  C   C1497     1.0  0.24017  0.66869  0.30782  1.0000
  H   H1204     1.0  0.24243  0.70933  0.28927  1.0000
  H   H1205     1.0  0.21510  0.74337  0.35302  1.0000
  C   C1498     1.0  0.32193  0.72106  0.26476  1.0000
  C   C1499     1.0  0.03566  0.92388  0.36438  1.0000
  C   C1500     1.0  0.11466  0.74463  0.32874  1.0000
  H   H1206     1.0  0.04329  0.95923  0.45749  1.0000
  C   C1501     1.0  0.06551  0.92228  0.43236  1.0000
  C   C1502     1.0  0.09263  0.80873  0.46807  1.0000
  C   C1503     1.0  0.19780  0.79697  0.34507  1.0000
  S   S210      1.0  0.18862  0.67248  0.27349  1.0000
  C   C1504     1.0  0.99358  0.90001  0.31259  1.0000
  C   C1505     1.0  0.02323  0.83462  0.31567  1.0000
  C   C1506     1.0  0.19411  0.80155  0.25824  1.0000
  C   C1507     1.0  0.00722  0.96480  0.42782  1.0000
  H   H1207     1.0  0.01700  0.81378  0.30003  1.0000
  C   C1508     1.0  0.09686  0.76061  0.27482  1.0000
  C   C1509     1.0  0.11697  0.75924  0.26176  1.0000
  C   C1510     1.0  0.99575  0.91520  0.32215  1.0000
  C   C1511     1.0  0.06475  0.81147  0.31066  1.0000
  C   C1512     1.0  0.17794  0.75306  0.33594  1.0000
  C   C1513     1.0  0.19122  0.81468  0.35416  1.0000
  C   C1514     1.0  0.19680  0.79640  0.27905  1.0000
  H   H1208     1.0  0.30903  0.77867  0.27240  1.0000
  H   H1209     1.0  0.24920  0.69072  0.24127  1.0000
  H   H1210     1.0  0.05678  0.74153  0.36516  1.0000
  H   H1211     1.0  0.14288  0.71302  0.36990  1.0000
  C   C1515     1.0  0.05373  0.74038  0.30885  1.0000
  H   H1212     1.0  0.11695  0.81157  0.24303  1.0000
  H   H1213     1.0  0.01152  0.91572  0.32286  1.0000
  C   C1516     1.0  0.17970  0.76683  0.28632  1.0000
  C   C1517     1.0  0.31283  0.76262  0.27011  1.0000
  C   C1518     1.0  0.14106  0.96573  0.30962  1.0000
  C   C1519     1.0  0.24657  0.71961  0.27416  1.0000
  H   H1214     1.0  0.21154  0.70355  0.25530  1.0000
  H   H1215     1.0  0.23344  0.76993  0.28675  1.0000
  C   C1520     1.0  0.99388  0.73669  0.32336  1.0000
  S   S211      1.0  0.17077  0.71391  0.29499  1.0000
  C   C1521     1.0  0.05927  0.90255  0.46842  1.0000
  P   P52       1.0  0.10299  0.98021  0.29558  1.0000
  C   C1522     1.0  0.00401  0.98671  0.42050  1.0000
  C   C1523     1.0  0.04432  0.94095  0.32766  1.0000
  H   H1216     1.0  0.07071  0.83273  0.32636  1.0000
  C   C1524     1.0  0.04981  0.80581  0.30311  1.0000
  H   H1217     1.0  0.05603  0.94437  0.31344  1.0000
  C   C1525     1.0  0.01223  0.82592  0.46835  1.0000
  C   C1526     1.0  0.18443  0.78918  0.25143  1.0000
  H   H1218     1.0  0.21428  0.73484  0.27317  1.0000
  C   C1527     1.0  0.27736  0.66500  0.30726  1.0000
  H   H1219     1.0  0.13534  0.78552  0.29515  1.0000
  C   C1528     1.0  0.12668  0.77687  0.30925  1.0000
  H   H1220     1.0  0.28951  0.66712  0.31395  1.0000
  H   H1221     1.0  0.16976  0.76211  0.26033  1.0000
  H   H1222     1.0  0.05976  0.93299  0.41892  1.0000
  C   C1529     1.0  0.00426  0.78045  0.27350  1.0000
  H   H1223     1.0  0.03381  0.85308  0.33111  1.0000
  C   C1530     1.0  0.09101  0.79881  0.26457  1.0000
  H   H1224     1.0  0.32891  0.74993  0.29605  1.0000
  Fe  Fe104     1.0  0.15717  0.66378  0.28907  1.0000
  C   C1531     1.0  0.09591  0.95050  0.37079  1.0000
  C   C1532     1.0  0.03876  0.78394  0.27603  1.0000
  H   H1225     1.0  0.20440  0.80604  0.28412  1.0000
  H   H1226     1.0  0.09198  0.74613  0.28395  1.0000
  H   H1227     1.0  0.01417  0.77521  0.30260  1.0000
  C   C1533     1.0  0.02287  0.94866  0.32760  1.0000
  H   H1228     1.0  0.19797  0.72621  0.32354  1.0000
  S   S212      1.0  0.13794  0.69603  0.27851  1.0000
  C   C1534     1.0  0.10583  0.93754  0.31532  1.0000
  C   C1535     1.0  0.32398  0.74643  0.28347  1.0000
  C   C1536     1.0  0.15291  0.72405  0.36080  1.0000
  C   C1537     1.0  0.05560  0.75917  0.31304  1.0000
  C   C1538     1.0  0.08719  0.91408  0.43057  1.0000
  C   C1539     1.0  0.26768  0.71812  0.26359  1.0000
  H   H1229     1.0  0.29682  0.77060  0.24437  1.0000
  P   P53       1.0  0.05711  0.78245  0.29213  1.0000
  C   C1540     1.0  0.11124  0.79735  0.25175  1.0000
  Fe  Fe105     1.0  0.18743  0.68045  0.30399  1.0000
  C   C1541     1.0  0.10221  0.95302  0.29722  1.0000
  C   C1542     1.0  0.03825  0.84004  0.32316  1.0000
  C   C1543     1.0  0.12628  0.75573  0.31081  1.0000
  H   H1230     1.0  0.06698  0.93954  0.37701  1.0000
  H   H1231     1.0  0.27903  0.72651  0.32013  1.0000
  C   C1544     1.0  0.14717  0.74511  0.36270  1.0000
  H   H1232     1.0  0.00976  0.72746  0.32010  1.0000
  H   H1233     1.0  0.08509  0.79545  0.47497  1.0000
  H   H1234     1.0  0.05896  0.77335  0.33702  1.0000
  C   C1545     1.0  0.15656  0.96720  0.31934  1.0000
  C   C1546     1.0  0.17420  0.83058  0.34859  1.0000
  H   H1235     1.0  0.05953  0.79326  0.24613  1.0000
  C   C1547     1.0  0.01275  0.91341  0.43957  1.0000
  C   C1548     1.0  0.10156  0.91067  0.29979  1.0000
  H   H1236     1.0  0.14517  0.91964  0.36304  1.0000
  H   H1237     1.0  0.09423  0.92148  0.26897  1.0000
  C   C1549     1.0  0.17038  0.81121  0.32469  1.0000
  H   H1238     1.0  0.99879  0.76472  0.41534  1.0000
  H   H1239     1.0  0.99918  0.95605  0.42222  1.0000
  C   C1550     1.0  0.26308  0.73562  0.32015  1.0000
  C   C1551     1.0  0.08363  0.78044  0.27624  1.0000
  H   H1240     1.0  0.12722  0.74393  0.26088  1.0000
  C   C1552     1.0  0.25785  0.74892  0.30162  1.0000
  H   H1241     1.0  0.09486  0.95858  0.26646  1.0000
  C   C1553     1.0  0.05141  0.91652  0.45135  1.0000
  H   H1242     1.0  0.06726  0.92205  0.34589  1.0000
  H   H1243     1.0  0.07065  0.96579  0.33166  1.0000
  C   C1554     1.0  0.16822  0.97408  0.46869  1.0000
  C   C1555     1.0  0.14373  0.91863  0.46025  1.0000
  C   C1556     1.0  0.13215  0.93569  0.44791  1.0000
  C   C1557     1.0  0.13189  0.93514  0.42739  1.0000
  C   C1558     1.0  0.14272  0.91730  0.41929  1.0000
  C   C1559     1.0  0.15354  0.89988  0.43180  1.0000
  C   C1560     1.0  0.15394  0.90045  0.45228  1.0000
  C   C1561     1.0  0.11613  0.90859  0.36953  1.0000
  C   C1562     1.0  0.02973  0.79068  0.24185  1.0000
  H   H1244     1.0  0.21067  0.78463  0.34995  1.0000
  H   H1245     1.0  0.15425  0.77600  0.35151  1.0000
  C   C1563     1.0  0.17130  0.71735  0.34676  1.0000
  H   H1246     1.0  0.10890  0.90455  0.33035  1.0000
  H   H1247     1.0  0.11161  0.89377  0.44652  1.0000
  C   C1564     1.0  0.16385  0.82886  0.33381  1.0000
  H   H1248     1.0  0.16168  0.95362  0.45279  1.0000
  C   C1565     1.0  0.05553  0.74132  0.34952  1.0000
  H   H1249     1.0  0.02427  0.83426  0.46781  1.0000
  H   H1250     1.0  0.17353  0.75372  0.29704  1.0000
  H   H1251     1.0  0.12347  0.94951  0.45411  1.0000
  H   H1252     1.0  0.12310  0.94852  0.41788  1.0000
  H   H1253     1.0  0.14228  0.91673  0.40353  1.0000
  H   H1254     1.0  0.16125  0.88575  0.42577  1.0000
  H   H1255     1.0  0.05341  0.73964  0.29310  1.0000
  H   H1256     1.0  0.05408  0.70838  0.35743  1.0000
  S   S213      1.0  0.11381  0.71820  0.33070  1.0000
  C   C1566     1.0  0.01414  0.93107  0.36424  1.0000
  C   C1567     1.0  0.01754  0.88845  0.41752  1.0000
  H   H1257     1.0  0.27977  0.70657  0.27087  1.0000
  C   C1568     1.0  0.18386  0.73173  0.33447  1.0000
  C   C1569     1.0  0.32842  0.72565  0.28086  1.0000
  C   C1570     1.0  0.05069  0.92845  0.34599  1.0000
  H   H1258     1.0  0.15030  0.84089  0.32989  1.0000
  C   C1571     1.0  0.23714  0.76023  0.30145  1.0000
  C   C1572     1.0  0.22144  0.75830  0.31992  1.0000
  C   C1573     1.0  0.22695  0.74520  0.33859  1.0000
  P   P54       1.0  0.19422  0.77155  0.31979  1.0000
  C   C1574     1.0  0.18738  0.79510  0.33027  1.0000
  C   C1575     1.0  0.00979  0.78609  0.25159  1.0000
  C   C1576     1.0  0.12230  0.98117  0.30950  1.0000
  C   C1577     1.0  0.12417  0.77757  0.25026  1.0000
  H   H1259     1.0  0.17343  0.98483  0.45421  1.0000
  H   H1260     1.0  0.00196  0.75420  0.34140  1.0000
  H   H1261     1.0  0.18945  0.90487  0.47288  1.0000
  H   H1262     1.0  0.08116  0.81427  0.26540  1.0000
  H   H1263     1.0  0.22336  0.75872  0.23858  1.0000
  H   H1264     1.0  0.19957  0.81511  0.24737  1.0000
  H   H1265     1.0  0.00272  0.92625  0.37827  1.0000
  C   C1578     1.0  0.27306  0.73146  0.24389  1.0000
  H   H1266     1.0  0.99859  0.78694  0.24214  1.0000
  H   H1267     1.0  0.99815  0.81473  0.40569  1.0000
  C   C1579     1.0  0.15373  0.98438  0.32847  1.0000
  C   C1580     1.0  0.00154  0.83188  0.45171  1.0000
  C   C1581     1.0  0.06457  0.98194  0.32449  1.0000
  H   H1268     1.0  0.00537  0.84466  0.43857  1.0000
  H   H1269     1.0  0.08690  0.88415  0.47995  1.0000
  C   C1582     1.0  0.24569  0.65957  0.29020  1.0000
  H   H1270     1.0  0.99545  0.98742  0.33780  1.0000
  H   H1271     1.0  0.99132  0.90175  0.48046  1.0000
  H   H1272     1.0  0.03464  0.98283  0.34636  1.0000
  C   C1583     1.0  0.99978  0.77141  0.39869  1.0000
  C   C1584     1.0  0.01071  0.92298  0.48115  1.0000
  C   C1585     1.0  0.00723  0.80945  0.48551  1.0000
  C   C1586     1.0  0.02852  0.98858  0.44033  1.0000
  C   C1587     1.0  0.06879  0.75774  0.48580  1.0000
  P   P55       1.0  0.01988  0.80275  0.50780  1.0000
  C   C1588     1.0  0.01668  0.93223  0.49460  1.0000
  S   S214      1.0  0.07519  0.84307  0.54175  1.0000
  H   H1273     1.0  0.08603  0.75249  0.60427  1.0000
  S   S215      1.0  0.37843  0.69771  0.62949  1.0000
  Fe  Fe106     1.0  0.23602  0.75659  0.66025  1.0000
  S   S216      1.0  0.21371  0.78645  0.66640  1.0000
  S   S217      1.0  0.22576  0.72548  0.67110  1.0000
  Fe  Fe107     1.0  0.27260  0.77829  0.63769  1.0000
  S   S218      1.0  0.25326  0.80993  0.64271  1.0000
  S   S219      1.0  0.30519  0.77855  0.61743  1.0000
  Fe  Fe108     1.0  0.24101  0.79301  0.67507  1.0000
  S   S220      1.0  0.23428  0.80833  0.70248  1.0000
  Fe  Fe109     1.0  0.22786  0.80064  0.63338  1.0000
  S   S221      1.0  0.20848  0.82579  0.61259  1.0000
  S   S222      1.0  0.26274  0.76193  0.67133  1.0000
  S   S223      1.0  0.24789  0.77009  0.62610  1.0000
  H   H1274     1.0  0.27792  0.79500  0.68399  1.0000
  C   C1589     1.0  0.05952  0.78198  0.51611  1.0000
  Fe  Fe110     1.0  0.12683  0.81165  0.56022  1.0000
  S   S224      1.0  0.09605  0.81727  0.58308  1.0000
  S   S225      1.0  0.15578  0.78983  0.57017  1.0000
  Fe  Fe111     1.0  0.08225  0.80956  0.55976  1.0000
  S   S226      1.0  0.06251  0.78453  0.57051  1.0000
  Fe  Fe112     1.0  0.09169  0.85030  0.56333  1.0000
  S   S227      1.0  0.07649  0.87891  0.57753  1.0000
  S   S228      1.0  0.11353  0.80142  0.53828  1.0000
  H   H1275     1.0  0.31062  0.78975  0.69684  1.0000
  H   H1276     1.0  0.25356  0.68746  0.66074  1.0000
  S   S229      1.0  0.12727  0.95173  0.55890  1.0000
  H   H1277     1.0  0.07898  0.74443  0.64329  1.0000
  C   C1590     1.0  0.21613  0.71111  0.61594  1.0000
  C   C1591     1.0  0.09065  0.89925  0.57156  1.0000
  C   C1592     1.0  0.11244  0.89561  0.56378  1.0000
  C   C1593     1.0  0.12352  0.91188  0.55976  1.0000
  C   C1594     1.0  0.11289  0.93183  0.56364  1.0000
  C   C1595     1.0  0.09107  0.93553  0.57136  1.0000
  C   C1596     1.0  0.08001  0.91927  0.57521  1.0000
  H   H1278     1.0  0.12083  0.88012  0.56141  1.0000
  H   H1279     1.0  0.14039  0.90887  0.55386  1.0000
  H   H1280     1.0  0.08271  0.95088  0.57439  1.0000
  H   H1281     1.0  0.06316  0.92229  0.58089  1.0000
  C   C1597     1.0  0.03546  0.79084  0.58185  1.0000
  C   C1598     1.0  0.02668  0.77560  0.59798  1.0000
  H   H1282     1.0  0.20029  0.78048  0.72558  1.0000
  H   H1283     1.0  0.14055  0.88752  0.52610  1.0000
  Fe  Fe113     1.0  0.10842  0.98301  0.56585  1.0000
  C   C1599     1.0  0.02235  0.80983  0.57422  1.0000
  H   H1284     1.0  0.03671  0.76086  0.60383  1.0000
  H   H1285     1.0  0.02729  0.89922  0.61414  1.0000
  S   S230      1.0  0.31780  0.79361  0.73581  1.0000
  H   H1286     1.0  0.02908  0.82152  0.56159  1.0000
  C   C1600     1.0  0.19414  0.81595  0.60032  1.0000
  C   C1601     1.0  0.19788  0.79432  0.60112  1.0000
  C   C1602     1.0  0.18630  0.78655  0.59138  1.0000
  C   C1603     1.0  0.17061  0.80031  0.58124  1.0000
  C   C1604     1.0  0.16675  0.82199  0.58047  1.0000
  C   C1605     1.0  0.17868  0.82985  0.58985  1.0000
  H   H1287     1.0  0.20974  0.78356  0.60916  1.0000
  H   H1288     1.0  0.18928  0.76979  0.59196  1.0000
  H   H1289     1.0  0.15442  0.83258  0.57292  1.0000
  H   H1290     1.0  0.17558  0.84658  0.58937  1.0000
  C   C1606     1.0  0.21007  0.72161  0.69655  1.0000
  C   C1607     1.0  0.19559  0.73843  0.70410  1.0000
  C   C1608     1.0  0.21158  0.70123  0.70918  1.0000
  H   H1291     1.0  0.19407  0.75413  0.69438  1.0000
  H   H1292     1.0  0.22296  0.68828  0.70347  1.0000
  C   C1609     1.0  0.35780  0.71997  0.62649  1.0000
  C   C1610     1.0  0.36177  0.73821  0.61152  1.0000
  C   C1611     1.0  0.34549  0.75609  0.60890  1.0000
  C   C1612     1.0  0.32514  0.75583  0.62120  1.0000
  C   C1613     1.0  0.32116  0.73768  0.63630  1.0000
  C   C1614     1.0  0.33745  0.71970  0.63887  1.0000
  H   H1293     1.0  0.37743  0.73853  0.60192  1.0000
  H   H1294     1.0  0.34865  0.77015  0.59728  1.0000
  H   H1295     1.0  0.30545  0.73738  0.64583  1.0000
  H   H1296     1.0  0.33410  0.70557  0.65026  1.0000
  H   H1297     1.0  0.15948  0.96813  0.52179  1.0000
  C   C1615     1.0  0.07617  0.91936  0.52457  1.0000
  C   C1616     1.0  0.25742  0.80396  0.71189  1.0000
  C   C1617     1.0  0.27703  0.79748  0.69939  1.0000
  C   C1618     1.0  0.29557  0.79460  0.70668  1.0000
  P   P56       1.0  0.15159  0.74710  0.64616  1.0000
  H   H1298     1.0  0.42061  0.67171  0.59831  1.0000
  C   C1619     1.0  0.16035  0.96471  0.50672  1.0000
  C   C1620     1.0  0.31045  0.73818  0.70888  1.0000
  C   C1621     1.0  0.32483  0.73672  0.69005  1.0000
  C   C1622     1.0  0.34546  0.73924  0.68760  1.0000
  Fe  Fe114     1.0  0.37287  0.65789  0.70443  1.0000
  C   C1623     1.0  0.00038  0.81325  0.58247  1.0000
  H   H1299     1.0  0.34484  0.82234  0.68788  1.0000
  C   C1624     1.0  0.01135  0.77458  0.54669  1.0000
  H   H1300     1.0  0.23135  0.70233  0.60943  1.0000
  H   H1301     1.0  0.13644  0.80804  0.71931  1.0000
  H   H1302     1.0  0.16992  0.76785  0.66811  1.0000
  H   H1303     1.0  0.30468  0.85591  0.70860  1.0000
  C   C1625     1.0  0.04625  0.85278  0.50358  1.0000
  H   H1304     1.0  0.25325  0.68365  0.71984  1.0000
  H   H1305     1.0  0.05618  0.79130  0.52790  1.0000
  S   S231      1.0  0.35229  0.68585  0.68812  1.0000
  H   H1306     1.0  0.13256  0.82411  0.61798  1.0000
  C   C1626     1.0  0.39573  0.80288  0.69385  1.0000
  H   H1307     1.0  0.47088  0.67026  0.65071  1.0000
  H   H1308     1.0  0.31990  0.73349  0.67741  1.0000
  H   H1309     1.0  0.35605  0.73842  0.67256  1.0000
  H   H1310     1.0  0.02874  0.94156  0.48876  1.0000
  C   C1627     1.0  0.15677  0.88512  0.51774  1.0000
  C   C1628     1.0  0.28108  0.66674  0.64666  1.0000
  C   C1629     1.0  0.40602  0.74787  0.66157  1.0000
  H   H1311     1.0  0.12099  0.76023  0.68229  1.0000
  H   H1312     1.0  0.32476  0.68373  0.61438  1.0000
  C   C1630     1.0  0.46642  0.66276  0.64060  1.0000
  P   P57       1.0  0.00209  0.93675  0.59061  1.0000
  H   H1313     1.0  0.01980  0.96708  0.60129  1.0000
  C   C1631     1.0  0.40552  0.70650  0.66105  1.0000
  H   H1314     1.0  0.08170  0.88788  0.51947  1.0000
  C   C1632     1.0  0.14785  0.80066  0.72928  1.0000
  C   C1633     1.0  0.28194  0.66020  0.71984  1.0000
  H   H1315     1.0  0.11779  0.88855  0.49849  1.0000
  H   H1316     1.0  0.47124  0.65708  0.52284  1.0000
  H   H1317     1.0  0.36737  0.66677  0.57721  1.0000
  H   H1318     1.0  0.40443  0.69085  0.66057  1.0000
  C   C1634     1.0  0.13314  0.96594  0.63016  1.0000
  H   H1319     1.0  0.16950  0.80540  0.66563  1.0000
  C   C1635     1.0  0.08815  0.90190  0.51640  1.0000
  C   C1636     1.0  0.15414  0.96055  0.61992  1.0000
  C   C1637     1.0  0.38255  0.65956  0.58150  1.0000
  C   C1638     1.0  0.12082  0.95055  0.63830  1.0000
  C   C1639     1.0  0.12950  0.92969  0.63632  1.0000
  C   C1640     1.0  0.15066  0.92405  0.62614  1.0000
  C   C1641     1.0  0.16293  0.93968  0.61796  1.0000
  P   P58       1.0  0.16203  0.89722  0.62300  1.0000
  C   C1642     1.0  0.14103  0.88291  0.62841  1.0000
  C   C1643     1.0  0.17616  0.89792  0.59611  1.0000
  C   C1644     1.0  0.19354  0.88193  0.59106  1.0000
  C   C1645     1.0  0.20337  0.88176  0.57007  1.0000
  C   C1646     1.0  0.19617  0.89786  0.55396  1.0000
  C   C1647     1.0  0.17920  0.91414  0.55889  1.0000
  C   C1648     1.0  0.16914  0.91408  0.57985  1.0000
  C   C1649     1.0  0.13157  0.87512  0.64934  1.0000
  C   C1650     1.0  0.11467  0.86486  0.65374  1.0000
  C   C1651     1.0  0.10718  0.86219  0.63731  1.0000
  C   C1652     1.0  0.11662  0.86972  0.61649  1.0000
  C   C1653     1.0  0.13344  0.88008  0.61200  1.0000
  C   C1654     1.0  0.17965  0.88364  0.64090  1.0000
  C   C1655     1.0  0.18859  0.89484  0.65004  1.0000
  C   C1656     1.0  0.20247  0.88396  0.66358  1.0000
  C   C1657     1.0  0.20754  0.86188  0.66805  1.0000
  C   C1658     1.0  0.19872  0.85068  0.65901  1.0000
  C   C1659     1.0  0.18477  0.86147  0.64561  1.0000
  C   C1660     1.0  0.00293  0.79107  0.53135  1.0000
  C   C1661     1.0  0.00316  0.91246  0.58326  1.0000
  C   C1662     1.0  0.15085  0.81710  0.64186  1.0000
  H   H1320     1.0  0.11943  0.91825  0.64238  1.0000
  H   H1321     1.0  0.17915  0.93581  0.60971  1.0000
  H   H1322     1.0  0.19934  0.86934  0.60322  1.0000
  H   H1323     1.0  0.21633  0.86891  0.56636  1.0000
  H   H1324     1.0  0.20358  0.89765  0.53768  1.0000
  H   H1325     1.0  0.17341  0.92664  0.54651  1.0000
  H   H1326     1.0  0.15562  0.92646  0.58335  1.0000
  H   H1327     1.0  0.13710  0.87724  0.66222  1.0000
  H   H1328     1.0  0.10737  0.85897  0.66989  1.0000
  H   H1329     1.0  0.09411  0.85424  0.64061  1.0000
  H   H1330     1.0  0.11078  0.86757  0.60379  1.0000
  H   H1331     1.0  0.14029  0.88598  0.59574  1.0000
  H   H1332     1.0  0.18490  0.91191  0.64682  1.0000
  H   H1333     1.0  0.20929  0.89264  0.67065  1.0000
  H   H1334     1.0  0.21826  0.85333  0.67851  1.0000
  H   H1335     1.0  0.20289  0.83358  0.66223  1.0000
  H   H1336     1.0  0.17832  0.85249  0.63855  1.0000
  C   C1663     1.0  0.33167  0.78809  0.64998  1.0000
  C   C1664     1.0  0.35319  0.78836  0.64535  1.0000
  C   C1665     1.0  0.35980  0.80765  0.63864  1.0000
  C   C1666     1.0  0.34490  0.82664  0.63614  1.0000
  C   C1667     1.0  0.32329  0.82637  0.63987  1.0000
  C   C1668     1.0  0.31679  0.80698  0.64725  1.0000
  P   P59       1.0  0.30356  0.85051  0.63745  1.0000
  C   C1669     1.0  0.29129  0.85272  0.66419  1.0000
  C   C1670     1.0  0.31549  0.87283  0.62321  1.0000
  C   C1671     1.0  0.31110  0.89110  0.63126  1.0000
  C   C1672     1.0  0.32001  0.90850  0.61965  1.0000
  C   C1673     1.0  0.33312  0.90786  0.59987  1.0000
  C   C1674     1.0  0.33725  0.88986  0.59161  1.0000
  C   C1675     1.0  0.32836  0.87244  0.60317  1.0000
  C   C1676     1.0  0.27014  0.85099  0.67268  1.0000
  C   C1677     1.0  0.26127  0.85231  0.69360  1.0000
  C   C1678     1.0  0.27367  0.85425  0.70648  1.0000
  C   C1679     1.0  0.29491  0.85523  0.69836  1.0000
  C   C1680     1.0  0.30367  0.85460  0.67727  1.0000
  C   C1681     1.0  0.28541  0.85010  0.62190  1.0000
  C   C1682     1.0  0.29083  0.83587  0.60851  1.0000
  C   C1683     1.0  0.27673  0.83563  0.59651  1.0000
  C   C1684     1.0  0.25721  0.84971  0.59765  1.0000
  C   C1685     1.0  0.25202  0.86447  0.61033  1.0000
  C   C1686     1.0  0.26622  0.86491  0.62215  1.0000
  H   H1337     1.0  0.32641  0.77322  0.65523  1.0000
  H   H1338     1.0  0.36464  0.77360  0.64709  1.0000
  H   H1339     1.0  0.37646  0.80785  0.63548  1.0000
  H   H1340     1.0  0.35032  0.84139  0.63134  1.0000
  H   H1341     1.0  0.30020  0.80639  0.65053  1.0000
  H   H1342     1.0  0.30060  0.89214  0.64632  1.0000
  H   H1343     1.0  0.31655  0.92259  0.62591  1.0000
  H   H1344     1.0  0.33989  0.92141  0.59084  1.0000
  H   H1345     1.0  0.34717  0.88945  0.57615  1.0000
  H   H1346     1.0  0.33141  0.85869  0.59646  1.0000
  H   H1347     1.0  0.26063  0.84780  0.66360  1.0000
  H   H1348     1.0  0.24508  0.85054  0.70023  1.0000
  H   H1349     1.0  0.16382  0.71019  0.62721  1.0000
  C   C1687     1.0  0.15334  0.94295  0.48669  1.0000
  H   H1350     1.0  0.32022  0.85513  0.67124  1.0000
  H   H1351     1.0  0.30570  0.82456  0.60757  1.0000
  H   H1352     1.0  0.28063  0.82390  0.58700  1.0000
  H   H1353     1.0  0.24593  0.84884  0.58906  1.0000
  H   H1354     1.0  0.23683  0.87528  0.61126  1.0000
  H   H1355     1.0  0.26205  0.87655  0.63175  1.0000
  H   H1356     1.0  0.40952  0.80802  0.69463  1.0000
  S   S232      1.0  0.12387  0.84534  0.54251  1.0000
  C   C1688     1.0  0.35991  0.78956  0.69257  1.0000
  H   H1357     1.0  0.13293  0.78729  0.61975  1.0000
  C   C1689     1.0  0.04970  0.77247  0.48823  1.0000
  H   H1358     1.0  0.22756  0.66779  0.65774  1.0000
  H   H1359     1.0  0.42483  0.74921  0.63014  1.0000
  H   H1360     1.0  0.40593  0.76409  0.66117  1.0000
  C   C1690     1.0  0.35211  0.74255  0.70441  1.0000
  C   C1691     1.0  0.15656  0.70714  0.70334  1.0000
  C   C1692     1.0  0.19759  0.70449  0.61725  1.0000
  C   C1693     1.0  0.33739  0.74427  0.72327  1.0000
  C   C1694     1.0  0.35939  0.81105  0.68988  1.0000
  H   H1361     1.0  0.40788  0.70610  0.71436  1.0000
  H   H1362     1.0  0.34581  0.78472  0.69238  1.0000
  H   H1363     1.0  0.14757  0.93672  0.52060  1.0000
  C   C1695     1.0  0.37824  0.77455  0.69611  1.0000
  C   C1696     1.0  0.01211  0.85772  0.52709  1.0000
  H   H1364     1.0  0.37676  0.83439  0.68870  1.0000
  C   C1697     1.0  0.03095  0.86454  0.51684  1.0000
  H   H1365     1.0  0.12199  0.75613  0.58386  1.0000
  C   C1698     1.0  0.15341  0.94701  0.50602  1.0000
  C   C1699     1.0  0.09476  0.74582  0.63442  1.0000
  C   C1700     1.0  0.17681  0.73388  0.63323  1.0000
  C   C1701     1.0  0.41672  0.73952  0.64386  1.0000
  C   C1702     1.0  0.13522  0.75001  0.61133  1.0000
  C   C1703     1.0  0.27648  0.70485  0.64038  1.0000
  C   C1704     1.0  0.39497  0.73550  0.67916  1.0000
  H   H1366     1.0  0.16690  0.69272  0.70946  1.0000
  S   S233      1.0  0.39072  0.65707  0.72877  1.0000
  H   H1367     1.0  0.09796  0.74372  0.49665  1.0000
  H   H1368     1.0  0.08953  0.76520  0.52374  1.0000
  H   H1369     1.0  0.06049  0.91883  0.53413  1.0000
  C   C1705     1.0  0.39494  0.71471  0.67877  1.0000
  C   C1706     1.0  0.11898  0.75220  0.60092  1.0000
  C   C1707     1.0  0.41632  0.71888  0.64354  1.0000
  Fe  Fe115     1.0  0.36870  0.67412  0.65880  1.0000
  C   C1708     1.0  0.38872  0.73440  0.72478  1.0000
  H   H1370     1.0  0.26699  0.71993  0.64326  1.0000
  C   C1709     1.0  0.00625  0.87278  0.57518  1.0000
  H   H1371     1.0  0.16340  0.97275  0.61318  1.0000
  H   H1372     1.0  0.17273  0.70784  0.67140  1.0000
  C   C1710     1.0  0.00875  0.83898  0.52445  1.0000
  C   C1711     1.0  0.15149  0.77456  0.64415  1.0000
  H   H1373     1.0  0.02817  0.76867  0.54515  1.0000
  C   C1712     1.0  0.21508  0.72899  0.62331  1.0000
  C   C1713     1.0  0.09872  0.75022  0.61244  1.0000
  H   H1374     1.0  0.04243  0.98379  0.53327  1.0000
  C   C1714     1.0  0.10868  0.90226  0.50468  1.0000
  H   H1375     1.0  0.19838  0.69056  0.61165  1.0000
  C   C1715     1.0  0.26888  0.68633  0.65029  1.0000
  H   H1376     1.0  0.38609  0.68769  0.58868  1.0000
  H   H1377     1.0  0.27547  0.66079  0.61066  1.0000
  C   C1716     1.0  0.02194  0.93349  0.60557  1.0000
  C   C1717     1.0  0.02754  0.95132  0.60802  1.0000
  C   C1718     1.0  0.04356  0.94896  0.61878  1.0000
  C   C1719     1.0  0.05380  0.92880  0.62754  1.0000
  C   C1720     1.0  0.04769  0.91097  0.62596  1.0000
  C   C1721     1.0  0.03164  0.91327  0.61524  1.0000
  C   C1722     1.0  0.02545  0.96249  0.55767  1.0000
  P   P60       1.0  0.37860  0.74668  0.70101  1.0000
  C   C1723     1.0  0.12773  0.73655  0.70959  1.0000
  H   H1378     1.0  0.03370  0.87882  0.51932  1.0000
  C   C1724     1.0  0.14060  0.71750  0.71726  1.0000
  H   H1379     1.0  0.38606  0.70505  0.69193  1.0000
  C   C1725     1.0  0.19554  0.74025  0.63208  1.0000
  C   C1726     1.0  0.00497  0.77927  0.60661  1.0000
  H   H1380     1.0  0.42382  0.71261  0.62957  1.0000
  C   C1727     1.0  0.02427  0.88134  0.57053  1.0000
  C   C1728     1.0  0.02271  0.90121  0.57436  1.0000
  C   C1729     1.0  0.08468  0.93728  0.52091  1.0000
  H   H1381     1.0  0.29452  0.73628  0.71048  1.0000
  Fe  Fe116     1.0  0.10786  0.83557  0.52234  1.0000
  H   H1382     1.0  0.22946  0.73387  0.62276  1.0000
  C   C1730     1.0  0.41263  0.66208  0.59371  1.0000
  H   H1383     1.0  0.09669  0.81208  0.49765  1.0000
  H   H1384     1.0  0.04817  0.96284  0.62006  1.0000
  H   H1385     1.0  0.06652  0.92704  0.63543  1.0000
  H   H1386     1.0  0.05573  0.89532  0.63257  1.0000
  C   C1731     1.0  0.00754  0.92897  0.51607  1.0000
  H   H1387     1.0  0.03876  0.95578  0.56534  1.0000
  H   H1388     1.0  0.20415  0.85266  0.52360  1.0000
  C   C1732     1.0  0.37729  0.81774  0.69048  1.0000
  H   H1389     1.0  0.30193  0.71836  0.61896  1.0000
  H   H1390     1.0  0.01236  0.93601  0.52632  1.0000
  H   H1391     1.0  0.17442  0.79754  0.70334  1.0000
  H   H1392     1.0  0.12347  0.98451  0.48644  1.0000
  H   H1393     1.0  0.31888  0.69099  0.72891  1.0000
  H   H1394     1.0  0.03959  0.87232  0.56460  1.0000
  H   H1395     1.0  0.03690  0.90741  0.57119  1.0000
  C   C1733     1.0  0.04491  0.78460  0.50350  1.0000
  C   C1734     1.0  0.07843  0.76706  0.51386  1.0000
  H   H1396     1.0  0.99021  0.82769  0.57637  1.0000
  C   C1735     1.0  0.01077  0.98727  0.52906  1.0000
  C   C1736     1.0  0.29631  0.70394  0.62696  1.0000
  C   C1737     1.0  0.02414  0.82693  0.51143  1.0000
  C   C1738     1.0  0.04276  0.83417  0.50075  1.0000
  C   C1739     1.0  0.14035  0.81186  0.62923  1.0000
  C   C1740     1.0  0.08308  0.75493  0.49870  1.0000
  C   C1741     1.0  0.30145  0.66588  0.63390  1.0000
  H   H1397     1.0  0.19528  0.75367  0.63818  1.0000
  C   C1742     1.0  0.39618  0.78133  0.69676  1.0000
  C   C1743     1.0  0.14679  0.73488  0.67386  1.0000
  H   H1398     1.0  0.15133  0.83343  0.64029  1.0000
  C   C1744     1.0  0.17801  0.71574  0.62596  1.0000
  H   H1399     1.0  0.10437  0.95498  0.64571  1.0000
  C   C1745     1.0  0.39311  0.67134  0.58796  1.0000
  C   C1746     1.0  0.14072  0.79072  0.63025  1.0000
  C   C1747     1.0  0.00602  0.95607  0.56619  1.0000
  C   C1748     1.0  0.16295  0.89805  0.49807  1.0000
  C   C1749     1.0  0.13082  0.74524  0.68798  1.0000
  C   C1750     1.0  0.16158  0.78002  0.65720  1.0000
  C   C1751     1.0  0.16129  0.80123  0.65598  1.0000
  H   H1400     1.0  0.41039  0.76991  0.69981  1.0000
  C   C1752     1.0  0.19277  0.86544  0.51651  1.0000
  C   C1753     1.0  0.15976  0.71581  0.68173  1.0000
  C   C1754     1.0  0.30902  0.68443  0.62411  1.0000
  H   H1401     1.0  0.25988  0.75532  0.71708  1.0000
  C   C1755     1.0  0.17162  0.86889  0.52690  1.0000
  C   C1756     1.0  0.11094  0.74387  0.64489  1.0000
  C   C1757     1.0  0.13125  0.74625  0.63338  1.0000
  C   C1758     1.0  0.16767  0.97831  0.48806  1.0000
  H   H1402     1.0  0.15065  0.75232  0.60209  1.0000
  H   H1403     1.0  0.00012  0.86680  0.53727  1.0000
  H   H1404     1.0  0.16668  0.85887  0.54203  1.0000
  H   H1405     1.0  0.19553  0.66957  0.68583  1.0000
  H   H1406     1.0  0.10738  0.74097  0.66186  1.0000
  H   H1407     1.0  0.25816  0.71798  0.71979  1.0000
  S   S234      1.0  0.29652  0.67670  0.69984  1.0000
  C   C1759     1.0  0.19883  0.69763  0.72937  1.0000
  C   C1760     1.0  0.24824  0.74793  0.72914  1.0000
  C   C1761     1.0  0.19914  0.87843  0.49703  1.0000
  Fe  Fe117     1.0  0.33116  0.66362  0.69168  1.0000
  C   C1762     1.0  0.26052  0.66792  0.72695  1.0000
  H   H1408     1.0  0.99426  0.83387  0.53278  1.0000
  C   C1763     1.0  0.18261  0.73480  0.72417  1.0000
  C   C1764     1.0  0.11758  0.91997  0.50145  1.0000
  H   H1409     1.0  0.99838  0.76738  0.61910  1.0000
  C   C1765     1.0  0.29450  0.79736  0.72681  1.0000
  H   H1410     1.0  0.26701  0.85411  0.72297  1.0000
  H   H1411     1.0  0.21555  0.87578  0.48898  1.0000
  C   C1766     1.0  0.16918  0.79473  0.72027  1.0000
  H   H1412     1.0  0.11563  0.74471  0.72048  1.0000
  H   H1413     1.0  0.07556  0.95072  0.52753  1.0000
  C   C1767     1.0  0.99571  0.91002  0.48986  1.0000
  C   C1768     1.0  0.10526  0.93766  0.50931  1.0000
  C   C1769     1.0  0.02772  0.97820  0.53926  1.0000
  C   C1770     1.0  0.18432  0.89477  0.48789  1.0000
  H   H1414     1.0  0.06105  0.85776  0.49571  1.0000
  H   H1415     1.0  0.00467  0.75353  0.57680  1.0000
  C   C1771     1.0  0.31664  0.74211  0.72544  1.0000
  C   C1772     1.0  0.24721  0.72704  0.73071  1.0000
  S   S235      1.0  0.11664  0.84813  0.48747  1.0000
  C   C1773     1.0  0.99801  0.76578  0.56478  1.0000
  C   C1774     1.0  0.99220  0.91661  0.52434  1.0000
  H   H1416     1.0  0.43456  0.66385  0.65838  1.0000
  H   H1417     1.0  0.05462  0.82541  0.49026  1.0000
  C   C1775     1.0  0.48116  0.65647  0.62339  1.0000
  H   H1418     1.0  0.17122  0.74773  0.72991  1.0000
  C   C1776     1.0  0.40304  0.71487  0.72666  1.0000
  P   P61       1.0  0.14427  0.91988  0.48651  1.0000
  H   H1419     1.0  0.11142  0.95173  0.50678  1.0000
  H   H1420     1.0  0.00761  0.85708  0.57291  1.0000
  H   H1421     1.0  0.35566  0.69353  0.73365  1.0000
  H   H1422     1.0  0.12626  0.98216  0.63141  1.0000
  C   C1777     1.0  0.99164  0.98050  0.53707  1.0000
  C   C1778     1.0  0.25631  0.80718  0.73185  1.0000
  C   C1779     1.0  0.44590  0.65929  0.64485  1.0000
  C   C1780     1.0  0.22845  0.65843  0.67342  1.0000
  C   C1781     1.0  0.18391  0.78492  0.73306  1.0000
  C   C1782     1.0  0.21018  0.65933  0.68925  1.0000
  H   H1423     1.0  0.13862  0.71100  0.73406  1.0000
  C   C1783     1.0  0.99167  0.79790  0.59868  1.0000
  Fe  Fe118     1.0  0.42675  0.81413  0.91490  1.0000
  S   S236      1.0  0.44270  0.84158  0.90062  1.0000
  S   S237      1.0  0.42273  0.79956  0.94965  1.0000
  Fe  Fe119     1.0  0.42019  0.81090  0.87257  1.0000
  S   S238      1.0  0.43515  0.83866  0.85499  1.0000
  S   S239      1.0  0.41358  0.78986  0.85473  1.0000
  Fe  Fe120     1.0  0.45958  0.82447  0.87478  1.0000
  C   C1784     1.0  0.34424  0.69689  0.86128  1.0000
  Fe  Fe121     1.0  0.41692  0.85356  0.88218  1.0000
  S   S240      1.0  0.39916  0.88737  0.87742  1.0000
  S   S241      1.0  0.44601  0.79558  0.89070  1.0000
  S   S242      1.0  0.39957  0.82704  0.89823  1.0000
  Fe  Fe122     1.0  0.32003  0.77977  0.81247  1.0000
  S   S243      1.0  0.31245  0.74781  0.82724  1.0000
  S   S244      1.0  0.32454  0.80079  0.83168  1.0000
  Fe  Fe123     1.0  0.31416  0.77741  0.76996  1.0000
  S   S245      1.0  0.30576  0.74529  0.78145  1.0000
  C   C1785     1.0  0.33175  0.96158  0.81349  1.0000
  Fe  Fe124     1.0  0.28612  0.75775  0.80961  1.0000
  S   S246      1.0  0.25303  0.75364  0.82685  1.0000
  Fe  Fe125     1.0  0.33265  0.73800  0.79796  1.0000
  S   S247      1.0  0.35618  0.70729  0.80197  1.0000
  S   S248      1.0  0.29219  0.79073  0.79667  1.0000
  S   S249      1.0  0.34262  0.76917  0.78451  1.0000
  C   C1786     1.0  0.34230  0.84938  0.79232  1.0000
  H   H1424     1.0  0.30520  0.74383  0.73982  1.0000
  H   H1425     1.0  0.39031  0.85854  0.80166  1.0000
  C   C1787     1.0  0.23388  0.79764  0.78841  1.0000
  C   C1788     1.0  0.32106  0.94781  0.82970  1.0000
  H   H1426     1.0  0.16821  0.65797  0.88421  1.0000
  H   H1427     1.0  0.42143  0.69056  0.74660  1.0000
  C   C1789     1.0  0.34931  0.95350  0.79935  1.0000
  C   C1790     1.0  0.41562  0.89387  0.82089  1.0000
  Fe  Fe126     1.0  0.18207  0.68037  0.78297  1.0000
  H   H1428     1.0  0.32107  0.69132  0.92324  1.0000
  C   C1791     1.0  0.47286  0.97224  0.81163  1.0000
  S   S250      1.0  0.16774  0.67500  0.81736  1.0000
  C   C1792     1.0  0.40176  0.92413  0.95905  1.0000
  C   C1793     1.0  0.15600  0.78731  0.76402  1.0000
  C   C1794     1.0  0.28719  0.76893  0.87109  1.0000
  H   H1429     1.0  0.33736  0.67539  0.83283  1.0000
  C   C1795     1.0  0.35628  0.93164  0.80143  1.0000
  H   H1430     1.0  0.28364  0.78604  0.86675  1.0000
  H   H1431     1.0  0.48695  0.92402  0.73629  1.0000
  C   C1796     1.0  0.46857  0.88831  0.83520  1.0000
  C   C1797     1.0  0.29749  0.72459  0.87999  1.0000
  C   C1798     1.0  0.37086  0.87184  0.94561  1.0000
  C   C1799     1.0  0.36351  0.69289  0.78193  1.0000
  C   C1800     1.0  0.35452  0.69938  0.76404  1.0000
  H   H1432     1.0  0.33812  0.96150  0.96591  1.0000
  S   S251      1.0  0.16834  0.71016  0.76203  1.0000
  H   H1433     1.0  0.33953  0.90968  0.78190  1.0000
  C   C1801     1.0  0.37952  0.67480  0.78378  1.0000
  H   H1434     1.0  0.34201  0.71322  0.76262  1.0000
  C   C1802     1.0  0.27483  0.80343  0.73951  1.0000
  C   C1803     1.0  0.34183  0.66765  0.89144  1.0000
  C   C1804     1.0  0.44948  0.73348  0.96927  1.0000
  C   C1805     1.0  0.24385  0.73004  0.83155  1.0000
  C   C1806     1.0  0.23472  0.72139  0.85220  1.0000
  C   C1807     1.0  0.22559  0.70370  0.85663  1.0000
  C   C1808     1.0  0.22445  0.69502  0.84037  1.0000
  C   C1809     1.0  0.23324  0.70381  0.81955  1.0000
  C   C1810     1.0  0.24314  0.72120  0.81514  1.0000
  H   H1435     1.0  0.23441  0.72858  0.86485  1.0000
  H   H1436     1.0  0.21873  0.69714  0.87271  1.0000
  H   H1437     1.0  0.23225  0.69736  0.80688  1.0000
  H   H1438     1.0  0.24958  0.72816  0.79907  1.0000
  C   C1811     1.0  0.36213  0.68812  0.74773  1.0000
  S   S252      1.0  0.44926  0.95306  0.88255  1.0000
  C   C1812     1.0  0.16704  0.72637  0.83327  1.0000
  C   C1813     1.0  0.31683  0.86021  0.87196  1.0000
  H   H1439     1.0  0.44123  0.94901  0.92843  1.0000
  H   H1440     1.0  0.14821  0.72079  0.81453  1.0000
  H   H1441     1.0  0.35733  0.85578  0.89566  1.0000
  C   C1814     1.0  0.41317  0.90571  0.87855  1.0000
  C   C1815     1.0  0.40356  0.92715  0.87606  1.0000
  C   C1816     1.0  0.41443  0.94191  0.87743  1.0000
  C   C1817     1.0  0.43510  0.93523  0.88083  1.0000
  C   C1818     1.0  0.44493  0.91396  0.88251  1.0000
  C   C1819     1.0  0.43390  0.89923  0.88167  1.0000
  H   H1442     1.0  0.38765  0.93228  0.87322  1.0000
  H   H1443     1.0  0.40696  0.95843  0.87552  1.0000
  H   H1444     1.0  0.46112  0.90884  0.88444  1.0000
  H   H1445     1.0  0.44168  0.88294  0.88305  1.0000
  C   C1820     1.0  0.38864  0.79319  0.84860  1.0000
  C   C1821     1.0  0.37130  0.80832  0.85552  1.0000
  C   C1822     1.0  0.35165  0.81028  0.85046  1.0000
  C   C1823     1.0  0.34927  0.79738  0.83824  1.0000
  C   C1824     1.0  0.36660  0.78229  0.83133  1.0000
  C   C1825     1.0  0.38619  0.78018  0.83654  1.0000
  H   H1446     1.0  0.37300  0.81840  0.86484  1.0000
  H   H1447     1.0  0.33827  0.82192  0.85591  1.0000
  H   H1448     1.0  0.36491  0.77225  0.82196  1.0000
  H   H1449     1.0  0.39952  0.76844  0.83117  1.0000
  H   H1450     1.0  0.47688  0.85720  0.82869  1.0000
  C   C1826     1.0  0.42424  0.81564  0.96586  1.0000
  H   H1451     1.0  0.42323  0.84435  0.94200  1.0000
  H   H1452     1.0  0.32654  0.72841  0.88583  1.0000
  C   C1827     1.0  0.36930  0.94518  0.92209  1.0000
  C   C1828     1.0  0.46917  0.98672  0.98141  1.0000
  C   C1829     1.0  0.27790  0.73531  0.87492  1.0000
  C   C1830     1.0  0.27282  0.75740  0.87037  1.0000
  C   C1831     1.0  0.29278  0.68462  0.87108  1.0000
  H   H1453     1.0  0.46483  0.91986  0.83941  1.0000
  C   C1832     1.0  0.37872  0.67043  0.74942  1.0000
  H   H1454     1.0  0.34170  0.74770  0.73620  1.0000
  C   C1833     1.0  0.28236  0.68581  0.83879  1.0000
  C   C1834     1.0  0.29082  0.69479  0.85039  1.0000
  H   H1455     1.0  0.26671  0.72666  0.87401  1.0000
  H   H1456     1.0  0.25802  0.76556  0.86559  1.0000
  C   C1835     1.0  0.27571  0.66668  0.84774  1.0000
  C   C1836     1.0  0.46221  0.95389  0.79076  1.0000
  C   C1837     1.0  0.14127  0.79704  0.75115  1.0000
  H   H1457     1.0  0.28067  0.69392  0.82292  1.0000
  H   H1458     1.0  0.29564  0.70972  0.84318  1.0000
  C   C1838     1.0  0.21751  0.75109  0.75756  1.0000
  H   H1459     1.0  0.45359  0.88583  0.84539  1.0000
  C   C1839     1.0  0.22283  0.81857  0.78603  1.0000
  H   H1460     1.0  0.42127  0.75404  0.96023  1.0000
  C   C1840     1.0  0.48865  0.79619  0.96065  1.0000
  C   C1841     1.0  0.28704  0.66487  0.87962  1.0000
  H   H1461     1.0  0.12475  0.80167  0.75817  1.0000
  C   C1842     1.0  0.32801  0.92593  0.83189  1.0000
  H   H1462     1.0  0.37154  0.75986  0.74061  1.0000
  C   C1843     1.0  0.47468  0.76351  0.84143  1.0000
  H   H1463     1.0  0.37217  0.87385  0.86016  1.0000
  H   H1464     1.0  0.37097  0.86754  0.93117  1.0000
  H   H1465     1.0  0.38320  0.93383  0.91700  1.0000
  H   H1466     1.0  0.38561  0.74371  0.77295  1.0000
  H   H1467     1.0  0.42893  0.85276  0.79631  1.0000
  H   H1468     1.0  0.48207  0.80101  0.90402  1.0000
  C   C1844     1.0  0.35960  0.96048  0.90694  1.0000
  H   H1469     1.0  0.32814  0.89512  0.75776  1.0000
  C   C1845     1.0  0.34511  0.87589  0.84724  1.0000
  C   C1846     1.0  0.39363  0.89720  0.82408  1.0000
  P   P62       1.0  0.30392  0.69610  0.88603  1.0000
  H   H1470     1.0  0.47860  0.85883  0.87654  1.0000
  C   C1847     1.0  0.28770  0.67098  0.78484  1.0000
  H   H1471     1.0  0.16355  0.74338  0.78193  1.0000
  H   H1472     1.0  0.31966  0.91559  0.84473  1.0000
  C   C1848     1.0  0.34422  0.96080  0.94956  1.0000
  H   H1473     1.0  0.31771  0.76740  0.87693  1.0000
  H   H1474     1.0  0.48354  0.94601  0.84729  1.0000
  H   H1475     1.0  0.30153  0.85601  0.87526  1.0000
  C   C1849     1.0  0.34250  0.97614  0.91303  1.0000
  C   C1850     1.0  0.30647  0.75837  0.87678  1.0000
  C   C1851     1.0  0.46799  0.75466  0.86264  1.0000
  H   H1476     1.0  0.46173  0.92183  0.95263  1.0000
  H   H1477     1.0  0.26232  0.68839  0.91001  1.0000
  C   C1852     1.0  0.36367  0.66024  0.88607  1.0000
  H   H1478     1.0  0.37517  0.69759  0.84172  1.0000
  C   C1853     1.0  0.17740  0.78081  0.75508  1.0000
  C   C1854     1.0  0.19120  0.74988  0.81484  1.0000
  H   H1479     1.0  0.15067  0.78477  0.78092  1.0000
  C   C1855     1.0  0.47494  0.90741  0.83182  1.0000
  C   C1856     1.0  0.32846  0.85473  0.88778  1.0000
  H   H1480     1.0  0.26838  0.66017  0.83902  1.0000
  H   H1481     1.0  0.44536  0.87532  0.80835  1.0000
  C   C1857     1.0  0.20687  0.78800  0.77686  1.0000
  P   P63       1.0  0.37383  0.92499  0.96330  1.0000
  H   H1482     1.0  0.32217  0.84637  0.90338  1.0000
  H   H1483     1.0  0.16086  0.71575  0.84743  1.0000
  H   H1484     1.0  0.22907  0.83027  0.78961  1.0000
  C   C1858     1.0  0.48166  0.87218  0.82564  1.0000
  H   H1485     1.0  0.24732  0.68036  0.94806  1.0000
  Fe  Fe127     1.0  0.20111  0.66439  0.82205  1.0000
  H   H1486     1.0  0.47231  0.77032  0.96939  1.0000
  C   C1859     1.0  0.37578  0.67120  0.86838  1.0000
  H   H1487     1.0  0.31785  0.67083  0.80873  1.0000
  C   C1860     1.0  0.31853  0.66621  0.75687  1.0000
  C   C1861     1.0  0.31033  0.68548  0.74464  1.0000
  C   C1862     1.0  0.34055  0.89282  0.78496  1.0000
  H   H1488     1.0  0.37003  0.92566  0.79042  1.0000
  C   C1863     1.0  0.16872  0.74200  0.79626  1.0000
  H   H1489     1.0  0.43113  0.97375  0.96484  1.0000
  C   C1864     1.0  0.18248  0.73692  0.83334  1.0000
  H   H1490     1.0  0.20474  0.72268  0.77096  1.0000
  C   C1865     1.0  0.43495  0.90808  0.97039  1.0000
  C   C1866     1.0  0.43348  0.93779  0.94080  1.0000
  H   H1491     1.0  0.40313  0.95126  0.93301  1.0000
  H   H1492     1.0  0.23483  0.76627  0.78576  1.0000
  C   C1867     1.0  0.44505  0.92243  0.95438  1.0000
  H   H1493     1.0  0.34276  0.83254  0.79539  1.0000
  H   H1494     1.0  0.24111  0.81231  0.74145  1.0000
  S   S253      1.0  0.21538  0.67254  0.78785  1.0000
  C   C1868     1.0  0.34800  0.87929  0.80252  1.0000
  H   H1495     1.0  0.45698  0.73157  0.95340  1.0000
  H   H1496     1.0  0.47583  0.71422  0.98276  1.0000
  H   H1497     1.0  0.41040  0.70920  0.77609  1.0000
  C   C1869     1.0  0.44291  0.95338  0.80506  1.0000
  C   C1870     1.0  0.23360  0.75978  0.74265  1.0000
  C   C1871     1.0  0.18440  0.75247  0.79611  1.0000
  H   H1498     1.0  0.32185  0.98871  0.93903  1.0000
  H   H1499     1.0  0.42265  0.90318  0.82702  1.0000
  H   H1500     1.0  0.42420  0.86653  0.96547  1.0000
  H   H1501     1.0  0.37297  0.83995  0.96392  1.0000
  H   H1502     1.0  0.46699  0.85245  0.94134  1.0000
  C   C1872     1.0  0.41185  0.93882  0.94324  1.0000
  H   H1503     1.0  0.27393  0.80569  0.75502  1.0000
  C   C1873     1.0  0.32980  0.65780  0.81442  1.0000
  C   C1874     1.0  0.37045  0.89282  0.94551  1.0000
  C   C1875     1.0  0.35667  0.87031  0.86321  1.0000
  H   H1504     1.0  0.33695  0.71077  0.85112  1.0000
  C   C1876     1.0  0.31153  0.73627  0.88146  1.0000
  H   H1505     1.0  0.30750  0.95415  0.84069  1.0000
  C   C1877     1.0  0.40486  0.71646  0.76158  1.0000
  C   C1878     1.0  0.34890  0.85750  0.80602  1.0000
  C   C1879     1.0  0.42835  0.87812  0.81054  1.0000
  H   H1506     1.0  0.35459  0.84675  0.81944  1.0000
  C   C1880     1.0  0.36153  0.94500  0.94359  1.0000
  C   C1881     1.0  0.42427  0.83718  0.95812  1.0000
  C   C1882     1.0  0.37191  0.85632  0.96404  1.0000
  H   H1507     1.0  0.38403  0.90909  0.83269  1.0000
  H   H1508     1.0  0.32655  0.97856  0.81190  1.0000
  H   H1509     1.0  0.45266  0.88950  0.92594  1.0000
  C   C1883     1.0  0.37130  0.89850  0.96385  1.0000
  C   C1884     1.0  0.27957  0.69023  0.77252  1.0000
  H   H1510     1.0  0.42357  0.96199  0.83368  1.0000
  C   C1885     1.0  0.22602  0.78243  0.78376  1.0000
  Fe  Fe128     1.0  0.42953  0.98398  0.88914  1.0000
  H   H1511     1.0  0.35758  0.96434  0.78690  1.0000
  C   C1886     1.0  0.41348  0.90898  0.97273  1.0000
  C   C1887     1.0  0.16000  0.72911  0.81477  1.0000
  C   C1888     1.0  0.29095  0.69748  0.75251  1.0000
  C   C1889     1.0  0.32505  0.87084  0.85178  1.0000
  C   C1890     1.0  0.34830  0.85990  0.88342  1.0000
  C   C1891     1.0  0.20378  0.82429  0.77909  1.0000
  H   H1512     1.0  0.45123  0.75548  0.86918  1.0000
  H   H1513     1.0  0.28913  0.65631  0.89524  1.0000
  C   C1892     1.0  0.36601  0.68937  0.85586  1.0000
  C   C1893     1.0  0.34574  0.91766  0.81780  1.0000
  C   C1894     1.0  0.33402  0.88462  0.77121  1.0000
  P   P64       1.0  0.35570  0.88946  0.82108  1.0000
  C   C1895     1.0  0.38418  0.88491  0.81676  1.0000
  H   H1514     1.0  0.26435  0.69946  0.77835  1.0000
  C   C1896     1.0  0.39708  0.86875  0.80684  1.0000
  S   S254      1.0  0.21169  0.67341  0.84710  1.0000
  H   H1515     1.0  0.38645  0.66964  0.79758  1.0000
  C   C1897     1.0  0.30522  0.68821  0.92848  1.0000
  H   H1516     1.0  0.36581  0.96072  0.89038  1.0000
  H   H1517     1.0  0.31584  0.87493  0.83970  1.0000
  C   C1898     1.0  0.41908  0.86545  0.80369  1.0000
  H   H1518     1.0  0.46558  0.94696  0.77719  1.0000
  H   H1519     1.0  0.24853  0.79307  0.79398  1.0000
  H   H1520     1.0  0.37005  0.90420  0.93085  1.0000
  C   C1899     1.0  0.29335  0.68888  0.91385  1.0000
  P   P65       1.0  0.19641  0.76803  0.77175  1.0000
  H   H1521     1.0  0.20355  0.75736  0.81524  1.0000
  C   C1900     1.0  0.45345  0.97165  0.82590  1.0000
  H   H1522     1.0  0.19522  0.84052  0.77721  1.0000
  C   C1901     1.0  0.21702  0.72985  0.75966  1.0000
  C   C1902     1.0  0.38715  0.66370  0.76759  1.0000
  C   C1903     1.0  0.41104  0.70598  0.74499  1.0000
  H   H1523     1.0  0.27861  0.66572  0.80032  1.0000
  H   H1524     1.0  0.33262  0.65875  0.90492  1.0000
  C   C1904     1.0  0.33484  0.86292  0.77492  1.0000
  C   C1905     1.0  0.33206  0.68637  0.87938  1.0000
  H   H1525     1.0  0.18818  0.73457  0.84759  1.0000
  C   C1906     1.0  0.19574  0.80906  0.77462  1.0000
  H   H1526     1.0  0.23121  0.70163  0.74768  1.0000
  H   H1527     1.0  0.26900  0.67764  0.97382  1.0000
  H   H1528     1.0  0.32958  0.85654  0.76445  1.0000
  H   H1529     1.0  0.18094  0.81380  0.76936  1.0000
  C   C1907     1.0  0.27223  0.68658  0.92104  1.0000
  C   C1908     1.0  0.43853  0.96231  0.82259  1.0000
  C   C1909     1.0  0.29653  0.68392  0.95004  1.0000
  C   C1910     1.0  0.38268  0.74486  0.74154  1.0000
  C   C1911     1.0  0.42929  0.74602  0.97313  1.0000
  C   C1912     1.0  0.48371  0.79973  0.91988  1.0000
  C   C1913     1.0  0.47748  0.86358  0.93533  1.0000
  H   H1530     1.0  0.28467  0.71235  0.74306  1.0000
  C   C1914     1.0  0.26359  0.68226  0.94261  1.0000
  C   C1915     1.0  0.39075  0.73590  0.75983  1.0000
  H   H1531     1.0  0.23408  0.77611  0.74073  1.0000
  H   H1532     1.0  0.46303  0.77110  0.83172  1.0000
  C   C1916     1.0  0.42461  0.84983  0.97156  1.0000
  H   H1533     1.0  0.43131  0.94612  0.80259  1.0000
  C   C1917     1.0  0.47606  0.78408  0.93627  1.0000
  H   H1534     1.0  0.46784  0.77360  0.93324  1.0000
  H   H1535     1.0  0.23178  0.66124  0.74814  1.0000
  C   C1918     1.0  0.47712  0.96337  0.79397  1.0000
  C   C1919     1.0  0.34089  0.66045  0.82813  1.0000
  C   C1920     1.0  0.27577  0.68080  0.95711  1.0000
  C   C1921     1.0  0.33485  0.97632  0.93433  1.0000
  H   H1536     1.0  0.47750  0.73862  0.89192  1.0000
  C   C1922     1.0  0.47852  0.78230  0.95666  1.0000
  H   H1537     1.0  0.30578  0.68334  0.96128  1.0000
  C   C1923     1.0  0.46926  0.88460  0.92675  1.0000
  C   C1924     1.0  0.18439  0.71444  0.73687  1.0000
  H   H1538     1.0  0.40601  0.89792  0.98550  1.0000
  C   C1925     1.0  0.44371  0.97187  0.97299  1.0000
  H   H1539     1.0  0.33552  0.98840  0.90118  1.0000
  H   H1540     1.0  0.33364  0.65730  0.75042  1.0000
  C   C1926     1.0  0.23196  0.71785  0.74636  1.0000
  H   H1541     1.0  0.44345  0.89624  0.98125  1.0000
  C   C1927     1.0  0.27824  0.65612  0.86808  1.0000
  H   H1542     1.0  0.47122  0.83026  0.98196  1.0000
  C   C1928     1.0  0.46007  0.72376  0.98579  1.0000
  H   H1543     1.0  0.20004  0.68186  0.73907  1.0000
  C   C1929     1.0  0.30724  0.65875  0.77707  1.0000
  H   H1544     1.0  0.39267  0.66544  0.86411  1.0000
  C   C1930     1.0  0.37229  0.88270  0.98235  1.0000
  C   C1931     1.0  0.37247  0.86178  0.98244  1.0000
  H   H1545     1.0  0.44984  0.97843  0.83964  1.0000
  C   C1932     1.0  0.48279  0.74525  0.87543  1.0000
  H   H1546     1.0  0.47605  0.91558  0.91226  1.0000
  H   H1547     1.0  0.47776  0.87930  0.97753  1.0000
  C   C1933     1.0  0.48241  0.89932  0.91916  1.0000
  C   C1934     1.0  0.81225  0.05071  0.17671  1.0000
  H   H1548     1.0  0.92112  0.22487  0.01852  1.0000
  C   C1935     1.0  0.69269  0.30281  0.14836  1.0000
  H   H1549     1.0  0.93608  0.28145  0.02488  1.0000
  H   H1550     1.0  0.74622  0.22270  0.20571  1.0000
  C   C1936     1.0  0.86218  0.20955  0.10657  1.0000
  H   H1551     1.0  0.74071  0.00623  0.10351  1.0000
  C   C1937     1.0  0.67687  0.30361  0.16659  1.0000
  H   H1552     1.0  0.98539  0.22058  0.99926  1.0000
  H   H1553     1.0  0.82449  0.30501  0.15994  1.0000
  H   H1554     1.0  0.86719  0.23934  0.10776  1.0000
  Fe  Fe129     1.0  0.75557  0.25636  0.12382  1.0000
  S   S255      1.0  0.78604  0.25490  0.13274  1.0000
  S   S256      1.0  0.72935  0.28519  0.12475  1.0000
  Fe  Fe130     1.0  0.77082  0.21434  0.11054  1.0000
  S   S257      1.0  0.80281  0.20940  0.11816  1.0000
  S   S258      1.0  0.76518  0.19114  0.09464  1.0000
  Fe  Fe131     1.0  0.78474  0.22081  0.14736  1.0000
  S   S259      1.0  0.79213  0.20735  0.17988  1.0000
  Fe  Fe132     1.0  0.80175  0.24372  0.10298  1.0000
  S   S260      1.0  0.83070  0.25403  0.08045  1.0000
  S   S261      1.0  0.75267  0.22330  0.14093  1.0000
  S   S262      1.0  0.77137  0.24773  0.09271  1.0000
  C   C1938     1.0  0.63733  0.17663  0.22154  1.0000
  H   H1555     1.0  0.72061  0.99052  0.08783  1.0000
  C   C1939     1.0  0.50598  0.01070  0.00584  1.0000
  C   C1940     1.0  0.83558  0.30444  0.10038  1.0000
  C   C1941     1.0  0.64715  0.07118  0.23273  1.0000
  H   H1556     1.0  0.66350  0.03325  0.10953  1.0000
  C   C1942     1.0  0.73648  0.04567  0.22346  1.0000
  S   S263      1.0  0.65715  0.28787  0.20650  1.0000
  C   C1943     1.0  0.71351  0.02820  0.11551  1.0000
  C   C1944     1.0  0.93081  0.25311  0.01917  1.0000
  Fe  Fe133     1.0  0.67445  0.13018  0.13122  1.0000
  S   S264      1.0  0.64165  0.12371  0.14514  1.0000
  S   S265      1.0  0.68315  0.15588  0.10310  1.0000
  Fe  Fe134     1.0  0.69478  0.09351  0.16129  1.0000
  S   S266      1.0  0.66416  0.08371  0.17807  1.0000
  C   C1945     1.0  0.84602  0.25340  0.15804  1.0000
  Fe  Fe135     1.0  0.65672  0.08957  0.14607  1.0000
  S   S267      1.0  0.64071  0.06515  0.14218  1.0000
  Fe  Fe136     1.0  0.65093  0.11842  0.17616  1.0000
  C   C1946     1.0  0.50935  0.01024  0.02557  1.0000
  S   S268      1.0  0.68871  0.09638  0.12932  1.0000
  S   S269      1.0  0.68225  0.12787  0.16214  1.0000
  Fe  Fe137     1.0  0.58177  0.05030  0.06320  1.0000
  S   S270      1.0  0.56162  0.03463  0.09247  1.0000
  S   S271      1.0  0.60532  0.06985  0.06183  1.0000
  Fe  Fe138     1.0  0.56221  0.03708  0.03378  1.0000
  S   S272      1.0  0.54094  0.02009  0.06065  1.0000
  Fe  Fe139     1.0  0.65884  0.25673  0.22955  1.0000
  Fe  Fe140     1.0  0.53530  0.04794  0.07484  1.0000
  S   S273      1.0  0.50159  0.06150  0.08792  1.0000
  H   H1557     1.0  0.68388  0.04876  0.12485  1.0000
  S   S274      1.0  0.55453  0.06613  0.04693  1.0000
  S   S275      1.0  0.59125  0.02252  0.04746  1.0000
  H   H1558     1.0  0.90154  0.19636  0.16095  1.0000
  C   C1947     1.0  0.60766  0.07684  0.00398  1.0000
  H   H1559     1.0  0.91371  0.17652  0.19363  1.0000
  C   C1948     1.0  0.66140  0.04994  0.03918  1.0000
  C   C1949     1.0  0.63002  0.06773  0.12003  1.0000
  C   C1950     1.0  0.61709  0.05388  0.12095  1.0000
  C   C1951     1.0  0.60898  0.05475  0.10341  1.0000
  C   C1952     1.0  0.61396  0.06934  0.08467  1.0000
  C   C1953     1.0  0.62698  0.08314  0.08368  1.0000
  C   C1954     1.0  0.63490  0.08244  0.10134  1.0000
  H   H1560     1.0  0.61333  0.04241  0.13533  1.0000
  H   H1561     1.0  0.59909  0.04399  0.10432  1.0000
  H   H1562     1.0  0.63102  0.09438  0.06920  1.0000
  H   H1563     1.0  0.64499  0.09306  0.10041  1.0000
  C   C1955     1.0  0.69130  0.01205  0.04323  1.0000
  H   H1564     1.0  0.87346  0.22390  0.22630  1.0000
  H   H1565     1.0  0.65574  0.99609  0.13125  1.0000
  Fe  Fe141     1.0  0.56899  0.00802  0.07563  1.0000
  C   C1956     1.0  0.69160  0.02615  0.02368  1.0000
  C   C1957     1.0  0.97879  0.25938  0.01304  1.0000
  C   C1958     1.0  0.72740  0.05406  0.20557  1.0000
  C   C1959     1.0  0.78282  0.22572  0.23267  1.0000
  C   C1960     1.0  0.90398  0.25010  0.05909  1.0000
  H   H1566     1.0  0.76864  0.20017  0.23349  1.0000
  C   C1961     1.0  0.74106  0.18316  0.09795  1.0000
  C   C1962     1.0  0.72725  0.17908  0.11753  1.0000
  C   C1963     1.0  0.70950  0.17045  0.11947  1.0000
  C   C1964     1.0  0.70508  0.16667  0.10172  1.0000
  C   C1965     1.0  0.71831  0.17177  0.08211  1.0000
  C   C1966     1.0  0.73643  0.17944  0.08034  1.0000
  H   H1567     1.0  0.73034  0.18224  0.13119  1.0000
  H   H1568     1.0  0.69918  0.16688  0.13461  1.0000
  H   H1569     1.0  0.71495  0.16907  0.06831  1.0000
  H   H1570     1.0  0.74696  0.18248  0.06519  1.0000
  C   C1967     1.0  0.70884  0.28487  0.14719  1.0000
  C   C1968     1.0  0.69872  0.10756  0.21697  1.0000
  Fe  Fe142     1.0  0.81539  0.09317  0.23201  1.0000
  C   C1969     1.0  0.67692  0.28632  0.18366  1.0000
  C   C1970     1.0  0.69280  0.26817  0.18237  1.0000
  C   C1971     1.0  0.70862  0.26740  0.16405  1.0000
  C   C1972     1.0  0.52251  0.09237  0.11459  1.0000
  H   H1571     1.0  0.86882  0.27208  0.11518  1.0000
  H   H1572     1.0  0.69308  0.25480  0.19553  1.0000
  H   H1573     1.0  0.72073  0.25335  0.16304  1.0000
  C   C1973     1.0  0.67661  0.04506  0.02165  1.0000
  C   C1974     1.0  0.63308  0.99997  0.09016  1.0000
  C   C1975     1.0  0.80481  0.18059  0.18540  1.0000
  C   C1976     1.0  0.81389  0.16946  0.16936  1.0000
  C   C1977     1.0  0.82345  0.14798  0.17420  1.0000
  H   H1574     1.0  0.83007  0.13936  0.16175  1.0000
  H   H1575     1.0  0.81332  0.17725  0.15325  1.0000
  H   H1576     1.0  0.64993  0.06475  0.03781  1.0000
  H   H1577     1.0  0.82789  0.31241  0.11317  1.0000
  C   C1978     1.0  0.72379  0.01178  0.10507  1.0000
  C   C1979     1.0  0.78944  0.30370  0.21616  1.0000
  C   C1980     1.0  0.82859  0.28690  0.09899  1.0000
  C   C1981     1.0  0.83850  0.27646  0.08252  1.0000
  C   C1982     1.0  0.85536  0.28372  0.06746  1.0000
  C   C1983     1.0  0.97543  0.21579  0.99181  1.0000
  S   S276      1.0  0.62583  0.12770  0.20361  1.0000
  H   H1578     1.0  0.81560  0.28149  0.11067  1.0000
  H   H1579     1.0  0.59147  0.14765  0.23058  1.0000
  C   C1984     1.0  0.69345  0.31409  0.21920  1.0000
  C   C1985     1.0  0.84489  0.27496  0.15655  1.0000
  C   C1986     1.0  0.82224  0.06657  0.17680  1.0000
  H   H1580     1.0  0.85895  0.28164  0.15112  1.0000
  H   H1581     1.0  0.83659  0.09911  0.12354  1.0000
  C   C1987     1.0  0.86615  0.21771  0.13818  1.0000
  C   C1988     1.0  0.69179  0.03575  0.11710  1.0000
  C   C1989     1.0  0.89063  0.25019  0.13367  1.0000
  H   H1582     1.0  0.89357  0.24905  0.07445  1.0000
  H   H1583     1.0  0.64924  0.04001  0.07214  1.0000
  H   H1584     1.0  0.98531  0.32045  0.02028  1.0000
  C   C1990     1.0  0.86232  0.19770  0.14953  1.0000
  C   C1991     1.0  0.63503  0.04951  0.99036  1.0000
  H   H1585     1.0  0.79881  0.17867  0.21877  1.0000
  C   C1992     1.0  0.51186  0.12686  0.09312  1.0000
  H   H1586     1.0  0.81590  0.03512  0.18652  1.0000
  H   H1587     1.0  0.83376  0.06332  0.18656  1.0000
  H   H1588     1.0  0.73865  0.13471  0.22699  1.0000
  C   C1993     1.0  0.71230  0.00278  0.09640  1.0000
  C   C1994     1.0  0.66096  0.03582  0.05866  1.0000
  H   H1589     1.0  0.69186  0.30374  0.21007  1.0000
  H   H1590     1.0  0.67689  0.05610  0.00659  1.0000
  C   C1995     1.0  0.92797  0.26835  0.03097  1.0000
  H   H1591     1.0  0.91313  0.27819  0.06011  1.0000
  C   C1996     1.0  0.91487  0.26663  0.05095  1.0000
  H   H1592     1.0  0.76486  0.28637  0.22236  1.0000
  H   H1593     1.0  0.82452  0.09913  0.16533  1.0000
  H   H1594     1.0  0.70364  0.02258  0.01016  1.0000
  H   H1595     1.0  0.86101  0.24389  0.19387  1.0000
  C   C1997     1.0  0.79716  0.05514  0.16435  1.0000
  C   C1998     1.0  0.75882  0.31589  0.19982  1.0000
  C   C1999     1.0  0.73536  0.06995  0.18962  1.0000
  C   C2000     1.0  0.71320  0.23223  0.09480  1.0000
  C   C2001     1.0  0.70369  0.23609  0.07765  1.0000
  C   C2002     1.0  0.68228  0.23575  0.08096  1.0000
  C   C2003     1.0  0.67045  0.23125  0.10145  1.0000
  C   C2004     1.0  0.68014  0.22637  0.11879  1.0000
  C   C2005     1.0  0.70150  0.22746  0.11528  1.0000
  P   P66       1.0  0.66467  0.22082  0.14527  1.0000
  C   C2006     1.0  0.65190  0.24543  0.15335  1.0000
  C   C2007     1.0  0.64544  0.20526  0.14739  1.0000
  C   C2008     1.0  0.62868  0.20356  0.16497  1.0000
  C   C2009     1.0  0.61531  0.18965  0.16779  1.0000
  C   C2010     1.0  0.61839  0.17746  0.15301  1.0000
  C   C2011     1.0  0.63490  0.17912  0.13544  1.0000
  C   C2012     1.0  0.64859  0.19262  0.13285  1.0000
  C   C2013     1.0  0.64359  0.24543  0.17471  1.0000
  C   C2014     1.0  0.63429  0.26439  0.18126  1.0000
  C   C2015     1.0  0.63361  0.28357  0.16659  1.0000
  C   C2016     1.0  0.64209  0.28379  0.14530  1.0000
  C   C2017     1.0  0.65115  0.26480  0.13866  1.0000
  C   C2018     1.0  0.68157  0.20590  0.16343  1.0000
  C   C2019     1.0  0.69391  0.21605  0.16984  1.0000
  C   C2020     1.0  0.70608  0.20492  0.18484  1.0000
  C   C2021     1.0  0.70553  0.18370  0.19395  1.0000
  C   C2022     1.0  0.69336  0.17350  0.18759  1.0000
  C   C2023     1.0  0.68163  0.18442  0.17221  1.0000
  H   H1596     1.0  0.72984  0.23241  0.09224  1.0000
  H   H1597     1.0  0.71300  0.23924  0.06182  1.0000
  H   H1598     1.0  0.67489  0.23878  0.06766  1.0000
  H   H1599     1.0  0.65382  0.23130  0.10374  1.0000
  H   H1600     1.0  0.70942  0.22426  0.12818  1.0000
  H   H1601     1.0  0.62626  0.21220  0.17704  1.0000
  H   H1602     1.0  0.60296  0.18781  0.18180  1.0000
  H   H1603     1.0  0.60834  0.16630  0.15548  1.0000
  H   H1604     1.0  0.63762  0.16941  0.12411  1.0000
  H   H1605     1.0  0.66202  0.19255  0.11983  1.0000
  H   H1606     1.0  0.64469  0.23081  0.18643  1.0000
  H   H1607     1.0  0.62831  0.26425  0.19784  1.0000
  H   H1608     1.0  0.62717  0.29826  0.17187  1.0000
  H   H1609     1.0  0.89738  0.22263  0.05344  1.0000
  H   H1610     1.0  0.65793  0.26542  0.12216  1.0000
  H   H1611     1.0  0.69386  0.23266  0.16342  1.0000
  H   H1612     1.0  0.71543  0.21290  0.18988  1.0000
  H   H1613     1.0  0.71434  0.17522  0.20611  1.0000
  H   H1614     1.0  0.69260  0.15721  0.19485  1.0000
  H   H1615     1.0  0.67237  0.17606  0.16759  1.0000
  S   S277      1.0  0.55501  0.03900  0.00240  1.0000
  C   C2024     1.0  0.68025  0.02678  0.10851  1.0000
  H   H1616     1.0  0.53479  0.07878  0.11860  1.0000
  C   C2025     1.0  0.92680  0.25570  0.12263  1.0000
  C   C2026     1.0  0.49074  0.12683  0.10316  1.0000
  H   H1617     1.0  0.77932  0.07871  0.14369  1.0000
  C   C2027     1.0  0.82537  0.28827  0.16188  1.0000
  C   C2028     1.0  0.86558  0.22366  0.11670  1.0000
  C   C2029     1.0  0.85925  0.18942  0.11780  1.0000
  C   C2030     1.0  0.85935  0.18350  0.13925  1.0000
  H   H1618     1.0  0.96998  0.25173  0.02771  1.0000
  C   C2031     1.0  0.80698  0.28004  0.16935  1.0000
  C   C2032     1.0  0.80814  0.25848  0.17174  1.0000
  C   C2033     1.0  0.82752  0.24524  0.16595  1.0000
  H   H1619     1.0  0.85635  0.17861  0.11003  1.0000
  H   H1620     1.0  0.85668  0.16802  0.14803  1.0000
  H   H1621     1.0  0.86123  0.21448  0.09011  1.0000
  H   H1622     1.0  0.62437  0.05022  0.02331  1.0000
  H   H1623     1.0  0.79397  0.25198  0.17758  1.0000
  H   H1624     1.0  0.82797  0.22863  0.16753  1.0000
  C   C2034     1.0  0.73833  0.12014  0.12153  1.0000
  C   C2035     1.0  0.74462  0.12255  0.09976  1.0000
  C   C2036     1.0  0.76553  0.12380  0.08997  1.0000
  C   C2037     1.0  0.78019  0.12248  0.10199  1.0000
  C   C2038     1.0  0.77389  0.12022  0.12391  1.0000
  C   C2039     1.0  0.75285  0.11900  0.13358  1.0000
  P   P67       1.0  0.79246  0.11872  0.13975  1.0000
  C   C2040     1.0  0.81474  0.12935  0.12270  1.0000
  C   C2041     1.0  0.77941  0.13562  0.15823  1.0000
  C   C2042     1.0  0.76598  0.15482  0.15166  1.0000
  C   C2043     1.0  0.75639  0.16856  0.16529  1.0000
  C   C2044     1.0  0.76047  0.16357  0.18547  1.0000
  C   C2045     1.0  0.77318  0.14417  0.19247  1.0000
  C   C2046     1.0  0.78239  0.13009  0.17905  1.0000
  C   C2047     1.0  0.81216  0.15099  0.11336  1.0000
  C   C2048     1.0  0.82874  0.15909  0.09879  1.0000
  C   C2049     1.0  0.84820  0.14571  0.09360  1.0000
  C   C2050     1.0  0.85099  0.12416  0.10284  1.0000
  C   C2051     1.0  0.83428  0.11595  0.11716  1.0000
  C   C2052     1.0  0.80104  0.09176  0.15311  1.0000
  C   C2053     1.0  0.79166  0.07554  0.15245  1.0000
  H   H1625     1.0  0.81389  0.14031  0.22746  1.0000
  C   C2054     1.0  0.81684  0.08694  0.16486  1.0000
  H   H1626     1.0  0.72209  0.11938  0.12907  1.0000
  H   H1627     1.0  0.73310  0.12386  0.09052  1.0000
  H   H1628     1.0  0.77025  0.12609  0.07303  1.0000
  H   H1629     1.0  0.79627  0.12356  0.09407  1.0000
  H   H1630     1.0  0.74758  0.11720  0.15044  1.0000
  H   H1631     1.0  0.76297  0.15923  0.13591  1.0000
  H   H1632     1.0  0.74575  0.18307  0.16019  1.0000
  H   H1633     1.0  0.75356  0.17465  0.19570  1.0000
  H   H1634     1.0  0.77602  0.14003  0.20829  1.0000
  H   H1635     1.0  0.79200  0.11522  0.18508  1.0000
  H   H1636     1.0  0.79718  0.16165  0.11678  1.0000
  H   H1637     1.0  0.82629  0.17576  0.09138  1.0000
  H   H1638     1.0  0.86100  0.15203  0.08225  1.0000
  H   H1639     1.0  0.86599  0.11372  0.09870  1.0000
  S   S278      1.0  0.72807  0.07731  0.16501  1.0000
  C   C2055     1.0  0.89431  0.19892  0.21206  1.0000
  H   H1640     1.0  0.78900  0.04302  0.16464  1.0000
  C   C2056     1.0  0.75332  0.05333  0.22549  1.0000
  C   C2057     1.0  0.67569  0.01665  0.06077  1.0000
  H   H1641     1.0  0.75765  0.09048  0.18004  1.0000
  H   H1642     1.0  0.51593  0.14009  0.08068  1.0000
  C   C2058     1.0  0.69033  0.00989  0.09851  1.0000
  H   H1643     1.0  0.64211  0.29869  0.13402  1.0000
  H   H1644     1.0  0.59139  0.99654  0.13153  1.0000
  C   C2059     1.0  0.73071  0.27088  0.21864  1.0000
  P   P68       1.0  0.87099  0.23585  0.15115  1.0000
  C   C2060     1.0  0.88492  0.26735  0.11753  1.0000
  H   H1645     1.0  0.89525  0.29248  0.09248  1.0000
  C   C2061     1.0  0.72748  0.12720  0.22418  1.0000
  C   C2062     1.0  0.89990  0.27886  0.10447  1.0000
  C   C2063     1.0  0.64008  0.15986  0.21143  1.0000
  C   C2064     1.0  0.75168  0.07798  0.19209  1.0000
  C   C2065     1.0  0.82306  0.13733  0.19520  1.0000
  C   C2066     1.0  0.60746  0.99710  0.12305  1.0000
  H   H1646     1.0  0.86131  0.19303  0.16635  1.0000
  C   C2067     1.0  0.80554  0.17017  0.20630  1.0000
  H   H1647     1.0  0.73081  0.03291  0.23546  1.0000
  S   S279      1.0  0.96534  0.28861  0.06050  1.0000
  H   H1648     1.0  0.50685  0.01676  0.10609  1.0000
  C   C2068     1.0  0.64379  0.99705  0.12267  1.0000
  C   C2069     1.0  0.92083  0.27298  0.10694  1.0000
  H   H1649     1.0  0.95412  0.31154  0.01470  1.0000
  H   H1650     1.0  0.60103  0.02731  0.99575  1.0000
  C   C2070     1.0  0.88003  0.22139  0.17506  1.0000
  C   C2071     1.0  0.91177  0.24439  0.13602  1.0000
  H   H1651     1.0  0.93244  0.28186  0.09674  1.0000
  H   H1652     1.0  0.91683  0.23123  0.14814  1.0000
  C   C2072     1.0  0.98879  0.28982  0.06709  1.0000
  C   C2073     1.0  0.67622  0.32084  0.23441  1.0000
  C   C2074     1.0  0.87244  0.22919  0.19358  1.0000
  C   C2075     1.0  0.73369  0.24903  0.22106  1.0000
  H   H1653     1.0  0.68800  0.09987  0.21363  1.0000
  H   H1654     1.0  0.64640  0.03483  0.99309  1.0000
  H   H1655     1.0  0.72327  0.27774  0.23222  1.0000
  H   H1656     1.0  0.94310  0.25121  0.12442  1.0000
  Fe  Fe143     1.0  0.94035  0.31842  0.05898  1.0000
  H   H1657     1.0  0.60046  0.99958  0.09302  1.0000
  H   H1658     1.0  0.49782  0.07850  0.13651  1.0000
  S   S280      1.0  0.83251  0.10991  0.20111  1.0000
  C   C2076     1.0  0.87951  0.21792  0.21201  1.0000
  C   C2077     1.0  0.72774  0.12588  0.20380  1.0000
  C   C2078     1.0  0.74368  0.23964  0.20398  1.0000
  C   C2079     1.0  0.49213  0.02198  0.10061  1.0000
  C   C2080     1.0  0.75058  0.25203  0.18450  1.0000
  C   C2081     1.0  0.74732  0.27389  0.18180  1.0000
  C   C2082     1.0  0.71345  0.11611  0.20025  1.0000
  H   H1659     1.0  0.75239  0.28293  0.16625  1.0000
  H   H1660     1.0  0.73894  0.13224  0.19055  1.0000
  C   C2083     1.0  0.89521  0.20248  0.17515  1.0000
  C   C2084     1.0  0.50144  0.09232  0.12474  1.0000
  H   H1661     1.0  0.79219  0.22551  0.21692  1.0000
  H   H1662     1.0  0.79183  0.29034  0.17312  1.0000
  H   H1663     1.0  0.72235  0.03532  0.12216  1.0000
  H   H1664     1.0  0.89970  0.19014  0.22637  1.0000
  C   C2085     1.0  0.62351  0.14937  0.21472  1.0000
  C   C2086     1.0  0.81424  0.14849  0.21125  1.0000
  C   C2087     1.0  0.86248  0.30111  0.06895  1.0000
  C   C2088     1.0  0.62261  0.05811  0.00739  1.0000
  H   H1665     1.0  0.52422  0.01288  0.02687  1.0000
  H   H1666     1.0  0.49599  0.00708  0.05869  1.0000
  H   H1667     1.0  0.71431  0.11462  0.18448  1.0000
  C   C2089     1.0  0.90618  0.23521  0.04723  1.0000
  C   C2090     1.0  0.91961  0.23662  0.02737  1.0000
  H   H1668     1.0  0.65021  0.18450  0.21927  1.0000
  H   H1669     1.0  0.54407  0.10938  0.09072  1.0000
  H   H1670     1.0  0.59798  0.08339  0.01727  1.0000
  C   C2091     1.0  0.76060  0.06979  0.20995  1.0000
  H   H1671     1.0  0.65501  0.15474  0.20147  1.0000
  C   C2092     1.0  0.65797  0.05019  0.23435  1.0000
  H   H1672     1.0  0.75982  0.17002  0.22962  1.0000
  H   H1673     1.0  0.77368  0.07568  0.21123  1.0000
  C   C2093     1.0  0.52773  0.10960  0.09878  1.0000
  C   C2094     1.0  0.85268  0.31149  0.08547  1.0000
  H   H1674     1.0  0.86284  0.27596  0.05448  1.0000
  S   S281      1.0  0.66558  0.22536  0.22089  1.0000
  C   C2095     1.0  0.77041  0.30066  0.21364  1.0000
  H   H1675     1.0  0.71498  0.04759  0.20365  1.0000
  C   C2096     1.0  0.90221  0.19124  0.19361  1.0000
  C   C2097     1.0  0.73723  0.28358  0.19884  1.0000
  H   H1676     1.0  0.75804  0.24458  0.17138  1.0000
  P   P69       1.0  0.73466  0.31163  0.19599  1.0000
  C   C2098     1.0  0.61792  0.18286  0.23480  1.0000
  C   C2099     1.0  0.64881  0.99930  0.10074  1.0000
  C   C2100     1.0  0.62311  0.99614  0.13375  1.0000
  H   H1677     1.0  0.70337  0.99777  0.04469  1.0000
  H   H1678     1.0  0.63660  0.00134  0.07330  1.0000
  C   C2101     1.0  0.49345  0.00695  0.04349  1.0000
  H   H1679     1.0  0.63415  0.07708  0.22449  1.0000
  P   P70       1.0  0.67556  0.99926  0.08633  1.0000
  H   H1680     1.0  0.61917  0.99490  0.15061  1.0000
  C   C2102     1.0  0.96509  0.31828  0.00131  1.0000
  C   C2103     1.0  0.61252  0.99890  0.10130  1.0000
  H   H1681     1.0  0.87537  0.30662  0.05715  1.0000
  P   P71       1.0  0.94843  0.25503  0.99363  1.0000
  H   H1682     1.0  0.76295  0.31560  0.15439  1.0000
  H   H1683     1.0  0.51846  0.01369  0.99219  1.0000
  H   H1684     1.0  0.79844  0.29183  0.22669  1.0000
  C   C2104     1.0  0.97186  0.26355  0.99405  1.0000
  H   H1685     1.0  0.69257  0.31617  0.13517  1.0000
  H   H1686     1.0  0.66458  0.31763  0.16746  1.0000
  H   H1687     1.0  0.90820  0.28647  0.99578  1.0000
  S   S282      1.0  0.71975  0.19764  0.23480  1.0000
  C   C2105     1.0  0.60428  0.15574  0.22791  1.0000
  H   H1688     1.0  0.65325  0.03971  0.22747  1.0000
  C   C2106     1.0  0.71257  0.32068  0.21569  1.0000
  H   H1689     1.0  0.79327  0.25223  0.23576  1.0000
  C   C2107     1.0  0.95672  0.22940  0.98694  1.0000
  C   C2108     1.0  0.98154  0.19579  0.98697  1.0000
  C   C2109     1.0  0.79693  0.32202  0.20501  1.0000
  C   C2110     1.0  0.68170  0.05668  0.25256  1.0000
  C   C2111     1.0  0.75947  0.14547  0.25755  1.0000
  C   C2112     1.0  0.81081  0.07769  0.32909  1.0000
  C   C2113     1.0  0.50193  0.28856  0.34935  1.0000
  Fe  Fe144     1.0  0.78395  0.09600  0.27296  1.0000
  S   S283      1.0  0.81873  0.09570  0.26350  1.0000
  S   S284      1.0  0.75963  0.11547  0.29379  1.0000
  H   H1690     1.0  0.70494  0.29546  0.32020  1.0000
  H   H1691     1.0  0.80512  0.05062  0.32167  1.0000
  Fe  Fe145     1.0  0.82245  0.06047  0.27133  1.0000
  S   S285      1.0  0.84480  0.03776  0.29081  1.0000
  C   C2114     1.0  0.49267  0.30607  0.33572  1.0000
  S   S286      1.0  0.78787  0.06103  0.28354  1.0000
  C   C2115     1.0  0.69473  0.08313  0.28026  1.0000
  C   C2116     1.0  0.68507  0.08335  0.30136  1.0000
  Fe  Fe146     1.0  0.91348  0.05957  0.39645  1.0000
  S   S287      1.0  0.92874  0.02545  0.40507  1.0000
  Fe  Fe147     1.0  0.91405  0.05696  0.35215  1.0000
  S   S288      1.0  0.92954  0.02264  0.35712  1.0000
  S   S289      1.0  0.90626  0.07560  0.32104  1.0000
  Fe  Fe148     1.0  0.90670  0.01990  0.38809  1.0000
  C   C2117     1.0  0.89227  0.04615  0.44844  1.0000
  Fe  Fe149     1.0  0.95006  0.03157  0.37351  1.0000
  H   H1692     1.0  0.49209  0.28057  0.36299  1.0000
  S   S290      1.0  0.88946  0.05365  0.38205  1.0000
  S   S291      1.0  0.93656  0.06623  0.36593  1.0000
  C   C2118     1.0  0.67090  0.07779  0.25097  1.0000
  C   C2119     1.0  0.79938  0.00293  0.29068  1.0000
  H   H1693     1.0  0.94534  0.08210  0.43966  1.0000
  H   H1694     1.0  0.79639  0.15691  0.33555  1.0000
  C   C2120     1.0  0.63857  0.30764  0.28561  1.0000
  C   C2121     1.0  0.77680  0.11282  0.36220  1.0000
  C   C2122     1.0  0.86586  0.12007  0.37375  1.0000
  H   H1695     1.0  0.72835  0.23921  0.23612  1.0000
  C   C2123     1.0  0.96617  0.08123  0.48496  1.0000
  C   C2124     1.0  0.89947  0.06474  0.44554  1.0000
  C   C2125     1.0  0.78528  0.14721  0.34526  1.0000
  C   C2126     1.0  0.86142  0.04880  0.29929  1.0000
  C   C2127     1.0  0.87020  0.03748  0.31680  1.0000
  C   C2128     1.0  0.88377  0.04574  0.32371  1.0000
  C   C2129     1.0  0.88902  0.06518  0.31281  1.0000
  C   C2130     1.0  0.88036  0.07648  0.29524  1.0000
  C   C2131     1.0  0.86643  0.06840  0.28859  1.0000
  H   H1696     1.0  0.86627  0.02244  0.32527  1.0000
  H   H1697     1.0  0.89024  0.03700  0.33738  1.0000
  H   H1698     1.0  0.88450  0.09146  0.28670  1.0000
  H   H1699     1.0  0.86002  0.07707  0.27488  1.0000
  S   S292      1.0  0.68183  0.24689  0.25082  1.0000
  C   C2132     1.0  0.57237  0.25711  0.31606  1.0000
  C   C2133     1.0  0.82929  0.04850  0.36087  1.0000
  H   H1700     1.0  0.86381  0.99723  0.30574  1.0000
  C   C2134     1.0  0.96458  0.04607  0.46678  1.0000
  C   C2135     1.0  0.72723  0.06278  0.29123  1.0000
  H   H1701     1.0  0.79710  0.14840  0.27065  1.0000
  C   C2136     1.0  0.66092  0.13727  0.26489  1.0000
  H   H1702     1.0  0.88866  0.09916  0.35561  1.0000
  C   C2137     1.0  0.82079  0.04153  0.34773  1.0000
  C   C2138     1.0  0.74767  0.13742  0.27707  1.0000
  C   C2139     1.0  0.72654  0.14715  0.28321  1.0000
  C   C2140     1.0  0.71751  0.16556  0.27019  1.0000
  C   C2141     1.0  0.49132  0.31743  0.26722  1.0000
  C   C2142     1.0  0.81947  0.08484  0.34211  1.0000
  H   H1703     1.0  0.54428  0.29788  0.26207  1.0000
  H   H1704     1.0  0.71723  0.14049  0.29804  1.0000
  H   H1705     1.0  0.70136  0.17333  0.27512  1.0000
  C   C2143     1.0  0.76458  0.15690  0.35301  1.0000
  C   C2144     1.0  0.67523  0.04294  0.24427  1.0000
  C   C2145     1.0  0.71768  0.06338  0.31215  1.0000
  H   H1706     1.0  0.60658  0.12254  0.29287  1.0000
  C   C2146     1.0  0.94055  0.01658  0.46953  1.0000
  C   C2147     1.0  0.64418  0.27187  0.30637  1.0000
  S   S293      1.0  0.82163  0.05764  0.23917  1.0000
  H   H1707     1.0  0.82316  0.00135  0.26242  1.0000
  H   H1708     1.0  0.90680  0.08550  0.46086  1.0000
  C   C2148     1.0  0.71296  0.11844  0.24108  1.0000
  H   H1709     1.0  0.80370  0.08867  0.31659  1.0000
  H   H1710     1.0  0.97259  0.12582  0.38704  1.0000
  C   C2149     1.0  0.52721  0.30929  0.31402  1.0000
  H   H1711     1.0  0.87704  0.12100  0.38245  1.0000
  C   C2150     1.0  0.95848  0.08985  0.43162  1.0000
  H   H1712     1.0  0.71432  0.25050  0.26960  1.0000
  H   H1713     1.0  0.85287  0.99344  0.37963  1.0000
  H   H1714     1.0  0.77087  0.25326  0.27127  1.0000
  H   H1715     1.0  0.85732  0.11937  0.30701  1.0000
  C   C2151     1.0  0.59977  0.26777  0.36887  1.0000
  S   S294      1.0  0.66140  0.20429  0.27182  1.0000
  H   H1716     1.0  0.61594  0.22319  0.29617  1.0000
  H   H1717     1.0  0.60564  0.25798  0.30559  1.0000
  Fe  Fe150     1.0  0.65481  0.23753  0.27618  1.0000
  H   H1718     1.0  0.68917  0.07404  0.33346  1.0000
  H   H1719     1.0  0.78756  0.01385  0.28248  1.0000
  H   H1720     1.0  0.95231  0.01997  0.43616  1.0000
  C   C2152     1.0  0.84763  0.13505  0.27803  1.0000
  C   C2153     1.0  0.63898  0.11103  0.27894  1.0000
  C   C2154     1.0  0.82840  0.07008  0.35827  1.0000
  H   H1721     1.0  0.53658  0.31776  0.30034  1.0000
  C   C2155     1.0  0.81945  0.99578  0.27934  1.0000
  H   H1722     1.0  0.51689  0.29199  0.40962  1.0000
  C   C2156     1.0  0.55707  0.24535  0.31804  1.0000
  C   C2157     1.0  0.83683  0.11649  0.35192  1.0000
  H   H1723     1.0  0.58879  0.20317  0.29876  1.0000
  C   C2158     1.0  0.62183  0.12656  0.28537  1.0000
  H   H1724     1.0  0.58648  0.17709  0.24794  1.0000
  H   H1725     1.0  0.53097  0.26826  0.35643  1.0000
  P   P72       1.0  0.81807  0.11279  0.33872  1.0000
  C   C2159     1.0  0.84487  0.13083  0.37786  1.0000
  H   H1726     1.0  0.64567  0.10141  0.23856  1.0000
  C   C2160     1.0  0.49829  0.28228  0.28899  1.0000
  C   C2161     1.0  0.65859  0.11633  0.26837  1.0000
  C   C2162     1.0  0.60145  0.17245  0.23772  1.0000
  P   P73       1.0  0.68043  0.09630  0.25947  1.0000
  C   C2163     1.0  0.65367  0.08496  0.24086  1.0000
  H   H1727     1.0  0.63425  0.30785  0.33689  1.0000
  H   H1728     1.0  0.64553  0.16888  0.26829  1.0000
  C   C2164     1.0  0.83039  0.12912  0.36698  1.0000
  C   C2165     1.0  0.85794  0.10567  0.34806  1.0000
  C   C2166     1.0  0.69657  0.07358  0.31724  1.0000
  H   H1729     1.0  0.64232  0.26910  0.33931  1.0000
  C   C2167     1.0  0.95936  0.01713  0.30882  1.0000
  C   C2168     1.0  0.95265  0.02464  0.45017  1.0000
  S   S295      1.0  0.64952  0.24450  0.30816  1.0000
  H   H1730     1.0  0.63684  0.09496  0.28188  1.0000
  H   H1731     1.0  0.67569  0.14199  0.25670  1.0000
  H   H1732     1.0  0.72670  0.05602  0.32436  1.0000
  C   C2169     1.0  0.51307  0.31663  0.26034  1.0000
  P   P74       1.0  0.97844  0.06651  0.46459  1.0000
  C   C2170     1.0  0.75607  0.12259  0.36985  1.0000
  C   C2171     1.0  0.84392  0.12586  0.29954  1.0000
  C   C2172     1.0  0.57384  0.28158  0.34651  1.0000
  H   H1733     1.0  0.81417  0.13725  0.37081  1.0000
  H   H1734     1.0  0.54861  0.30702  0.35626  1.0000
  H   H1735     1.0  0.89030  0.04140  0.43508  1.0000
  C   C2173     1.0  0.59360  0.24900  0.30788  1.0000
  H   H1736     1.0  0.86313  0.09513  0.33723  1.0000
  H   H1737     1.0  0.74357  0.05486  0.28719  1.0000
  C   C2174     1.0  0.80644  0.13283  0.30014  1.0000
  H   H1738     1.0  0.98353  0.02411  0.32011  1.0000
  C   C2175     1.0  0.72487  0.16973  0.31993  1.0000
  C   C2176     1.0  0.70284  0.17472  0.32282  1.0000
  C   C2177     1.0  0.69238  0.19579  0.31820  1.0000
  C   C2178     1.0  0.70389  0.21192  0.31079  1.0000
  C   C2179     1.0  0.72604  0.20701  0.30767  1.0000
  C   C2180     1.0  0.73644  0.18578  0.31221  1.0000
  P   P75       1.0  0.74140  0.22743  0.29887  1.0000
  C   C2181     1.0  0.75773  0.22640  0.27307  1.0000
  C   C2182     1.0  0.72419  0.25329  0.29657  1.0000
  C   C2183     1.0  0.71265  0.26034  0.28050  1.0000
  Fe  Fe151     1.0  0.63995  0.21768  0.24867  1.0000
  C   C2184     1.0  0.90144  0.07104  0.46303  1.0000
  C   C2185     1.0  0.70728  0.28566  0.30903  1.0000
  C   C2186     1.0  0.72172  0.26631  0.31062  1.0000
  C   C2187     1.0  0.96484  0.03917  0.44880  1.0000
  C   C2188     1.0  0.88741  0.03372  0.46870  1.0000
  H   H1739     1.0  0.77910  0.00188  0.32129  1.0000
  C   C2189     1.0  0.59190  0.31393  0.26478  1.0000
  C   C2190     1.0  0.57699  0.30191  0.30180  1.0000
  C   C2191     1.0  0.75709  0.22220  0.31851  1.0000
  C   C2192     1.0  0.77926  0.21687  0.31333  1.0000
  C   C2193     1.0  0.79109  0.21164  0.32899  1.0000
  C   C2194     1.0  0.78090  0.21151  0.34992  1.0000
  C   C2195     1.0  0.75885  0.21639  0.35526  1.0000
  C   C2196     1.0  0.74697  0.22148  0.33966  1.0000
  H   H1740     1.0  0.73306  0.15333  0.32297  1.0000
  H   H1741     1.0  0.69391  0.16224  0.32823  1.0000
  H   H1742     1.0  0.67530  0.19973  0.32019  1.0000
  H   H1743     1.0  0.69529  0.22807  0.30758  1.0000
  H   H1744     1.0  0.75353  0.18158  0.30956  1.0000
  C   C2197     1.0  0.52003  0.28141  0.28182  1.0000
  H   H1745     1.0  0.86972  0.99468  0.45156  1.0000
  H   H1746     1.0  0.63738  0.31833  0.27064  1.0000
  S   S296      1.0  0.98476  0.01712  0.36928  1.0000
  H   H1747     1.0  0.73065  0.26165  0.32292  1.0000
  H   H1748     1.0  0.66154  0.31565  0.23684  1.0000
  H   H1749     1.0  0.62603  0.30556  0.47232  1.0000
  H   H1750     1.0  0.93036  0.00601  0.47054  1.0000
  C   C2198     1.0  0.94915  0.00148  0.30865  1.0000
  S   S297      1.0  0.63112  0.25022  0.25542  1.0000
  H   H1751     1.0  0.78751  0.21636  0.29733  1.0000
  H   H1752     1.0  0.80820  0.20755  0.32490  1.0000
  H   H1753     1.0  0.79010  0.20748  0.36203  1.0000
  H   H1754     1.0  0.75092  0.21609  0.37152  1.0000
  H   H1755     1.0  0.72985  0.22475  0.34408  1.0000
  H   H1756     1.0  0.72362  0.07209  0.25918  1.0000
  C   C2199     1.0  0.62425  0.14740  0.28163  1.0000
  H   H1757     1.0  0.94307  0.10729  0.40607  1.0000
  S   S298      1.0  0.90641  0.07987  0.42007  1.0000
  H   H1758     1.0  0.66881  0.09128  0.30559  1.0000
  C   C2200     1.0  0.97361  0.11479  0.40195  1.0000
  H   H1759     1.0  0.55111  0.21709  0.31308  1.0000
  C   C2201     1.0  0.64288  0.28581  0.28699  1.0000
  H   H1760     1.0  0.64523  0.27982  0.27302  1.0000
  H   H1761     1.0  0.68882  0.28459  0.26697  1.0000
  H   H1762     1.0  0.61088  0.15964  0.28597  1.0000
  H   H1763     1.0  0.90537  0.99221  0.35947  1.0000
  H   H1764     1.0  0.60204  0.25730  0.34103  1.0000
  S   S299      1.0  0.88891  0.99372  0.40364  1.0000
  H   H1765     1.0  0.95354  0.03351  0.30185  1.0000
  C   C2202     1.0  0.64107  0.27986  0.32436  1.0000
  C   C2203     1.0  0.81016  0.14241  0.27876  1.0000
  H   H1766     1.0  0.83978  0.14021  0.38975  1.0000
  H   H1767     1.0  0.78112  0.09575  0.36582  1.0000
  P   P76       1.0  0.56508  0.28279  0.32288  1.0000
  H   H1768     1.0  0.69548  0.05091  0.25959  1.0000
  C   C2204     1.0  0.83076  0.14343  0.26766  1.0000
  C   C2205     1.0  0.87241  0.10766  0.35872  1.0000
  H   H1769     1.0  0.61440  0.25731  0.37211  1.0000
  C   C2206     1.0  0.71584  0.07258  0.27534  1.0000
  C   C2207     1.0  0.59948  0.22942  0.30220  1.0000
  S   S300      1.0  0.61339  0.20282  0.24894  1.0000
  H   H1770     1.0  0.59427  0.28189  0.39549  1.0000
  C   C2208     1.0  0.58845  0.28158  0.38203  1.0000
  H   H1771     1.0  0.79041  0.13144  0.30811  1.0000
  C   C2209     1.0  0.98307  0.99089  0.32902  1.0000
  C   C2210     1.0  0.63527  0.31571  0.30357  1.0000
  C   C2211     1.0  0.69826  0.27966  0.27895  1.0000
  H   H1772     1.0  0.71320  0.11926  0.25684  1.0000
  H   H1773     1.0  0.83486  0.07504  0.36887  1.0000
  C   C2212     1.0  0.64382  0.15265  0.27160  1.0000
  C   C2213     1.0  0.52742  0.29860  0.26759  1.0000
  C   C2214     1.0  0.63645  0.30178  0.32301  1.0000
  H   H1774     1.0  0.86367  0.13533  0.26933  1.0000
  C   C2215     1.0  0.82325  0.12474  0.31086  1.0000
  C   C2216     1.0  0.58364  0.29856  0.28116  1.0000
  C   C2217     1.0  0.79153  0.12508  0.34975  1.0000
  C   C2218     1.0  0.95704  0.10435  0.41258  1.0000
  C   C2219     1.0  0.59259  0.26780  0.35115  1.0000
  C   C2220     1.0  0.76973  0.21116  0.24213  1.0000
  H   H1775     1.0  0.51345  0.31239  0.43620  1.0000
  H   H1776     1.0  0.74682  0.20027  0.26880  1.0000
  C   C2221     1.0  0.50194  0.30219  0.41449  1.0000
  C   C2222     1.0  0.74995  0.14460  0.36523  1.0000
  C   C2223     1.0  0.81136  0.05613  0.33204  1.0000
  Fe  Fe152     1.0  0.68650  0.21474  0.24446  1.0000
  Fe  Fe153     1.0  0.78650  0.06162  0.25061  1.0000
  H   H1777     1.0  0.58260  0.28412  0.27761  1.0000
  H   H1778     1.0  0.89797  0.00654  0.28691  1.0000
  C   C2224     1.0  0.58417  0.21802  0.30389  1.0000
  C   C2225     1.0  0.56266  0.29558  0.35977  1.0000
  C   C2226     1.0  0.89693  0.05838  0.48329  1.0000
  C   C2227     1.0  0.53669  0.29178  0.32768  1.0000
  H   H1779     1.0  0.83686  0.03717  0.37288  1.0000
  H   H1780     1.0  0.88197  0.01931  0.47083  1.0000
  H   H1781     1.0  0.56132  0.30635  0.38755  1.0000
  C   C2228     1.0  0.75722  0.21142  0.26222  1.0000
  C   C2229     1.0  0.97678  0.08522  0.43992  1.0000
  H   H1782     1.0  0.97390  0.04548  0.43360  1.0000
  H   H1783     1.0  0.82188  0.02480  0.34935  1.0000
  C   C2230     1.0  0.56296  0.22596  0.31185  1.0000
  C   C2231     1.0  0.50000  0.31402  0.42936  1.0000
  H   H1784     1.0  0.74470  0.11302  0.37919  1.0000
  C   C2232     1.0  0.52390  0.28159  0.34552  1.0000
  H   H1785     1.0  0.75978  0.17393  0.34930  1.0000
  H   H1786     1.0  0.54055  0.25111  0.32396  1.0000
  C   C2233     1.0  0.69542  0.29224  0.29332  1.0000
  C   C2234     1.0  0.56987  0.29539  0.37753  1.0000
  H   H1787     1.0  0.73382  0.15210  0.37098  1.0000
  H   H1788     1.0  0.77569  0.13785  0.25258  1.0000
  H   H1789     1.0  0.53120  0.26733  0.28712  1.0000
  H   H1790     1.0  0.93545  0.00582  0.30151  1.0000
  H   H1791     1.0  0.49295  0.26869  0.29981  1.0000
  H   H1792     1.0  0.83367  0.15021  0.25092  1.0000
  C   C2235     1.0  0.77062  0.24131  0.26332  1.0000
  H   H1793     1.0  0.59768  0.31097  0.24904  1.0000
  C   C2236     1.0  0.72962  0.17397  0.25096  1.0000
  S   S301      1.0  0.78004  0.09690  0.24069  1.0000
  H   H1794     1.0  0.97601  0.05646  0.38412  1.0000
  C   C2237     1.0  0.89698  0.99003  0.29286  1.0000
  C   C2238     1.0  0.79464  0.99617  0.31255  1.0000
  C   C2239     1.0  0.97630  0.01183  0.31903  1.0000
  C   C2240     1.0  0.78327  0.24082  0.24325  1.0000
  C   C2241     1.0  0.69845  0.10853  0.23757  1.0000
  H   H1795     1.0  0.68394  0.02681  0.24508  1.0000
  C   C2242     1.0  0.57827  0.32106  0.30564  1.0000
  H   H1796     1.0  0.68379  0.30695  0.29246  1.0000
  C   C2243     1.0  0.50531  0.31634  0.31805  1.0000
  H   H1797     1.0  0.93427  0.08169  0.48297  1.0000
  S   S302      1.0  0.76563  0.04181  0.24711  1.0000
  C   C2244     1.0  0.75047  0.16372  0.24456  1.0000
  H   H1798     1.0  0.76546  0.04714  0.71301  1.0000
  H   H1799     1.0  0.88585  0.05439  0.71814  1.0000
  Fe  Fe154     1.0  0.82825  0.11034  0.69054  1.0000
  C   C2245     1.0  0.82714  0.05240  0.62436  1.0000
  C   C2246     1.0  0.81918  0.98971  0.67797  1.0000
  S   S303      1.0  0.86742  0.08206  0.58078  1.0000
  H   H1800     1.0  0.81853  0.22655  0.66492  1.0000
  C   C2247     1.0  0.62530  0.20945  0.56577  1.0000
  Fe  Fe155     1.0  0.67566  0.26483  0.70787  1.0000
  S   S304      1.0  0.66085  0.25931  0.68415  1.0000
  C   C2248     1.0  0.84085  0.05811  0.53559  1.0000
  Fe  Fe156     1.0  0.70884  0.28519  0.67501  1.0000
  S   S305      1.0  0.69718  0.28141  0.64808  1.0000
  S   S306      1.0  0.73624  0.30037  0.67172  1.0000
  Fe  Fe157     1.0  0.66474  0.29200  0.66654  1.0000
  C   C2249     1.0  0.98591  0.02962  0.55616  1.0000
  Fe  Fe158     1.0  0.69431  0.24894  0.66772  1.0000
  S   S307      1.0  0.70120  0.22114  0.65246  1.0000
  S   S308      1.0  0.67665  0.29850  0.69189  1.0000
  S   S309      1.0  0.70901  0.25181  0.69290  1.0000
  S   S310      1.0  0.80062  0.09721  0.71131  1.0000
  C   C2250     1.0  0.53818  0.28658  0.51735  1.0000
  Fe  Fe159     1.0  0.78088  0.12876  0.70006  1.0000
  S   S311      1.0  0.75126  0.13035  0.68925  1.0000
  S   S312      1.0  0.80820  0.14063  0.67691  1.0000
  C   C2251     1.0  0.85438  0.25785  0.68860  1.0000
  H   H1801     1.0  0.80105  0.02086  0.67922  1.0000
  C   C2252     1.0  0.85292  0.03410  0.70169  1.0000
  C   C2253     1.0  0.90835  0.28910  0.64577  1.0000
  C   C2254     1.0  0.88153  0.27636  0.71757  1.0000
  H   H1802     1.0  0.57607  0.31694  0.61859  1.0000
  C   C2255     1.0  0.84118  0.03830  0.63636  1.0000
  H   H1803     1.0  0.92356  0.23028  0.67312  1.0000
  C   C2256     1.0  0.92812  0.27698  0.63895  1.0000
  H   H1804     1.0  0.85391  0.19772  0.60113  1.0000
  C   C2257     1.0  0.81406  0.27361  0.67908  1.0000
  H   H1805     1.0  0.88305  0.28778  0.70283  1.0000
  H   H1806     1.0  0.85714  0.21411  0.65729  1.0000
  C   C2258     1.0  0.85887  0.08733  0.64877  1.0000
  C   C2259     1.0  0.84643  0.10206  0.63557  1.0000
  C   C2260     1.0  0.84933  0.10045  0.61462  1.0000
  H   H1807     1.0  0.83483  0.11483  0.64140  1.0000
  H   H1808     1.0  0.83997  0.11203  0.60433  1.0000
  H   H1809     1.0  0.85306  0.02690  0.68909  1.0000
  C   C2261     1.0  0.76398  0.07326  0.68654  1.0000
  C   C2262     1.0  0.83067  0.02598  0.60458  1.0000
  H   H1810     1.0  0.82513  0.06274  0.67719  1.0000
  C   C2263     1.0  0.84616  0.20439  0.61482  1.0000
  C   C2264     1.0  0.77470  0.03870  0.61811  1.0000
  H   H1811     1.0  0.68859  0.22288  0.72378  1.0000
  H   H1812     1.0  0.98905  0.00499  0.60682  1.0000
  C   C2265     1.0  0.76221  0.20923  0.70576  1.0000
  H   H1813     1.0  0.76632  0.25853  0.70567  1.0000
  C   C2266     1.0  0.71459  0.19617  0.66407  1.0000
  C   C2267     1.0  0.71354  0.17846  0.65744  1.0000
  C   C2268     1.0  0.72486  0.15841  0.66526  1.0000
  C   C2269     1.0  0.73775  0.15592  0.67944  1.0000
  C   C2270     1.0  0.73857  0.17349  0.68646  1.0000
  C   C2271     1.0  0.72683  0.19362  0.67890  1.0000
  H   H1814     1.0  0.70402  0.18031  0.64608  1.0000
  H   H1815     1.0  0.72382  0.14485  0.66010  1.0000
  H   H1816     1.0  0.74788  0.17144  0.69803  1.0000
  H   H1817     1.0  0.72747  0.20718  0.68430  1.0000
  C   C2272     1.0  0.60942  0.21918  0.58025  1.0000
  H   H1818     1.0  0.89823  0.15758  0.70845  1.0000
  H   H1819     1.0  0.71390  0.28407  0.71329  1.0000
  C   C2273     1.0  0.74125  0.29741  0.69681  1.0000
  C   C2274     1.0  0.63189  0.22107  0.54557  1.0000
  H   H1820     1.0  0.83759  0.99130  0.72745  1.0000
  H   H1821     1.0  0.67636  0.17733  0.69381  1.0000
  C   C2275     1.0  0.83271  0.17731  0.73196  1.0000
  C   C2276     1.0  0.56290  0.30227  0.52556  1.0000
  H   H1822     1.0  0.77645  0.30579  0.72084  1.0000
  H   H1823     1.0  0.64251  0.19090  0.71583  1.0000
  Fe  Fe160     1.0  0.81155  0.15215  0.70397  1.0000
  C   C2277     1.0  0.91903  0.24671  0.66583  1.0000
  S   S313      1.0  0.78276  0.14217  0.72650  1.0000
  H   H1824     1.0  0.63252  0.19291  0.57020  1.0000
  C   C2278     1.0  0.83460  0.04892  0.73216  1.0000
  H   H1825     1.0  0.55611  0.30606  0.56766  1.0000
  C   C2279     1.0  0.61510  0.24404  0.72805  1.0000
  C   C2280     1.0  0.75449  0.03423  0.62638  1.0000
  C   C2281     1.0  0.67391  0.17240  0.71079  1.0000
  H   H1826     1.0  0.84386  0.06454  0.56399  1.0000
  H   H1827     1.0  0.88388  0.05969  0.65116  1.0000
  H   H1828     1.0  0.60221  0.28668  0.50112  1.0000
  C   C2282     1.0  0.86446  0.08401  0.60691  1.0000
  S   S314      1.0  0.90874  0.05702  0.53770  1.0000
  H   H1829     1.0  0.87862  0.28971  0.66764  1.0000
  C   C2283     1.0  0.56377  0.31237  0.59393  1.0000
  H   H1830     1.0  0.78814  0.02720  0.62293  1.0000
  C   C2284     1.0  0.57138  0.28264  0.53728  1.0000
  C   C2285     1.0  0.61303  0.29387  0.50497  1.0000
  C   C2286     1.0  0.87684  0.06930  0.62017  1.0000
  C   C2287     1.0  0.80666  0.05270  0.53512  1.0000
  C   C2288     1.0  0.79668  0.05303  0.69720  1.0000
  H   H1831     1.0  0.84567  0.04325  0.64831  1.0000
  H   H1832     1.0  0.81523  0.21027  0.60826  1.0000
  C   C2289     1.0  0.81687  0.27153  0.69940  1.0000
  S   S315      1.0  0.88547  0.02269  0.51101  1.0000
  C   C2290     1.0  0.82423  0.21144  0.61898  1.0000
  H   H1833     1.0  0.79847  0.27976  0.67549  1.0000
  H   H1834     1.0  0.53938  0.25350  0.53118  1.0000
  C   C2291     1.0  0.77457  0.05671  0.70007  1.0000
  H   H1835     1.0  0.74715  0.26057  0.64760  1.0000
  C   C2292     1.0  0.87413  0.07104  0.64101  1.0000
  C   C2293     1.0  0.56255  0.26511  0.53957  1.0000
  P   P77       1.0  0.78551  0.22772  0.64259  1.0000
  C   C2294     1.0  0.62272  0.24247  0.53987  1.0000
  C   C2295     1.0  0.77497  0.20912  0.63532  1.0000
  C   C2296     1.0  0.73930  0.06785  0.60623  1.0000
  H   H1836     1.0  0.92206  0.17580  0.71661  1.0000
  C   C2297     1.0  0.81225  0.06071  0.56617  1.0000
  H   H1837     1.0  0.66560  0.29708  0.62050  1.0000
  C   C2298     1.0  0.78414  0.18751  0.63978  1.0000
  H   H1838     1.0  0.74986  0.23231  0.62225  1.0000
  C   C2299     1.0  0.75804  0.26647  0.63351  1.0000
  H   H1839     1.0  0.93931  0.98900  0.61478  1.0000
  S   S316      1.0  0.85588  0.08860  0.67503  1.0000
  H   H1840     1.0  0.58784  0.24785  0.58599  1.0000
  H   H1841     1.0  0.85751  0.21693  0.69060  1.0000
  H   H1842     1.0  0.77181  0.19507  0.67904  1.0000
  C   C2300     1.0  0.83131  0.26757  0.66353  1.0000
  C   C2301     1.0  0.97955  0.01968  0.57713  1.0000
  H   H1843     1.0  0.72117  0.04529  0.62687  1.0000
  P   P78       1.0  0.80321  0.06408  0.59303  1.0000
  C   C2302     1.0  0.77733  0.05783  0.60381  1.0000
  C   C2303     1.0  0.80118  0.09119  0.59432  1.0000
  C   C2304     1.0  0.78817  0.09885  0.61183  1.0000
  C   C2305     1.0  0.78609  0.11981  0.61303  1.0000
  C   C2306     1.0  0.79695  0.13333  0.59672  1.0000
  C   C2307     1.0  0.80990  0.12588  0.57924  1.0000
  C   C2308     1.0  0.81208  0.10491  0.57804  1.0000
  C   C2309     1.0  0.75948  0.07236  0.59792  1.0000
  H   H1844     1.0  0.79594  0.28840  0.58270  1.0000
  H   H1845     1.0  0.78278  0.05518  0.56300  1.0000
  H   H1846     1.0  0.62822  0.30214  0.54607  1.0000
  H   H1847     1.0  0.80344  0.27554  0.71166  1.0000
  C   C2310     1.0  0.63773  0.32078  0.62735  1.0000
  H   H1848     1.0  0.93915  0.11130  0.53005  1.0000
  C   C2311     1.0  0.59920  0.29688  0.59980  1.0000
  S   S317      1.0  0.81668  0.18525  0.69655  1.0000
  C   C2312     1.0  0.87155  0.03932  0.70257  1.0000
  H   H1849     1.0  0.75759  0.19519  0.71641  1.0000
  H   H1850     1.0  0.52386  0.31578  0.55480  1.0000
  C   C2313     1.0  0.57931  0.30939  0.60544  1.0000
  Fe  Fe161     1.0  0.93473  0.03376  0.55199  1.0000
  C   C2314     1.0  0.62758  0.30249  0.53018  1.0000
  H   H1851     1.0  0.77976  0.08852  0.62463  1.0000
  H   H1852     1.0  0.77619  0.12555  0.62667  1.0000
  H   H1853     1.0  0.79560  0.14949  0.59773  1.0000
  H   H1854     1.0  0.81874  0.13618  0.56679  1.0000
  H   H1855     1.0  0.82259  0.09957  0.56453  1.0000
  H   H1856     1.0  0.76121  0.08717  0.58685  1.0000
  C   C2315     1.0  0.76705  0.24497  0.69960  1.0000
  C   C2316     1.0  0.82192  0.04642  0.60823  1.0000
  C   C2317     1.0  0.82764  0.05357  0.52518  1.0000
  C   C2318     1.0  0.85803  0.20548  0.62859  1.0000
  C   C2319     1.0  0.61310  0.29308  0.52602  1.0000
  C   C2320     1.0  0.49319  0.31739  0.54939  1.0000
  C   C2321     1.0  0.84799  0.21377  0.64641  1.0000
  H   H1857     1.0  0.86174  0.00757  0.64098  1.0000
  C   C2322     1.0  0.60019  0.24056  0.57460  1.0000
  H   H1858     1.0  0.56875  0.24980  0.54853  1.0000
  S   S318      1.0  0.92520  0.00565  0.54801  1.0000
  H   H1859     1.0  0.83386  0.05045  0.50951  1.0000
  H   H1860     1.0  0.93932  0.28399  0.62589  1.0000
  C   C2323     1.0  0.90380  0.20701  0.70714  1.0000
  H   H1861     1.0  0.79650  0.04901  0.52705  1.0000
  C   C2324     1.0  0.83696  0.26379  0.70411  1.0000
  H   H1862     1.0  0.56947  0.31599  0.52359  1.0000
  H   H1863     1.0  0.80785  0.22517  0.70790  1.0000
  H   H1864     1.0  0.80680  0.25270  0.60339  1.0000
  C   C2325     1.0  0.60371  0.28764  0.58243  1.0000
  H   H1865     1.0  0.54071  0.31934  0.50582  1.0000
  C   C2326     1.0  0.87688  0.18640  0.69826  1.0000
  C   C2327     1.0  0.56821  0.30307  0.57659  1.0000
  C   C2328     1.0  0.94151  0.02218  0.48768  1.0000
  Fe  Fe162     1.0  0.90527  0.00556  0.58044  1.0000
  C   C2329     1.0  0.85142  0.25962  0.66827  1.0000
  C   C2330     1.0  0.83203  0.99085  0.71387  1.0000
  C   C2331     1.0  0.97843  0.08812  0.49482  1.0000
  P   P79       1.0  0.81021  0.03204  0.71507  1.0000
  H   H1866     1.0  0.81456  0.98942  0.66381  1.0000
  C   C2332     1.0  0.77628  0.17290  0.63417  1.0000
  C   C2333     1.0  0.79895  0.05626  0.55555  1.0000
  C   C2334     1.0  0.65485  0.18027  0.72339  1.0000
  C   C2335     1.0  0.83325  0.06149  0.55602  1.0000
  C   C2336     1.0  0.81152  0.00754  0.68683  1.0000
  C   C2337     1.0  0.89490  0.17467  0.70581  1.0000
  C   C2338     1.0  0.72763  0.28877  0.71474  1.0000
  C   C2339     1.0  0.77005  0.20931  0.68439  1.0000
  C   C2340     1.0  0.81397  0.21957  0.63703  1.0000
  H   H1867     1.0  0.94875  0.24638  0.64362  1.0000
  H   H1868     1.0  0.76952  0.31021  0.68521  1.0000
  C   C2341     1.0  0.76295  0.30089  0.71915  1.0000
  Fe  Fe163     1.0  0.89769  0.02864  0.53663  1.0000
  S   S319      1.0  0.96831  0.03816  0.53875  1.0000
  C   C2342     1.0  0.82189  0.19235  0.71751  1.0000
  H   H1869     1.0  0.91419  0.21475  0.71099  1.0000
  C   C2343     1.0  0.50054  0.31361  0.58365  1.0000
  H   H1870     1.0  0.50045  0.31780  0.48869  1.0000
  H   H1871     1.0  0.83875  0.26201  0.72002  1.0000
  C   C2344     1.0  0.77590  0.22744  0.67033  1.0000
  H   H1872     1.0  0.73690  0.29649  0.62694  1.0000
  C   C2345     1.0  0.75778  0.21590  0.62519  1.0000
  C   C2346     1.0  0.82604  0.22084  0.65065  1.0000
  C   C2347     1.0  0.75940  0.17979  0.62377  1.0000
  C   C2348     1.0  0.89390  0.28007  0.66263  1.0000
  H   H1873     1.0  0.86461  0.25472  0.65616  1.0000
  C   C2349     1.0  0.90830  0.18495  0.71038  1.0000
  H   H1874     1.0  0.72560  0.07914  0.60162  1.0000
  C   C2350     1.0  0.79151  0.26201  0.60877  1.0000
  C   C2351     1.0  0.77796  0.25402  0.62731  1.0000
  H   H1875     1.0  0.70468  0.15211  0.71053  1.0000
  S   S320      1.0  0.91692  0.03209  0.58546  1.0000
  H   H1876     1.0  0.83713  0.16092  0.73079  1.0000
  C   C2352     1.0  0.87215  0.20840  0.69535  1.0000
  C   C2353     1.0  0.84483  0.01199  0.61651  1.0000
  H   H1877     1.0  0.82701  0.02100  0.59215  1.0000
  C   C2354     1.0  0.93343  0.25580  0.64896  1.0000
  H   H1878     1.0  0.80623  0.09198  0.65376  1.0000
  H   H1879     1.0  0.88570  0.03630  0.69067  1.0000
  H   H1880     1.0  0.75471  0.22705  0.72986  1.0000
  H   H1881     1.0  0.76098  0.31050  0.59442  1.0000
  H   H1882     1.0  0.66607  0.30527  0.58231  1.0000
  H   H1883     1.0  0.75288  0.16844  0.61995  1.0000
  C   C2355     1.0  0.77437  0.24530  0.67813  1.0000
  C   C2356     1.0  0.94404  0.08647  0.49066  1.0000
  C   C2357     1.0  0.73680  0.04879  0.62046  1.0000
  S   S321      1.0  0.83417  0.12297  0.71554  1.0000
  H   H1884     1.0  0.64419  0.21352  0.53432  1.0000
  C   C2358     1.0  0.75898  0.30345  0.69902  1.0000
  C   C2359     1.0  0.87165  0.04957  0.71803  1.0000
  C   C2360     1.0  0.78540  0.28230  0.59694  1.0000
  C   C2361     1.0  0.83424  0.03881  0.71653  1.0000
  H   H1885     1.0  0.96350  0.01741  0.58298  1.0000
  C   C2362     1.0  0.88061  0.25547  0.71834  1.0000
  C   C2363     1.0  0.76068  0.22708  0.71335  1.0000
  H   H1886     1.0  0.78294  0.15620  0.63846  1.0000
  H   H1887     1.0  0.73639  0.20653  0.61219  1.0000
  C   C2364     1.0  0.58842  0.29108  0.57033  1.0000
  C   C2365     1.0  0.85020  0.01819  0.63228  1.0000
  C   C2366     1.0  0.81619  0.21355  0.71908  1.0000
  H   H1888     1.0  0.82903  0.26886  0.64787  1.0000
  S   S322      1.0  0.87704  0.02651  0.56868  1.0000
  C   C2367     1.0  0.96870  0.09887  0.51109  1.0000
  H   H1889     1.0  0.79713  0.18194  0.64800  1.0000
  H   H1890     1.0  0.77871  0.25950  0.66765  1.0000
  P   P80       1.0  0.88026  0.24752  0.69483  1.0000
  H   H1891     1.0  0.62805  0.25116  0.52415  1.0000
  C   C2368     1.0  0.95350  0.03688  0.48639  1.0000
  C   C2369     1.0  0.60699  0.25243  0.55445  1.0000
  H   H1892     1.0  0.86620  0.17840  0.69516  1.0000
  H   H1893     1.0  0.61133  0.29473  0.60862  1.0000
  C   C2370     1.0  0.82113  0.21968  0.73522  1.0000
  C   C2371     1.0  0.75016  0.20127  0.61930  1.0000
  H   H1894     1.0  0.91728  0.10099  0.51142  1.0000
  H   H1895     1.0  0.76704  0.09943  0.66015  1.0000
  C   C2372     1.0  0.89910  0.25878  0.67283  1.0000
  H   H1896     1.0  0.87497  0.19957  0.62565  1.0000
  C   C2373     1.0  0.88587  0.21896  0.69922  1.0000
  H   H1897     1.0  0.82099  0.06811  0.62732  1.0000
  P   P81       1.0  0.59478  0.27993  0.54720  1.0000
  H   H1898     1.0  0.75257  0.01943  0.63736  1.0000
  H   H1899     1.0  0.61931  0.27817  0.57821  1.0000
  Fe  Fe164     1.0  0.89005  0.05327  0.57090  1.0000
  C   C2374     1.0  0.75207  0.28680  0.62173  1.0000
  H   H1900     1.0  0.88852  0.05661  0.61440  1.0000
  H   H1901     1.0  0.97824  0.10331  0.51928  1.0000
  H   H1902     1.0  0.88001  0.29913  0.73559  1.0000
  H   H1903     1.0  0.90421  0.30553  0.63800  1.0000
  C   C2375     1.0  0.64123  0.31302  0.51366  1.0000
  H   H1904     1.0  0.85719  0.05860  0.52797  1.0000
  H   H1905     1.0  0.60431  0.21018  0.59591  1.0000
  C   C2376     1.0  0.93436  0.09749  0.50671  1.0000
  C   C2377     1.0  0.79742  0.08187  0.66642  1.0000
  C   C2378     1.0  0.68997  0.15835  0.72011  1.0000
  C   C2379     1.0  0.77538  0.08598  0.66991  1.0000
  H   H1906     1.0  0.89889  0.06309  0.49665  1.0000
  C   C2380     1.0  0.94667  0.10340  0.51714  1.0000
  C   C2381     1.0  0.76572  0.29473  0.60347  1.0000
  C   C2382     1.0  0.59377  0.24766  0.72730  1.0000
  C   C2383     1.0  0.65348  0.30935  0.61412  1.0000
  C   C2384     1.0  0.80809  0.06528  0.67985  1.0000
  H   H1907     1.0  0.95367  0.04137  0.50060  1.0000
  C   C2385     1.0  0.54654  0.30419  0.51545  1.0000
  C   C2386     1.0  0.81791  0.00824  0.70487  1.0000
  Fe  Fe165     1.0  0.80523  0.11148  0.73568  1.0000
  H   H1908     1.0  0.85228  0.99657  0.61300  1.0000
  H   H1909     1.0  0.74112  0.08787  0.72606  1.0000
  C   C2387     1.0  0.54593  0.26713  0.52968  1.0000
  H   H1910     1.0  0.51159  0.30462  0.67414  1.0000
  C   C2388     1.0  0.49318  0.30855  0.65093  1.0000
  H   H1911     1.0  0.52592  0.28794  0.50905  1.0000
  H   H1912     1.0  0.74688  0.07672  0.68930  1.0000
  C   C2389     1.0  0.65368  0.31397  0.59252  1.0000
  H   H1913     1.0  0.49839  0.31998  0.53248  1.0000
  H   H1914     1.0  0.93228  0.01570  0.50264  1.0000
  S   S323      1.0  0.63774  0.31615  0.65428  1.0000
  H   H1915     1.0  0.58614  0.26295  0.71943  1.0000
  H   H1916     1.0  0.62396  0.25654  0.72101  1.0000
  C   C2390     1.0  0.85317  0.05437  0.73280  1.0000
  C   C2391     1.0  0.73123  0.28688  0.73478  1.0000
  H   H1917     1.0  0.51194  0.31213  0.59301  1.0000
  C   C2392     1.0  0.50770  0.31385  0.65930  1.0000
  C   C2393     1.0  0.64071  0.31409  0.49284  1.0000
  C   C2394     1.0  0.50752  0.31523  0.56199  1.0000
  C   C2395     1.0  0.62670  0.30440  0.48850  1.0000
  H   H1918     1.0  0.65196  0.32069  0.51709  1.0000
  C   C2396     1.0  0.89010  0.03959  0.48611  1.0000
  C   C2397     1.0  0.69986  0.03519  0.78167  1.0000
  C   C2398     1.0  0.80261  0.27047  0.87478  1.0000
  C   C2399     1.0  0.62663  0.20602  0.79100  1.0000
  H   H1919     1.0  0.72050  0.01405  0.80185  1.0000
  C   C2400     1.0  0.88426  0.19454  0.91945  1.0000
  H   H1920     1.0  0.60562  0.12328  0.74823  1.0000
  Fe  Fe166     1.0  0.59547  0.05433  0.86005  1.0000
  S   S324      1.0  0.62764  0.03660  0.86523  1.0000
  S   S325      1.0  0.58676  0.08955  0.84861  1.0000
  Fe  Fe167     1.0  0.57657  0.01503  0.87521  1.0000
  H   H1921     1.0  0.49419  0.01724  0.77675  1.0000
  Fe  Fe168     1.0  0.61018  0.01980  0.89568  1.0000
  C   C2401     1.0  0.76958  0.04474  0.76939  1.0000
  Fe  Fe169     1.0  0.62176  0.01247  0.85110  1.0000
  C   C2402     1.0  0.66318  0.29364  0.77922  1.0000
  S   S326      1.0  0.57819  0.03945  0.89156  1.0000
  S   S327      1.0  0.59098  0.03163  0.84319  1.0000
  Fe  Fe170     1.0  0.79158  0.25292  0.81669  1.0000
  S   S328      1.0  0.82638  0.24998  0.80446  1.0000
  S   S329      1.0  0.78021  0.23950  0.85086  1.0000
  Fe  Fe171     1.0  0.78089  0.27739  0.77466  1.0000
  S   S330      1.0  0.81502  0.27592  0.75847  1.0000
  Fe  Fe172     1.0  0.81983  0.24227  0.77680  1.0000
  S   S331      1.0  0.84086  0.21275  0.76784  1.0000
  Fe  Fe173     1.0  0.81867  0.28371  0.78770  1.0000
  S   S332      1.0  0.83991  0.30608  0.78488  1.0000
  S   S333      1.0  0.78543  0.24294  0.79016  1.0000
  S   S334      1.0  0.78418  0.28762  0.80261  1.0000
  H   H1922     1.0  0.62787  0.01693  0.96497  1.0000
  C   C2403     1.0  0.76704  0.02472  0.78134  1.0000
  C   C2404     1.0  0.52518  0.00910  0.75815  1.0000
  C   C2405     1.0  0.59613  0.02609  0.98213  1.0000
  C   C2406     1.0  0.85158  0.30093  0.95295  1.0000
  S   S335      1.0  0.81002  0.08853  0.76615  1.0000
  H   H1923     1.0  0.67394  0.29906  0.83117  1.0000
  Fe  Fe174     1.0  0.70073  0.15546  0.81676  1.0000
  S   S336      1.0  0.72941  0.14599  0.83092  1.0000
  Fe  Fe175     1.0  0.67186  0.14117  0.85808  1.0000
  S   S337      1.0  0.69831  0.12982  0.87551  1.0000
  S   S338      1.0  0.63813  0.14165  0.87518  1.0000
  Fe  Fe176     1.0  0.70867  0.16000  0.85763  1.0000
  S   S339      1.0  0.71665  0.17698  0.87820  1.0000
  Fe  Fe177     1.0  0.71666  0.11684  0.84728  1.0000
  S   S340      1.0  0.73887  0.08539  0.84886  1.0000
  S   S341      1.0  0.68087  0.17245  0.84200  1.0000
  S   S342      1.0  0.68921  0.12524  0.83141  1.0000
  C   C2407     1.0  0.78945  0.08724  0.78843  1.0000
  C   C2408     1.0  0.76988  0.10107  0.78839  1.0000
  C   C2409     1.0  0.75423  0.10052  0.80697  1.0000
  C   C2410     1.0  0.75798  0.08576  0.82538  1.0000
  C   C2411     1.0  0.77724  0.07132  0.82511  1.0000
  C   C2412     1.0  0.79302  0.07222  0.80674  1.0000
  H   H1924     1.0  0.76709  0.11244  0.77415  1.0000
  H   H1925     1.0  0.73932  0.11164  0.80715  1.0000
  H   H1926     1.0  0.78021  0.05987  0.83928  1.0000
  H   H1927     1.0  0.80814  0.06142  0.80679  1.0000
  C   C2413     1.0  0.76244  0.22230  0.85721  1.0000
  C   C2414     1.0  0.75902  0.21312  0.84227  1.0000
  C   C2415     1.0  0.74503  0.19904  0.84834  1.0000
  C   C2416     1.0  0.73445  0.19424  0.86934  1.0000
  C   C2417     1.0  0.73786  0.20352  0.88410  1.0000
  C   C2418     1.0  0.75183  0.21739  0.87810  1.0000
  H   H1928     1.0  0.76744  0.21641  0.82620  1.0000
  H   H1929     1.0  0.74259  0.19179  0.83688  1.0000
  H   H1930     1.0  0.72972  0.19987  0.90034  1.0000
  H   H1931     1.0  0.75441  0.22434  0.88973  1.0000
  C   C2419     1.0  0.65188  0.17435  0.74544  1.0000
  H   H1932     1.0  0.62281  0.22036  0.77953  1.0000
  C   C2420     1.0  0.84047  0.25988  0.87226  1.0000
  C   C2421     1.0  0.87708  0.26870  0.75550  1.0000
  C   C2422     1.0  0.58235  0.23160  0.73681  1.0000
  H   H1933     1.0  0.95814  0.26268  0.94742  1.0000
  C   C2423     1.0  0.65709  0.31318  0.78501  1.0000
  C   C2424     1.0  0.63025  0.18604  0.78631  1.0000
  H   H1934     1.0  0.73025  0.28152  0.87831  1.0000
  C   C2425     1.0  0.87615  0.24794  0.75640  1.0000
  C   C2426     1.0  0.60176  0.10377  0.85537  1.0000
  C   C2427     1.0  0.59168  0.12293  0.86132  1.0000
  C   C2428     1.0  0.60299  0.13427  0.86754  1.0000
  C   C2429     1.0  0.62462  0.12695  0.86712  1.0000
  C   C2430     1.0  0.63497  0.10820  0.86037  1.0000
  C   C2431     1.0  0.62345  0.09640  0.85486  1.0000
  H   H1935     1.0  0.57495  0.12871  0.86169  1.0000
  H   H1936     1.0  0.59497  0.14884  0.87258  1.0000
  H   H1937     1.0  0.65171  0.10255  0.85987  1.0000
  H   H1938     1.0  0.63142  0.08178  0.84994  1.0000
  H   H1939     1.0  0.69357  0.27541  0.89135  1.0000
  H   H1940     1.0  0.63797  0.15230  0.79870  1.0000
  H   H1941     1.0  0.93880  0.28603  0.92046  1.0000
  C   C2432     1.0  0.67005  0.08355  0.89758  1.0000
  P   P82       1.0  0.69610  0.05778  0.79300  1.0000
  H   H1942     1.0  0.67821  0.26112  0.78706  1.0000
  C   C2433     1.0  0.96158  0.32183  0.98102  1.0000
  C   C2434     1.0  0.96890  0.18913  0.97748  1.0000
  S   S343      1.0  0.60715  0.99408  0.88201  1.0000
  H   H1943     1.0  0.67723  0.00228  0.95746  1.0000
  C   C2435     1.0  0.60486  0.01890  0.94696  1.0000
  C   C2436     1.0  0.58337  0.02311  0.94683  1.0000
  C   C2437     1.0  0.56831  0.02889  0.96413  1.0000
  C   C2438     1.0  0.61127  0.02021  0.96473  1.0000
  H   H1944     1.0  0.57833  0.02155  0.93354  1.0000
  H   H1945     1.0  0.55168  0.03216  0.96385  1.0000
  C   C2439     1.0  0.50776  0.00196  0.88537  1.0000
  C   C2440     1.0  0.62808  0.20770  0.81078  1.0000
  H   H1946     1.0  0.66019  0.29205  0.76470  1.0000
  H   H1947     1.0  0.81215  0.30139  0.82613  1.0000
  C   C2441     1.0  0.72202  0.07431  0.75533  1.0000
  C   C2442     1.0  0.68980  0.03685  0.76526  1.0000
  H   H1948     1.0  0.67994  0.05168  0.75920  1.0000
  C   C2443     1.0  0.74889  0.29289  0.73708  1.0000
  S   S344      1.0  0.75103  0.29331  0.76242  1.0000
  H   H1949     1.0  0.82941  0.21018  0.84536  1.0000
  H   H1950     1.0  0.66701  0.15599  0.77137  1.0000
  C   C2444     1.0  0.69192  0.01923  0.75697  1.0000
  H   H1951     1.0  0.68443  0.01909  0.86714  1.0000
  C   C2445     1.0  0.71258  0.01581  0.78922  1.0000
  P   P83       1.0  0.86222  0.26660  0.89911  1.0000
  H   H1952     1.0  0.72587  0.19080  0.79862  1.0000
  H   H1953     1.0  0.86470  0.28954  0.85452  1.0000
  H   H1954     1.0  0.71994  0.28121  0.74852  1.0000
  H   H1955     1.0  0.71819  0.02303  0.87317  1.0000
  H   H1956     1.0  0.83827  0.17195  0.80080  1.0000
  H   H1957     1.0  0.65307  0.10643  0.91604  1.0000
  H   H1958     1.0  0.74554  0.21065  0.76629  1.0000
  C   C2446     1.0  0.73564  0.24000  0.77622  1.0000
  C   C2447     1.0  0.72249  0.25077  0.79140  1.0000
  C   C2448     1.0  0.71020  0.24006  0.80926  1.0000
  C   C2449     1.0  0.71191  0.21823  0.81208  1.0000
  P   P84       1.0  0.69105  0.25491  0.82703  1.0000
  C   C2450     1.0  0.67265  0.23884  0.84381  1.0000
  C   C2451     1.0  0.70369  0.26316  0.84324  1.0000
  C   C2452     1.0  0.69251  0.26672  0.86316  1.0000
  C   C2453     1.0  0.70205  0.27328  0.87578  1.0000
  C   C2454     1.0  0.72265  0.27676  0.86847  1.0000
  C   C2455     1.0  0.73367  0.27373  0.84852  1.0000
  C   C2456     1.0  0.72441  0.26666  0.83604  1.0000
  C   C2457     1.0  0.65246  0.24133  0.83982  1.0000
  C   C2458     1.0  0.63859  0.22853  0.85296  1.0000
  C   C2459     1.0  0.64492  0.21294  0.86987  1.0000
  C   C2460     1.0  0.66498  0.21039  0.87387  1.0000
  C   C2461     1.0  0.67875  0.22333  0.86096  1.0000
  C   C2462     1.0  0.67737  0.27773  0.81090  1.0000
  H   H1959     1.0  0.82365  0.25354  0.85202  1.0000
  H   H1960     1.0  0.85568  0.25200  0.86470  1.0000
  H   H1961     1.0  0.84802  0.19985  0.81149  1.0000
  C   C2463     1.0  0.49811  0.04532  0.88381  1.0000
  H   H1962     1.0  0.86602  0.27119  0.97028  1.0000
  C   C2464     1.0  0.63541  0.16791  0.80168  1.0000
  H   H1963     1.0  0.72145  0.26760  0.78889  1.0000
  H   H1964     1.0  0.70292  0.20941  0.82575  1.0000
  H   H1965     1.0  0.67648  0.26421  0.86906  1.0000
  C   C2465     1.0  0.61116  0.16316  0.76760  1.0000
  H   H1966     1.0  0.67249  0.10225  0.79073  1.0000
  H   H1967     1.0  0.74965  0.27643  0.84286  1.0000
  H   H1968     1.0  0.73361  0.26389  0.82093  1.0000
  H   H1969     1.0  0.64743  0.25298  0.82657  1.0000
  H   H1970     1.0  0.62303  0.23047  0.84990  1.0000
  H   H1971     1.0  0.63445  0.20258  0.87969  1.0000
  H   H1972     1.0  0.67015  0.19804  0.88670  1.0000
  H   H1973     1.0  0.69437  0.22093  0.86413  1.0000
  H   H1974     1.0  0.57941  0.11838  0.78190  1.0000
  H   H1975     1.0  0.59326  0.10144  0.98120  1.0000
  H   H1976     1.0  0.72658  0.12174  0.77524  1.0000
  C   C2466     1.0  0.58458  0.14443  0.79151  1.0000
  C   C2467     1.0  0.59585  0.16062  0.78635  1.0000
  H   H1977     1.0  0.97952  0.27661  0.96042  1.0000
  C   C2468     1.0  0.71466  0.99822  0.78090  1.0000
  H   H1978     1.0  0.78545  0.28722  0.89919  1.0000
  C   C2469     1.0  0.83878  0.18369  0.74730  1.0000
  H   H1979     1.0  0.57337  0.14204  0.80637  1.0000
  H   H1980     1.0  0.59291  0.17084  0.79725  1.0000
  H   H1981     1.0  0.54230  0.07478  0.96125  1.0000
  C   C2470     1.0  0.69690  0.19768  0.74937  1.0000
  H   H1982     1.0  0.72085  0.06138  0.74928  1.0000
  S   S345      1.0  0.70638  0.16498  0.78162  1.0000
  C   C2471     1.0  0.70425  0.99989  0.76488  1.0000
  C   C2472     1.0  0.66825  0.06998  0.79661  1.0000
  C   C2473     1.0  0.68926  0.03672  0.83511  1.0000
  C   C2474     1.0  0.69488  0.02770  0.85463  1.0000
  C   C2475     1.0  0.66141  0.09196  0.79452  1.0000
  C   C2476     1.0  0.63983  0.10101  0.79763  1.0000
  C   C2477     1.0  0.62494  0.08826  0.80283  1.0000
  C   C2478     1.0  0.63154  0.06644  0.80495  1.0000
  C   C2479     1.0  0.65306  0.05732  0.80184  1.0000
  C   C2480     1.0  0.63328  0.18951  0.82593  1.0000
  C   C2481     1.0  0.67333  0.27603  0.79205  1.0000
  H   H1983     1.0  0.91230  0.19819  0.89547  1.0000
  H   H1984     1.0  0.67465  0.03446  0.83283  1.0000
  S   S346      1.0  0.62368  0.01206  0.92493  1.0000
  H   H1985     1.0  0.63455  0.11787  0.79642  1.0000
  H   H1986     1.0  0.60823  0.09521  0.80574  1.0000
  H   H1987     1.0  0.61995  0.05652  0.80941  1.0000
  H   H1988     1.0  0.65772  0.04030  0.80383  1.0000
  H   H1989     1.0  0.76210  0.05867  0.77587  1.0000
  C   C2482     1.0  0.94314  0.27281  0.95232  1.0000
  C   C2483     1.0  0.89730  0.20617  0.90334  1.0000
  C   C2484     1.0  0.89088  0.22808  0.89716  1.0000
  C   C2485     1.0  0.87141  0.23852  0.90726  1.0000
  C   C2486     1.0  0.85828  0.22668  0.92320  1.0000
  C   C2487     1.0  0.85711  0.27948  0.92080  1.0000
  C   C2488     1.0  0.88244  0.27836  0.87950  1.0000
  C   C2489     1.0  0.90132  0.27826  0.88506  1.0000
  C   C2490     1.0  0.91692  0.28787  0.87035  1.0000
  C   C2491     1.0  0.91377  0.29769  0.85003  1.0000
  C   C2492     1.0  0.89505  0.29790  0.84440  1.0000
  C   C2493     1.0  0.87935  0.28843  0.85909  1.0000
  C   C2494     1.0  0.86372  0.26873  0.93971  1.0000
  H   H1990     1.0  0.56087  0.99807  0.92071  1.0000
  C   C2495     1.0  0.94394  0.22248  0.97767  1.0000
  C   C2496     1.0  0.51922  0.03422  0.88228  1.0000
  H   H1991     1.0  0.90101  0.23670  0.88436  1.0000
  H   H1992     1.0  0.90375  0.27119  0.90090  1.0000
  H   H1993     1.0  0.93119  0.28842  0.87480  1.0000
  H   H1994     1.0  0.92565  0.30563  0.83883  1.0000
  H   H1995     1.0  0.49440  0.06213  0.88317  1.0000
  H   H1996     1.0  0.87144  0.25225  0.94203  1.0000
  H   H1997     1.0  0.66102  0.23464  0.78560  1.0000
  H   H1998     1.0  0.87526  0.27391  0.76989  1.0000
  C   C2497     1.0  0.65322  0.05481  0.90041  1.0000
  C   C2498     1.0  0.63616  0.06301  0.91497  1.0000
  C   C2499     1.0  0.63578  0.08170  0.92077  1.0000
  C   C2500     1.0  0.65294  0.09188  0.91206  1.0000
  P   P85       1.0  0.61376  0.09169  0.93999  1.0000
  C   C2501     1.0  0.61230  0.11960  0.93681  1.0000
  C   C2502     1.0  0.58974  0.08779  0.93531  1.0000
  C   C2503     1.0  0.58752  0.09012  0.91461  1.0000
  C   C2504     1.0  0.56912  0.08705  0.91075  1.0000
  C   C2505     1.0  0.55276  0.08163  0.92751  1.0000
  C   C2506     1.0  0.55477  0.07940  0.94814  1.0000
  C   C2507     1.0  0.57322  0.08232  0.95207  1.0000
  C   C2508     1.0  0.62399  0.12647  0.94730  1.0000
  C   C2509     1.0  0.62362  0.14800  0.94426  1.0000
  C   C2510     1.0  0.61169  0.16282  0.93063  1.0000
  C   C2511     1.0  0.60008  0.15611  0.92009  1.0000
  C   C2512     1.0  0.60037  0.13459  0.92315  1.0000
  C   C2513     1.0  0.61732  0.07839  0.96633  1.0000
  H   H1999     1.0  0.63285  0.15316  0.95224  1.0000
  H   H2000     1.0  0.84842  0.10248  0.76863  1.0000
  C   C2514     1.0  0.61370  0.20820  0.74783  1.0000
  H   H2001     1.0  0.75749  0.02309  0.79713  1.0000
  H   H2002     1.0  0.89247  0.30589  0.82876  1.0000
  C   C2515     1.0  0.82346  0.31049  0.82579  1.0000
  H   H2003     1.0  0.54001  0.03396  0.92355  1.0000
  H   H2004     1.0  0.65317  0.04048  0.89593  1.0000
  H   H2005     1.0  0.62312  0.05490  0.92162  1.0000
  C   C2516     1.0  0.69389  0.19061  0.77120  1.0000
  H   H2006     1.0  0.60009  0.09421  0.90143  1.0000
  H   H2007     1.0  0.56769  0.08866  0.89471  1.0000
  H   H2008     1.0  0.53864  0.07894  0.92451  1.0000
  C   C2517     1.0  0.81885  0.27894  0.89887  1.0000
  C   C2518     1.0  0.66831  0.16049  0.75457  1.0000
  C   C2519     1.0  0.54465  0.99494  0.75692  1.0000
  C   C2520     1.0  0.67422  0.23147  0.75362  1.0000
  P   P86       1.0  0.62666  0.18325  0.76162  1.0000
  H   H2009     1.0  0.59128  0.16749  0.90909  1.0000
  H   H2010     1.0  0.59172  0.12975  0.91439  1.0000
  H   H2011     1.0  0.64193  0.05250  0.95695  1.0000
  H   H2012     1.0  0.68366  0.02048  0.74471  1.0000
  C   C2521     1.0  0.95008  0.20245  0.97289  1.0000
  H   H2013     1.0  0.74395  0.11797  0.73888  1.0000
  H   H2014     1.0  0.81696  0.28585  0.91216  1.0000
  C   C2522     1.0  0.72729  0.04093  0.84181  1.0000
  C   C2523     1.0  0.78444  0.18408  0.76884  1.0000
  C   C2524     1.0  0.77042  0.17317  0.76633  1.0000
  C   C2525     1.0  0.76597  0.15516  0.78121  1.0000
  C   C2526     1.0  0.77645  0.14731  0.79798  1.0000
  C   C2527     1.0  0.79076  0.15800  0.80055  1.0000
  C   C2528     1.0  0.79450  0.17663  0.78595  1.0000
  P   P87       1.0  0.80665  0.14575  0.82019  1.0000
  C   C2529     1.0  0.79158  0.12955  0.84177  1.0000
  C   C2530     1.0  0.83024  0.12940  0.80822  1.0000
  C   C2531     1.0  0.84856  0.12403  0.81657  1.0000
  C   C2532     1.0  0.86681  0.11118  0.80751  1.0000
  C   C2533     1.0  0.86684  0.10349  0.79017  1.0000
  C   C2534     1.0  0.84860  0.10858  0.78193  1.0000
  C   C2535     1.0  0.83035  0.12142  0.79093  1.0000
  C   C2536     1.0  0.77170  0.13866  0.85231  1.0000
  C   C2537     1.0  0.75967  0.12622  0.86865  1.0000
  C   C2538     1.0  0.76702  0.10444  0.87406  1.0000
  C   C2539     1.0  0.78655  0.09512  0.86333  1.0000
  C   C2540     1.0  0.79885  0.10759  0.84727  1.0000
  C   C2541     1.0  0.81412  0.16567  0.82883  1.0000
  C   C2542     1.0  0.80414  0.17125  0.84824  1.0000
  C   C2543     1.0  0.80985  0.18707  0.85421  1.0000
  C   C2544     1.0  0.82561  0.19740  0.84099  1.0000
  C   C2545     1.0  0.83599  0.19164  0.82193  1.0000
  C   C2546     1.0  0.83032  0.17584  0.81588  1.0000
  H   H2015     1.0  0.78761  0.19828  0.75746  1.0000
  C   C2547     1.0  0.58805  0.13103  0.77774  1.0000
  H   H2016     1.0  0.75452  0.14719  0.77958  1.0000
  H   H2017     1.0  0.77369  0.13263  0.80871  1.0000
  H   H2018     1.0  0.80546  0.18525  0.78735  1.0000
  H   H2019     1.0  0.84869  0.12974  0.83011  1.0000
  H   H2020     1.0  0.88091  0.10714  0.81397  1.0000
  C   C2548     1.0  0.67013  0.06514  0.89164  1.0000
  C   C2549     1.0  0.86083  0.27943  0.95576  1.0000
  H   H2021     1.0  0.81639  0.12486  0.78434  1.0000
  H   H2022     1.0  0.76530  0.15538  0.84772  1.0000
  H   H2023     1.0  0.74437  0.13345  0.87673  1.0000
  H   H2024     1.0  0.75725  0.09472  0.88613  1.0000
  H   H2025     1.0  0.79189  0.07814  0.86711  1.0000
  H   H2026     1.0  0.81369  0.09993  0.83891  1.0000
  H   H2027     1.0  0.79176  0.16384  0.85884  1.0000
  H   H2028     1.0  0.80152  0.19184  0.86882  1.0000
  C   C2550     1.0  0.79292  0.02895  0.74087  1.0000
  C   C2551     1.0  0.70257  0.04808  0.81877  1.0000
  C   C2552     1.0  0.71390  0.02982  0.85799  1.0000
  H   H2029     1.0  0.84297  0.23442  0.93079  1.0000
  C   C2553     1.0  0.67104  0.29735  0.81673  1.0000
  C   C2554     1.0  0.87979  0.28291  0.73610  1.0000
  C   C2555     1.0  0.71211  0.07629  0.77605  1.0000
  C   C2556     1.0  0.66104  0.31504  0.80374  1.0000
  C   C2557     1.0  0.72169  0.05006  0.82228  1.0000
  H   H2030     1.0  0.84356  0.30983  0.90339  1.0000
  H   H2031     1.0  0.56579  0.23445  0.73631  1.0000
  H   H2032     1.0  0.73244  0.05852  0.81008  1.0000
  H   H2033     1.0  0.90401  0.30898  0.93104  1.0000
  C   C2558     1.0  0.83888  0.26926  0.88907  1.0000
  H   H2034     1.0  0.92921  0.23254  0.97420  1.0000
  C   C2559     1.0  0.63241  0.05959  0.96988  1.0000
  H   H2035     1.0  0.70704  0.09508  0.79921  1.0000
  H   H2036     1.0  0.61170  0.17946  0.92800  1.0000
  H   H2037     1.0  0.74194  0.04276  0.84450  1.0000
  H   H2038     1.0  0.68324  0.05909  0.88011  1.0000
  H   H2039     1.0  0.53174  0.04245  0.88041  1.0000
  H   H2040     1.0  0.76271  0.17882  0.75303  1.0000
  C   C2560     1.0  0.82241  0.26062  0.86508  1.0000
  H   H2041     1.0  0.94022  0.19726  0.96564  1.0000
  C   C2561     1.0  0.77710  0.00683  0.77303  1.0000
  C   C2562     1.0  0.63718  0.16968  0.82120  1.0000
  H   H2042     1.0  0.88876  0.30843  0.96860  1.0000
  C   C2563     1.0  0.86474  0.20479  0.92934  1.0000
  H   H2043     1.0  0.67834  0.19849  0.80111  1.0000
  C   C2564     1.0  0.53417  0.02019  0.93339  1.0000
  H   H2044     1.0  0.64165  0.15556  0.83263  1.0000
  H   H2045     1.0  0.68316  0.09151  0.89069  1.0000
  S   S347      1.0  0.64713  0.99792  0.82683  1.0000
  H   H2046     1.0  0.88917  0.17755  0.92411  1.0000
  H   H2047     1.0  0.88091  0.09348  0.78316  1.0000
  C   C2565     1.0  0.72499  0.20754  0.79674  1.0000
  H   H2048     1.0  0.87340  0.23706  0.77148  1.0000
  H   H2049     1.0  0.85449  0.19576  0.94164  1.0000
  C   C2566     1.0  0.71428  0.09326  0.78326  1.0000
  C   C2567     1.0  0.72554  0.10830  0.76981  1.0000
  C   C2568     1.0  0.80083  0.27959  0.89168  1.0000
  C   C2569     1.0  0.83882  0.31488  0.80762  1.0000
  C   C2570     1.0  0.68086  0.20391  0.78427  1.0000
  H   H2050     1.0  0.62551  0.22314  0.81418  1.0000
  H   H2051     1.0  0.70000  0.14241  0.74910  1.0000
  C   C2571     1.0  0.73638  0.21858  0.77862  1.0000
  H   H2052     1.0  0.63454  0.19061  0.84127  1.0000
  H   H2053     1.0  0.52265  0.02273  0.74544  1.0000
  C   C2572     1.0  0.52404  0.01250  0.88297  1.0000
  C   C2573     1.0  0.67109  0.22439  0.77548  1.0000
  C   C2574     1.0  0.50683  0.00492  0.96005  1.0000
  C   C2575     1.0  0.50908  0.00597  0.77597  1.0000
  S   S348      1.0  0.55015  0.99802  0.88025  1.0000
  H   H2054     1.0  0.71229  0.31108  0.82722  1.0000
  C   C2576     1.0  0.84806  0.30109  0.91809  1.0000
  C   C2577     1.0  0.54591  0.99999  0.93184  1.0000
  C   C2578     1.0  0.93483  0.27290  0.97373  1.0000
  C   C2579     1.0  0.79004  0.00890  0.75288  1.0000
  S   S349      1.0  0.66223  0.25714  0.74261  1.0000
  H   H2055     1.0  0.63371  0.11518  0.95754  1.0000
  H   H2056     1.0  0.50635  0.03851  0.94893  1.0000
  C   C2580     1.0  0.91256  0.29872  0.94287  1.0000
  C   C2581     1.0  0.51490  0.02268  0.94767  1.0000
  H   H2057     1.0  0.78866  0.27098  0.86918  1.0000
  H   H2058     1.0  0.81054  0.31484  0.85751  1.0000
  H   H2059     1.0  0.73174  0.32069  0.79085  1.0000
  H   H2060     1.0  0.57451  0.07985  0.96823  1.0000
  H   H2061     1.0  0.49924  0.01365  0.83882  1.0000
  C   C2582     1.0  0.84523  0.31174  0.93411  1.0000
  C   C2583     1.0  0.90404  0.29859  0.96410  1.0000
  C   C2584     1.0  0.91517  0.28599  0.97949  1.0000
  C   C2585     1.0  0.68721  0.15255  0.74193  1.0000
  C   C2586     1.0  0.98758  0.31528  0.90041  1.0000
  C   C2587     1.0  0.93211  0.28579  0.93697  1.0000
  H   H2062     1.0  0.84773  0.17216  0.75807  1.0000
  C   C2588     1.0  0.83297  0.20488  0.74890  1.0000
  H   H2063     1.0  0.87636  0.22538  0.73916  1.0000
  H   H2064     1.0  0.70688  0.18741  0.73917  1.0000
  C   C2589     1.0  0.60504  0.08699  0.98355  1.0000
  H   H2065     1.0  0.84969  0.30941  0.96515  1.0000
  H   H2066     1.0  0.78402  0.06253  0.74028  1.0000
  H   H2067     1.0  0.74498  0.24836  0.76240  1.0000
  C   C2590     1.0  0.98420  0.27304  0.97536  1.0000
  H   H2068     1.0  0.77514  0.99131  0.78234  1.0000
  C   C2591     1.0  0.73527  0.10624  0.74928  1.0000
  H   H2069     1.0  0.81607  0.23587  0.73695  1.0000
  C   C2592     1.0  0.73359  0.08922  0.74207  1.0000
  H   H2070     1.0  0.58311  0.19977  0.75462  1.0000
  C   C2593     1.0  0.57463  0.03065  0.98169  1.0000
  C   C2594     1.0  0.78220  0.04686  0.74918  1.0000
  C   C2595     1.0  0.82259  0.31808  0.84357  1.0000
  H   H2071     1.0  0.85302  0.06282  0.74450  1.0000
  C   C2596     1.0  0.62508  0.22436  0.73812  1.0000
  H   H2072     1.0  0.79781  0.99482  0.74689  1.0000
  H   H2073     1.0  0.97368  0.17363  0.97374  1.0000
  H   H2074     1.0  0.82063  0.05311  0.74370  1.0000
  C   C2597     1.0  0.68682  0.21794  0.74061  1.0000
  C   C2598     1.0  0.87789  0.24135  0.73793  1.0000
  C   C2599     1.0  0.59224  0.21193  0.74714  1.0000
  H   H2075     1.0  0.68682  0.31718  0.74037  1.0000
  H   H2076     1.0  0.94766  0.31815  0.97862  1.0000
  C   C2600     1.0  0.60286  0.13377  0.75882  1.0000
  C   C2601     1.0  0.61435  0.14980  0.75372  1.0000
  H   H2077     1.0  0.95949  0.31862  0.92475  1.0000
  H   H2078     1.0  0.55727  0.99762  0.74330  1.0000
  C   C2602     1.0  0.96568  0.31985  0.90806  1.0000
  H   H2079     1.0  0.64163  0.22187  0.73863  1.0000
  H   H2080     1.0  0.62590  0.15152  0.73910  1.0000
  C   C2603     1.0  0.92734  0.41792  0.01122  1.0000
  Fe  Fe178     1.0  0.92198  0.53818  0.08030  1.0000
  S   S350      1.0  0.95531  0.53236  0.06154  1.0000
  S   S351      1.0  0.90293  0.57057  0.08342  1.0000
  Fe  Fe179     1.0  0.91706  0.49284  0.08724  1.0000
  S   S352      1.0  0.94975  0.48347  0.06910  1.0000
  S   S353      1.0  0.89402  0.47093  0.09854  1.0000
  Fe  Fe180     1.0  0.95913  0.50258  0.08645  1.0000
  C   C2604     1.0  0.83014  0.43781  0.06952  1.0000
  Fe  Fe181     1.0  0.94276  0.51379  0.04611  1.0000
  S   S354      1.0  0.95298  0.51226  0.01207  1.0000
  S   S355      1.0  0.92675  0.50971  0.10666  1.0000
  S   S356      1.0  0.90931  0.52186  0.06282  1.0000
  C   C2605     1.0  0.91387  0.47970  0.03104  1.0000
  C   C2606     1.0  0.79979  0.53226  0.01072  1.0000
  H   H2081     1.0  0.91334  0.57659  0.01160  1.0000
  Fe  Fe182     1.0  0.88443  0.62360  0.17527  1.0000
  S   S357      1.0  0.84995  0.62309  0.18215  1.0000
  S   S358      1.0  0.90983  0.59730  0.16403  1.0000
  C   C2607     1.0  0.87747  0.49344  0.02709  1.0000
  C   C2608     1.0  0.98277  0.32351  0.00442  1.0000
  H   H2082     1.0  0.85314  0.47265  0.07965  1.0000
  H   H2083     1.0  0.84244  0.43834  0.09582  1.0000
  H   H2084     1.0  0.88407  0.53716  0.17772  1.0000
  H   H2085     1.0  0.87274  0.56099  0.14490  1.0000
  P   P88       1.0  0.83878  0.55906  0.18282  1.0000
  H   H2086     1.0  0.85974  0.53175  0.99866  1.0000
  C   C2609     1.0  0.90444  0.57774  0.10612  1.0000
  C   C2610     1.0  0.89057  0.59560  0.11235  1.0000
  C   C2611     1.0  0.89176  0.60151  0.13043  1.0000
  C   C2612     1.0  0.90703  0.58970  0.14211  1.0000
  C   C2613     1.0  0.92070  0.57173  0.13598  1.0000
  C   C2614     1.0  0.91936  0.56569  0.11808  1.0000
  H   H2087     1.0  0.87897  0.60493  0.10317  1.0000
  H   H2088     1.0  0.88117  0.61541  0.13512  1.0000
  H   H2089     1.0  0.93251  0.56257  0.14500  1.0000
  H   H2090     1.0  0.93015  0.55193  0.11335  1.0000
  H   H2091     1.0  0.87091  0.58403  0.22740  1.0000
  H   H2092     1.0  0.92475  0.44102  0.15167  1.0000
  C   C2615     1.0  0.89647  0.35083  0.98970  1.0000
  H   H2093     1.0  0.94932  0.57885  0.07492  1.0000
  H   H2094     1.0  0.78870  0.62663  0.19062  1.0000
  C   C2616     1.0  0.78528  0.33742  0.19152  1.0000
  H   H2095     1.0  0.88261  0.59460  0.03434  1.0000
  C   C2617     1.0  0.71042  0.33717  0.16671  1.0000
  H   H2096     1.0  0.83411  0.36469  0.00848  1.0000
  H   H2097     1.0  0.85784  0.36836  0.02950  1.0000
  C   C2618     1.0  0.92821  0.40556  0.08658  1.0000
  C   C2619     1.0  0.93895  0.41857  0.09107  1.0000
  C   C2620     1.0  0.92844  0.43852  0.09493  1.0000
  C   C2621     1.0  0.90701  0.44556  0.09442  1.0000
  C   C2622     1.0  0.89607  0.43235  0.09038  1.0000
  C   C2623     1.0  0.90668  0.41239  0.08629  1.0000
  H   H2098     1.0  0.95545  0.41304  0.09163  1.0000
  H   H2099     1.0  0.93683  0.44820  0.09884  1.0000
  H   H2100     1.0  0.87951  0.43764  0.09018  1.0000
  H   H2101     1.0  0.89826  0.40230  0.08296  1.0000
  H   H2102     1.0  0.97772  0.44770  0.04711  1.0000
  C   C2624     1.0  0.85699  0.57259  0.20830  1.0000
  H   H2103     1.0  0.79362  0.56024  0.18846  1.0000
  C   C2625     1.0  0.89275  0.48738  0.03955  1.0000
  C   C2626     1.0  0.86265  0.52009  0.13099  1.0000
  Fe  Fe183     1.0  0.84894  0.63088  0.21276  1.0000
  C   C2627     1.0  0.96477  0.58180  0.07406  1.0000
  C   C2628     1.0  0.85622  0.37941  0.01469  1.0000
  C   C2629     1.0  0.98837  0.59177  0.08969  1.0000
  C   C2630     1.0  0.89467  0.43038  0.99823  1.0000
  H   H2104     1.0  0.87202  0.49507  0.99640  1.0000
  S   S359      1.0  0.98825  0.48531  0.09897  1.0000
  H   H2105     1.0  0.76774  0.54452  0.21797  1.0000
  C   C2631     1.0  0.78415  0.54141  0.21916  1.0000
  C   C2632     1.0  0.84775  0.54408  0.16226  1.0000
  C   C2633     1.0  0.82006  0.54674  0.20408  1.0000
  H   H2106     1.0  0.83350  0.43990  0.99665  1.0000
  C   C2634     1.0  0.81227  0.51907  0.02477  1.0000
  H   H2107     1.0  0.80605  0.47230  0.99412  1.0000
  H   H2108     1.0  0.66645  0.64009  0.19898  1.0000
  C   C2635     1.0  0.88396  0.59866  0.01740  1.0000
  C   C2636     1.0  0.83415  0.51820  0.02029  1.0000
  H   H2109     1.0  0.98813  0.61378  0.02057  1.0000
  H   H2110     1.0  0.80484  0.50967  0.03919  1.0000
  S   S360      1.0  0.89928  0.37155  0.05338  1.0000
  H   H2111     1.0  0.88836  0.48843  0.05591  1.0000
  H   H2112     1.0  0.81173  0.32432  0.20687  1.0000
  C   C2637     1.0  0.86834  0.61392  0.00841  1.0000
  C   C2638     1.0  0.98762  0.61424  0.98874  1.0000
  H   H2113     1.0  0.92562  0.47524  0.04070  1.0000
  C   C2639     1.0  0.71427  0.33406  0.22775  1.0000
  H   H2114     1.0  0.98450  0.37719  0.09821  1.0000
  C   C2640     1.0  0.95663  0.44483  0.13713  1.0000
  C   C2641     1.0  0.83931  0.44681  0.08046  1.0000
  Fe  Fe184     1.0  0.92730  0.36217  0.06878  1.0000
  C   C2642     1.0  0.80901  0.54490  0.99226  1.0000
  C   C2643     1.0  0.91429  0.53550  0.00477  1.0000
  H   H2115     1.0  0.98106  0.37024  0.00346  1.0000
  C   C2644     1.0  0.98044  0.41467  0.12447  1.0000
  H   H2116     1.0  0.84278  0.53034  0.22385  1.0000
  C   C2645     1.0  0.96421  0.40313  0.13259  1.0000
  C   C2646     1.0  0.67135  0.65290  0.18645  1.0000
  C   C2647     1.0  0.93378  0.52374  0.99669  1.0000
  C   C2648     1.0  0.84771  0.51803  0.05710  1.0000
  C   C2649     1.0  0.89388  0.56209  0.21062  1.0000
  C   C2650     1.0  0.87210  0.53665  0.13012  1.0000
  H   H2117     1.0  0.82223  0.50551  0.08017  1.0000
  C   C2651     1.0  0.97672  0.55882  0.00138  1.0000
  H   H2118     1.0  0.81946  0.52817  0.10459  1.0000
  C   C2652     1.0  0.88080  0.54763  0.18836  1.0000
  C   C2653     1.0  0.72409  0.34579  0.12914  1.0000
  C   C2654     1.0  0.86821  0.39515  0.00704  1.0000
  Fe  Fe185     1.0  0.89389  0.33867  0.06969  1.0000
  C   C2655     1.0  0.82646  0.53361  0.22233  1.0000
  C   C2656     1.0  0.67512  0.65131  0.16550  1.0000
  C   C2657     1.0  0.94040  0.43349  0.14461  1.0000
  C   C2658     1.0  0.91988  0.47796  0.01003  1.0000
  C   C2659     1.0  0.70734  0.34741  0.14642  1.0000
  H   H2119     1.0  0.82618  0.42239  0.07640  1.0000
  H   H2120     1.0  0.97791  0.57375  0.04406  1.0000
  H   H2121     1.0  0.75731  0.34663  0.17860  1.0000
  C   C2660     1.0  0.85832  0.54634  0.06549  1.0000
  H   H2122     1.0  0.86844  0.55772  0.06153  1.0000
  P   P89       1.0  0.85006  0.50177  0.03886  1.0000
  C   C2661     1.0  0.76621  0.33446  0.18902  1.0000
  C   C2662     1.0  0.94425  0.41259  0.14252  1.0000
  H   H2123     1.0  0.95372  0.46114  0.13845  1.0000
  C   C2663     1.0  0.91611  0.42051  0.99559  1.0000
  H   H2124     1.0  0.94371  0.40975  0.00923  1.0000
  C   C2664     1.0  0.84375  0.54437  0.08459  1.0000
  C   C2665     1.0  0.84560  0.51560  0.14731  1.0000
  C   C2666     1.0  0.83813  0.52753  0.16286  1.0000
  C   C2667     1.0  0.82580  0.58596  0.17312  1.0000
  C   C2668     1.0  0.83140  0.59627  0.15199  1.0000
  C   C2669     1.0  0.82158  0.61720  0.14493  1.0000
  C   C2670     1.0  0.80600  0.62799  0.15879  1.0000
  C   C2671     1.0  0.80032  0.61795  0.17980  1.0000
  C   C2672     1.0  0.81031  0.59713  0.18700  1.0000
  H   H2125     1.0  0.83839  0.50264  0.14801  1.0000
  H   H2126     1.0  0.86868  0.51066  0.11907  1.0000
  H   H2127     1.0  0.82508  0.52353  0.17543  1.0000
  H   H2128     1.0  0.79103  0.35167  0.18293  1.0000
  H   H2129     1.0  0.84364  0.58858  0.14094  1.0000
  H   H2130     1.0  0.82647  0.62533  0.12882  1.0000
  C   C2673     1.0  0.84282  0.37736  0.00288  1.0000
  C   C2674     1.0  0.73045  0.32545  0.16990  1.0000
  H   H2131     1.0  0.80631  0.58998  0.20352  1.0000
  C   C2675     1.0  0.83261  0.51660  0.07602  1.0000
  H   H2132     1.0  0.77404  0.60040  0.22920  1.0000
  C   C2676     1.0  0.87362  0.57369  0.21666  1.0000
  S   S361      1.0  0.92039  0.33066  0.08712  1.0000
  C   C2677     1.0  0.84312  0.53143  0.00206  1.0000
  H   H2133     1.0  0.82989  0.47587  0.02474  1.0000
  C   C2678     1.0  0.88355  0.49114  0.00614  1.0000
  H   H2134     1.0  0.87174  0.53487  0.03707  1.0000
  H   H2135     1.0  0.93635  0.47245  0.00336  1.0000
  H   H2136     1.0  0.97780  0.43780  0.08494  1.0000
  C   C2679     1.0  0.90137  0.58858  0.00454  1.0000
  C   C2680     1.0  0.91726  0.42513  0.02965  1.0000
  C   C2681     1.0  0.89589  0.43495  0.03244  1.0000
  C   C2682     1.0  0.88463  0.43756  0.01680  1.0000
  H   H2137     1.0  0.91324  0.54023  0.19166  1.0000
  H   H2138     1.0  0.95588  0.59020  0.10430  1.0000
  H   H2139     1.0  0.91109  0.53815  0.02043  1.0000
  C   C2683     1.0  0.83204  0.46817  0.04052  1.0000
  H   H2140     1.0  0.80231  0.63428  0.21847  1.0000
  C   C2684     1.0  0.82656  0.44846  0.04952  1.0000
  H   H2141     1.0  0.75697  0.33269  0.11872  1.0000
  C   C2685     1.0  0.84092  0.47750  0.05155  1.0000
  H   H2142     1.0  0.79882  0.64439  0.15338  1.0000
  H   H2143     1.0  0.69174  0.35592  0.14402  1.0000
  H   H2144     1.0  0.72149  0.35297  0.11336  1.0000
  C   C2686     1.0  0.98436  0.37937  0.03046  1.0000
  S   S362      1.0  0.94909  0.34914  0.04200  1.0000
  C   C2687     1.0  0.90472  0.48370  0.99757  1.0000
  H   H2145     1.0  0.67312  0.63730  0.16177  1.0000
  S   S363      1.0  0.94249  0.38098  0.08150  1.0000
  H   H2146     1.0  0.93156  0.40391  0.14798  1.0000
  H   H2147     1.0  0.72880  0.33942  0.22537  1.0000
  H   H2148     1.0  0.92593  0.42287  0.04187  1.0000
  H   H2149     1.0  0.88807  0.44041  0.04680  1.0000
  H   H2150     1.0  0.86805  0.44480  0.01934  1.0000
  C   C2688     1.0  0.86026  0.53326  0.05175  1.0000
  H   H2151     1.0  0.84150  0.58196  0.21305  1.0000
  C   C2689     1.0  0.83808  0.45472  0.98829  1.0000
  S   S364      1.0  0.92731  0.36901  0.99317  1.0000
  H   H2152     1.0  0.96652  0.38711  0.13091  1.0000
  Fe  Fe186     1.0  0.92079  0.35552  0.02800  1.0000
  H   H2153     1.0  0.78294  0.53280  0.01421  1.0000
  S   S365      1.0  0.88389  0.62897  0.20687  1.0000
  C   C2690     1.0  0.84508  0.46640  0.07136  1.0000
  H   H2154     1.0  0.85483  0.62174  0.01841  1.0000
  C   C2691     1.0  0.86052  0.55995  0.19367  1.0000
  C   C2692     1.0  0.79883  0.55035  0.20251  1.0000
  H   H2155     1.0  0.87890  0.39598  0.01623  1.0000
  C   C2693     1.0  0.74409  0.33438  0.13217  1.0000
  H   H2156     1.0  0.98702  0.52969  0.09722  1.0000
  C   C2694     1.0  0.96845  0.58818  0.09064  1.0000
  H   H2157     1.0  0.96899  0.38984  0.03216  1.0000
  H   H2158     1.0  0.76395  0.64950  0.22781  1.0000
  H   H2159     1.0  0.84259  0.55428  0.09535  1.0000
  H   H2160     1.0  0.81992  0.44123  0.04083  1.0000
  C   C2695     1.0  0.83082  0.52959  0.08982  1.0000
  C   C2696     1.0  0.79432  0.63273  0.23476  1.0000
  H   H2161     1.0  0.89344  0.34605  0.00663  1.0000
  H   H2162     1.0  0.98894  0.44443  0.12141  1.0000
  C   C2697     1.0  0.89743  0.54893  0.19662  1.0000
  H   H2163     1.0  0.90693  0.56370  0.21638  1.0000
  H   H2164     1.0  0.69699  0.33812  0.17966  1.0000
  H   H2165     1.0  0.88535  0.54010  0.11752  1.0000
  C   C2698     1.0  0.86476  0.54858  0.14563  1.0000
  H   H2166     1.0  0.88385  0.55316  0.99874  1.0000
  H   H2167     1.0  0.98271  0.32372  0.06297  1.0000
  C   C2699     1.0  0.97658  0.43538  0.12729  1.0000
  S   S366      1.0  0.86166  0.33296  0.08818  1.0000
  H   H2168     1.0  0.97429  0.56571  0.01475  1.0000
  C   C2700     1.0  0.98100  0.57900  0.05654  1.0000
  S   S367      1.0  0.91335  0.32347  0.04303  1.0000
  C   C2701     1.0  0.74734  0.32447  0.15245  1.0000
  H   H2169     1.0  0.97440  0.62756  0.98785  1.0000
  C   C2702     1.0  0.89891  0.54401  0.99246  1.0000
  H   H2170     1.0  0.95013  0.58014  0.98986  1.0000
  C   C2703     1.0  0.83067  0.54448  0.98797  1.0000
  C   C2704     1.0  0.96308  0.56698  0.98730  1.0000
  C   C2705     1.0  0.87020  0.61920  0.98656  1.0000
  C   C2706     1.0  0.82239  0.47316  0.98708  1.0000
  H   H2171     1.0  0.87053  0.33911  0.98683  1.0000
  C   C2707     1.0  0.86650  0.40935  0.98771  1.0000
  H   H2172     1.0  0.54075  0.44613  0.46355  1.0000
  Fe  Fe187     1.0  0.57196  0.56584  0.39445  1.0000
  S   S368      1.0  0.60264  0.54376  0.38650  1.0000
  S   S369      1.0  0.56164  0.57635  0.42525  1.0000
  Fe  Fe188     1.0  0.55805  0.56566  0.35519  1.0000
  S   S370      1.0  0.58766  0.54328  0.34405  1.0000
  S   S371      1.0  0.53394  0.57918  0.33479  1.0000
  Fe  Fe189     1.0  0.58353  0.52578  0.37774  1.0000
  S   S372      1.0  0.58801  0.49070  0.39114  1.0000
  Fe  Fe190     1.0  0.60419  0.56318  0.35370  1.0000
  S   S373      1.0  0.63394  0.57221  0.33208  1.0000
  S   S374      1.0  0.55245  0.54657  0.38807  1.0000
  S   S375      1.0  0.57490  0.58711  0.36229  1.0000
  Fe  Fe191     1.0  0.57374  0.35970  0.36374  1.0000
  S   S376      1.0  0.58176  0.37715  0.33036  1.0000
  S   S377      1.0  0.54274  0.34963  0.37958  1.0000
  Fe  Fe192     1.0  0.61556  0.36045  0.37306  1.0000
  S   S378      1.0  0.62711  0.37774  0.34031  1.0000
  S   S379      1.0  0.63614  0.35387  0.39665  1.0000
  Fe  Fe193     1.0  0.59445  0.39758  0.34357  1.0000
  S   S380      1.0  0.58951  0.43269  0.33044  1.0000
  Fe  Fe194     1.0  0.61371  0.35562  0.33020  1.0000
  S   S381      1.0  0.63055  0.34320  0.30096  1.0000
  S   S382      1.0  0.58369  0.38198  0.37716  1.0000
  S   S383      1.0  0.60476  0.33643  0.36283  1.0000
  C   C2708     1.0  0.77380  0.62954  0.27708  1.0000
  C   C2709     1.0  0.79531  0.62021  0.27172  1.0000
  H   H2173     1.0  0.76607  0.62859  0.29340  1.0000
  H   H2174     1.0  0.80409  0.61223  0.28398  1.0000
  H   H2175     1.0  0.68151  0.57778  0.47023  1.0000
  C   C2710     1.0  0.62102  0.35087  0.42229  1.0000
  H   H2176     1.0  0.90730  0.62894  0.26477  1.0000
  H   H2177     1.0  0.58145  0.64786  0.42990  1.0000
  P   P90       1.0  0.50448  0.47185  0.31768  1.0000
  C   C2711     1.0  0.60204  0.34392  0.42690  1.0000
  C   C2712     1.0  0.68395  0.61930  0.47830  1.0000
  H   H2178     1.0  0.55199  0.47617  0.24719  1.0000
  C   C2713     1.0  0.67925  0.61404  0.25081  1.0000
  H   H2179     1.0  0.64236  0.36127  0.43453  1.0000
  H   H2180     1.0  0.57510  0.33646  0.45084  1.0000
  H   H2181     1.0  0.62562  0.51266  0.46435  1.0000
  H   H2182     1.0  0.52432  0.37332  0.48028  1.0000
  H   H2183     1.0  0.57323  0.32414  0.32133  1.0000
  H   H2184     1.0  0.69088  0.58068  0.25881  1.0000
  C   C2714     1.0  0.52823  0.46404  0.29902  1.0000
  C   C2715     1.0  0.58887  0.47464  0.37408  1.0000
  C   C2716     1.0  0.58905  0.48310  0.35273  1.0000
  C   C2717     1.0  0.58942  0.47004  0.33944  1.0000
  C   C2718     1.0  0.59002  0.44840  0.34735  1.0000
  C   C2719     1.0  0.59011  0.43987  0.36868  1.0000
  C   C2720     1.0  0.58931  0.45303  0.38205  1.0000
  H   H2185     1.0  0.58877  0.49971  0.34644  1.0000
  H   H2186     1.0  0.58929  0.47672  0.32297  1.0000
  H   H2187     1.0  0.59046  0.42324  0.37497  1.0000
  H   H2188     1.0  0.58884  0.44649  0.39860  1.0000
  C   C2721     1.0  0.49500  0.48525  0.35543  1.0000
  C   C2722     1.0  0.64090  0.58793  0.36285  1.0000
  H   H2189     1.0  0.62886  0.57996  0.37357  1.0000
  C   C2723     1.0  0.61185  0.56161  0.46470  1.0000
  C   C2724     1.0  0.61803  0.56183  0.44314  1.0000
  C   C2725     1.0  0.60277  0.56607  0.43089  1.0000
  C   C2726     1.0  0.58126  0.57032  0.44014  1.0000
  C   C2727     1.0  0.57516  0.57041  0.46159  1.0000
  C   C2728     1.0  0.66536  0.61816  0.47299  1.0000
  H   H2190     1.0  0.63465  0.55892  0.43589  1.0000
  H   H2191     1.0  0.60769  0.56658  0.41423  1.0000
  C   C2729     1.0  0.67959  0.63387  0.25348  1.0000
  C   C2730     1.0  0.62763  0.35594  0.43810  1.0000
  C   C2731     1.0  0.52758  0.35757  0.34311  1.0000
  C   C2732     1.0  0.52317  0.35328  0.36511  1.0000
  C   C2733     1.0  0.51061  0.48143  0.33760  1.0000
  H   H2192     1.0  0.54339  0.35891  0.33445  1.0000
  H   H2193     1.0  0.51960  0.48784  0.27197  1.0000
  H   H2194     1.0  0.71899  0.57776  0.37174  1.0000
  H   H2195     1.0  0.74067  0.59650  0.30516  1.0000
  C   C2734     1.0  0.64607  0.58697  0.34161  1.0000
  H   H2196     1.0  0.50734  0.60366  0.46959  1.0000
  C   C2735     1.0  0.72418  0.53286  0.28271  1.0000
  H   H2197     1.0  0.57323  0.42950  0.47764  1.0000
  H   H2198     1.0  0.54233  0.48497  0.32067  1.0000
  C   C2736     1.0  0.53988  0.43614  0.36807  1.0000
  C   C2737     1.0  0.69703  0.34069  0.24311  1.0000
  C   C2738     1.0  0.49088  0.35819  0.34347  1.0000
  C   C2739     1.0  0.74591  0.57376  0.27352  1.0000
  H   H2199     1.0  0.64866  0.44533  0.47190  1.0000
  C   C2740     1.0  0.71875  0.57516  0.31480  1.0000
  C   C2741     1.0  0.53819  0.36796  0.44928  1.0000
  C   C2742     1.0  0.67800  0.33413  0.24641  1.0000
  C   C2743     1.0  0.63407  0.63682  0.29911  1.0000
  C   C2744     1.0  0.78372  0.56230  0.27233  1.0000
  H   H2200     1.0  0.54738  0.44516  0.35348  1.0000
  C   C2745     1.0  0.70672  0.56355  0.33224  1.0000
  C   C2746     1.0  0.69114  0.63540  0.26731  1.0000
  H   H2201     1.0  0.68412  0.61656  0.32448  1.0000
  C   C2747     1.0  0.51824  0.50042  0.36658  1.0000
  H   H2202     1.0  0.69706  0.55598  0.36596  1.0000
  H   H2203     1.0  0.66537  0.59702  0.31134  1.0000
  C   C2748     1.0  0.67271  0.59158  0.42030  1.0000
  C   C2749     1.0  0.73126  0.58732  0.31826  1.0000
  C   C2750     1.0  0.50268  0.35139  0.37614  1.0000
  H   H2204     1.0  0.64764  0.59945  0.38674  1.0000
  H   H2205     1.0  0.61076  0.61730  0.31180  1.0000
  C   C2751     1.0  0.50243  0.42931  0.44887  1.0000
  S   S384      1.0  0.68199  0.62131  0.36625  1.0000
  H   H2206     1.0  0.61943  0.35965  0.47027  1.0000
  C   C2752     1.0  0.68112  0.57644  0.45471  1.0000
  C   C2753     1.0  0.52168  0.41230  0.40597  1.0000
  C   C2754     1.0  0.52245  0.36755  0.46747  1.0000
  H   H2207     1.0  0.56094  0.53195  0.44021  1.0000
  H   H2208     1.0  0.52121  0.50790  0.37761  1.0000
  C   C2755     1.0  0.62497  0.61482  0.44582  1.0000
  C   C2756     1.0  0.49232  0.59617  0.33633  1.0000
  C   C2757     1.0  0.77986  0.61276  0.34578  1.0000
  P   P91       1.0  0.66493  0.62013  0.44587  1.0000
  C   C2758     1.0  0.59718  0.64273  0.43324  1.0000
  C   C2759     1.0  0.54960  0.46791  0.26353  1.0000
  C   C2760     1.0  0.51290  0.55877  0.44039  1.0000
  C   C2761     1.0  0.53681  0.47732  0.42161  1.0000
  C   C2762     1.0  0.53377  0.49688  0.34882  1.0000
  H   H2209     1.0  0.74085  0.53286  0.27724  1.0000
  C   C2763     1.0  0.53128  0.47458  0.27775  1.0000
  H   H2210     1.0  0.49777  0.60729  0.32228  1.0000
  H   H2211     1.0  0.54107  0.45751  0.38616  1.0000
  H   H2212     1.0  0.59991  0.40175  0.46192  1.0000
  C   C2764     1.0  0.68700  0.55639  0.44995  1.0000
  P   P92       1.0  0.82215  0.64886  0.30870  1.0000
  C   C2765     1.0  0.56856  0.51608  0.44664  1.0000
  H   H2213     1.0  0.76341  0.61561  0.35366  1.0000
  H   H2214     1.0  0.57916  0.44544  0.25943  1.0000
  H   H2215     1.0  0.63811  0.64819  0.36665  1.0000
  C   C2766     1.0  0.59306  0.33294  0.26876  1.0000
  C   C2767     1.0  0.73161  0.58789  0.33874  1.0000
  C   C2768     1.0  0.53322  0.49917  0.41936  1.0000
  C   C2769     1.0  0.51762  0.35377  0.43378  1.0000
  H   H2216     1.0  0.59459  0.61008  0.44503  1.0000
  Fe  Fe195     1.0  0.69705  0.64646  0.34205  1.0000
  H   H2217     1.0  0.79675  0.55290  0.27962  1.0000
  C   C2770     1.0  0.66151  0.59751  0.32780  1.0000
  H   H2218     1.0  0.63209  0.48343  0.39633  1.0000
  C   C2771     1.0  0.56179  0.43985  0.29137  1.0000
  C   C2772     1.0  0.78898  0.62976  0.33341  1.0000
  C   C2773     1.0  0.56488  0.45058  0.27035  1.0000
  H   H2219     1.0  0.65253  0.40281  0.41326  1.0000
  H   H2220     1.0  0.55297  0.46848  0.41974  1.0000
  H   H2221     1.0  0.59217  0.63607  0.34012  1.0000
  C   C2774     1.0  0.52539  0.40536  0.38734  1.0000
  C   C2775     1.0  0.49909  0.47927  0.42788  1.0000
  C   C2776     1.0  0.59037  0.56587  0.47394  1.0000
  C   C2777     1.0  0.66739  0.60913  0.35649  1.0000
  H   H2222     1.0  0.69761  0.61924  0.40613  1.0000
  C   C2778     1.0  0.67196  0.60880  0.33516  1.0000
  P   P93       1.0  0.52455  0.43877  0.43023  1.0000
  C   C2779     1.0  0.71935  0.57658  0.35593  1.0000
  H   H2223     1.0  0.77931  0.64553  0.33198  1.0000
  C   C2780     1.0  0.79200  0.59226  0.34823  1.0000
  C   C2781     1.0  0.81342  0.58881  0.33866  1.0000
  C   C2782     1.0  0.82270  0.60584  0.32659  1.0000
  H   H2224     1.0  0.60813  0.62807  0.37378  1.0000
  H   H2225     1.0  0.73749  0.59822  0.24680  1.0000
  C   C2783     1.0  0.62710  0.42855  0.42059  1.0000
  C   C2784     1.0  0.63826  0.62929  0.44128  1.0000
  C   C2785     1.0  0.77269  0.64136  0.24010  1.0000
  C   C2786     1.0  0.51264  0.51112  0.42116  1.0000
  H   H2226     1.0  0.56234  0.40712  0.41743  1.0000
  H   H2227     1.0  0.78488  0.57911  0.35776  1.0000
  H   H2228     1.0  0.82295  0.57297  0.34077  1.0000
  H   H2229     1.0  0.83943  0.60279  0.31997  1.0000
  C   C2787     1.0  0.53582  0.36104  0.43242  1.0000
  H   H2230     1.0  0.54797  0.36160  0.41815  1.0000
  C   C2788     1.0  0.67909  0.57166  0.41537  1.0000
  C   C2789     1.0  0.68611  0.55400  0.43025  1.0000
  C   C2790     1.0  0.58612  0.33654  0.28914  1.0000
  C   C2791     1.0  0.75015  0.58769  0.25396  1.0000
  H   H2231     1.0  0.69055  0.53845  0.42668  1.0000
  C   C2792     1.0  0.55232  0.43403  0.45652  1.0000
  H   H2232     1.0  0.52151  0.39056  0.38764  1.0000
  C   C2793     1.0  0.54878  0.42749  0.43980  1.0000
  C   C2794     1.0  0.65165  0.59889  0.37030  1.0000
  H   H2233     1.0  0.59445  0.39121  0.43140  1.0000
  C   C2795     1.0  0.68114  0.53195  0.29688  1.0000
  C   C2796     1.0  0.63573  0.45493  0.43387  1.0000
  C   C2797     1.0  0.67409  0.59424  0.43977  1.0000
  P   P94       1.0  0.62871  0.48039  0.44102  1.0000
  H   H2234     1.0  0.51480  0.36349  0.31529  1.0000
  H   H2235     1.0  0.84377  0.61901  0.28128  1.0000
  C   C2798     1.0  0.70696  0.56437  0.35268  1.0000
  C   C2799     1.0  0.89142  0.63176  0.27411  1.0000
  H   H2236     1.0  0.59934  0.52057  0.42921  1.0000
  C   C2800     1.0  0.53474  0.41713  0.36841  1.0000
  H   H2237     1.0  0.53826  0.41132  0.35411  1.0000
  C   C2801     1.0  0.56431  0.41221  0.43061  1.0000
  H   H2238     1.0  0.53035  0.62905  0.46295  1.0000
  H   H2239     1.0  0.57368  0.42645  0.29673  1.0000
  H   H2240     1.0  0.88026  0.61146  0.26131  1.0000
  H   H2241     1.0  0.58689  0.60647  0.40257  1.0000
  C   C2802     1.0  0.63918  0.49565  0.39775  1.0000
  H   H2242     1.0  0.53980  0.50747  0.46652  1.0000
  H   H2243     1.0  0.69831  0.35098  0.25246  1.0000
  C   C2803     1.0  0.63820  0.47944  0.46420  1.0000
  C   C2804     1.0  0.81045  0.62645  0.32356  1.0000
  C   C2805     1.0  0.51142  0.36001  0.33229  1.0000
  H   H2244     1.0  0.51507  0.40258  0.42056  1.0000
  H   H2245     1.0  0.66876  0.45018  0.43473  1.0000
  C   C2806     1.0  0.69539  0.51430  0.29084  1.0000
  C   C2807     1.0  0.57069  0.42474  0.46449  1.0000
  C   C2808     1.0  0.59551  0.34844  0.46273  1.0000
  C   C2809     1.0  0.60456  0.62149  0.44175  1.0000
  S   S385      1.0  0.83309  0.61294  0.24393  1.0000
  H   H2246     1.0  0.61584  0.42297  0.41555  1.0000
  C   C2810     1.0  0.54358  0.44656  0.30565  1.0000
  C   C2811     1.0  0.64792  0.41729  0.41906  1.0000
  C   C2812     1.0  0.53617  0.44318  0.38668  1.0000
  C   C2813     1.0  0.51562  0.55758  0.46055  1.0000
  C   C2814     1.0  0.52694  0.43133  0.40578  1.0000
  C   C2815     1.0  0.64159  0.65352  0.30135  1.0000
  C   C2816     1.0  0.68143  0.63837  0.42927  1.0000
  H   H2247     1.0  0.66079  0.53694  0.36641  1.0000
  C   C2817     1.0  0.62093  0.44727  0.42800  1.0000
  C   C2818     1.0  0.59038  0.50950  0.44021  1.0000
  C   C2819     1.0  0.60044  0.48888  0.44819  1.0000
  H   H2248     1.0  0.55860  0.57402  0.46862  1.0000
  H   H2249     1.0  0.65094  0.32266  0.48004  1.0000
  C   C2820     1.0  0.87622  0.62193  0.27215  1.0000
  C   C2821     1.0  0.49978  0.56597  0.36445  1.0000
  H   H2250     1.0  0.64906  0.51751  0.43350  1.0000
  H   H2251     1.0  0.59701  0.33977  0.41479  1.0000
  H   H2252     1.0  0.55223  0.37361  0.44834  1.0000
  C   C2822     1.0  0.66283  0.42502  0.42442  1.0000
  H   H2253     1.0  0.68975  0.50024  0.29177  1.0000
  H   H2254     1.0  0.69199  0.65077  0.26893  1.0000
  C   C2823     1.0  0.64749  0.46016  0.47598  1.0000
  H   H2255     1.0  0.64624  0.50734  0.36422  1.0000
  C   C2824     1.0  0.58848  0.47518  0.46316  1.0000
  C   C2825     1.0  0.63453  0.49790  0.47182  1.0000
  H   H2256     1.0  0.66170  0.54194  0.40127  1.0000
  C   C2826     1.0  0.65686  0.44395  0.43143  1.0000
  H   H2257     1.0  0.67041  0.61280  0.23999  1.0000
  C   C2827     1.0  0.85548  0.62633  0.28346  1.0000
  H   H2258     1.0  0.59611  0.45938  0.46982  1.0000
  C   C2828     1.0  0.76289  0.56092  0.28253  1.0000
  C   C2829     1.0  0.60622  0.64086  0.32974  1.0000
  P   P95       1.0  0.71906  0.57400  0.28819  1.0000
  H   H2259     1.0  0.63356  0.61240  0.48552  1.0000
  C   C2830     1.0  0.58265  0.40305  0.43856  1.0000
  C   C2831     1.0  0.50697  0.58045  0.34629  1.0000
  C   C2832     1.0  0.78776  0.57643  0.25304  1.0000
  C   C2833     1.0  0.61469  0.35506  0.45828  1.0000
  H   H2260     1.0  0.60485  0.45609  0.42831  1.0000
  H   H2261     1.0  0.71143  0.61893  0.28887  1.0000
  H   H2262     1.0  0.55079  0.62229  0.41943  1.0000
  H   H2263     1.0  0.74109  0.59744  0.34128  1.0000
  C   C2834     1.0  0.64728  0.50919  0.37938  1.0000
  C   C2835     1.0  0.65549  0.52585  0.38063  1.0000
  C   C2836     1.0  0.65592  0.52870  0.40028  1.0000
  C   C2837     1.0  0.64832  0.51485  0.41869  1.0000
  C   C2838     1.0  0.63976  0.49818  0.41762  1.0000
  H   H2264     1.0  0.51103  0.55359  0.37203  1.0000
  C   C2839     1.0  0.50345  0.42055  0.47007  1.0000
  H   H2265     1.0  0.54654  0.50672  0.41608  1.0000
  H   H2266     1.0  0.66445  0.53165  0.30257  1.0000
  C   C2840     1.0  0.68835  0.55005  0.29580  1.0000
  C   C2841     1.0  0.58959  0.34221  0.44724  1.0000
  C   C2842     1.0  0.51976  0.46714  0.42620  1.0000
  H   H2267     1.0  0.51727  0.41959  0.47597  1.0000
  C   C2843     1.0  0.50444  0.35983  0.46905  1.0000
  C   C2844     1.0  0.58576  0.40910  0.45563  1.0000
  H   H2268     1.0  0.51574  0.34939  0.42021  1.0000
  H   H2269     1.0  0.69668  0.55423  0.33035  1.0000
  C   C2845     1.0  0.70221  0.61720  0.27866  1.0000
  C   C2846     1.0  0.53006  0.48737  0.33439  1.0000
  H   H2270     1.0  0.59982  0.34471  0.25618  1.0000
  H   H2271     1.0  0.67702  0.56350  0.30073  1.0000
  H   H2272     1.0  0.54863  0.50176  0.34615  1.0000
  H   H2273     1.0  0.67110  0.64809  0.24475  1.0000
  C   C2847     1.0  0.56015  0.63207  0.40691  1.0000
  C   C2848     1.0  0.51786  0.60137  0.48015  1.0000
  C   C2849     1.0  0.56670  0.48185  0.46976  1.0000
  C   C2850     1.0  0.63055  0.65068  0.43307  1.0000
  H   H2274     1.0  0.54158  0.43811  0.32188  1.0000
  C   C2851     1.0  0.71688  0.51476  0.28372  1.0000
  H   H2275     1.0  0.67829  0.57005  0.40007  1.0000
  C   C2852     1.0  0.58044  0.62308  0.39738  1.0000
  C   C2853     1.0  0.59242  0.63539  0.38093  1.0000
  H   H2276     1.0  0.66660  0.60504  0.40897  1.0000
  C   C2854     1.0  0.70995  0.55063  0.28883  1.0000
  C   C2855     1.0  0.50208  0.35245  0.45239  1.0000
  H   H2277     1.0  0.69179  0.54266  0.46177  1.0000
  H   H2278     1.0  0.75997  0.55039  0.29779  1.0000
  H   H2279     1.0  0.66466  0.33936  0.25829  1.0000
  C   C2856     1.0  0.84964  0.64090  0.29657  1.0000
  C   C2857     1.0  0.76254  0.64035  0.26122  1.0000
  C   C2858     1.0  0.70203  0.59719  0.27609  1.0000
  C   C2859     1.0  0.88596  0.64572  0.28765  1.0000
  C   C2860     1.0  0.55669  0.50228  0.46141  1.0000
  C   C2861     1.0  0.49849  0.56465  0.47584  1.0000
  C   C2862     1.0  0.86520  0.65020  0.29894  1.0000
  H   H2280     1.0  0.64202  0.62859  0.28654  1.0000
  C   C2863     1.0  0.53085  0.61588  0.47636  1.0000
  C   C2864     1.0  0.69585  0.63378  0.41098  1.0000
  H   H2281     1.0  0.81790  0.64137  0.35461  1.0000
  H   H2282     1.0  0.63048  0.59829  0.45232  1.0000
  H   H2283     1.0  0.51882  0.32988  0.24913  1.0000
  C   C2865     1.0  0.61644  0.63046  0.31335  1.0000
  S   S386      1.0  0.73176  0.64356  0.32872  1.0000
  H   H2284     1.0  0.69792  0.62164  0.46624  1.0000
  H   H2285     1.0  0.50990  0.52809  0.41899  1.0000
  H   H2286     1.0  0.53130  0.55178  0.46389  1.0000
  C   C2866     1.0  0.80571  0.62241  0.25054  1.0000
  H   H2287     1.0  0.49913  0.34820  0.39308  1.0000
  C   C2867     1.0  0.69069  0.59578  0.26180  1.0000
  H   H2288     1.0  0.67910  0.41653  0.42274  1.0000
  H   H2289     1.0  0.52637  0.55380  0.42860  1.0000
  S   S387      1.0  0.73581  0.65280  0.26704  1.0000
  H   H2290     1.0  0.58747  0.35110  0.29231  1.0000
  H   H2291     1.0  0.72789  0.50102  0.27909  1.0000
  S   S388      1.0  0.63120  0.55701  0.47955  1.0000
  H   H2292     1.0  0.82880  0.65223  0.26229  1.0000
  H   H2293     1.0  0.71933  0.64463  0.38429  1.0000
  H   H2294     1.0  0.49820  0.33015  0.30768  1.0000
  H   H2295     1.0  0.49062  0.44564  0.29785  1.0000
  H   H2296     1.0  0.81678  0.51464  0.25301  1.0000
  C   C2868     1.0  0.49560  0.50117  0.42542  1.0000
  C   C2869     1.0  0.49302  0.56689  0.43525  1.0000
  C   C2870     1.0  0.70835  0.64816  0.39848  1.0000
  H   H2297     1.0  0.89754  0.65388  0.28871  1.0000
  H   H2298     1.0  0.50770  0.51581  0.30000  1.0000
  C   C2871     1.0  0.77099  0.58897  0.24382  1.0000
  C   C2872     1.0  0.49890  0.49451  0.36995  1.0000
  H   H2299     1.0  0.55766  0.47122  0.48153  1.0000
  C   C2873     1.0  0.49297  0.44857  0.32835  1.0000
  H   H2300     1.0  0.77920  0.52174  0.25031  1.0000
  H   H2301     1.0  0.80386  0.57809  0.24552  1.0000
  H   H2302     1.0  0.49523  0.44489  0.36078  1.0000
  C   C2874     1.0  0.49307  0.51378  0.29745  1.0000
  H   H2303     1.0  0.49097  0.56792  0.41954  1.0000
  H   H2304     1.0  0.49229  0.35976  0.48316  1.0000
  C   C2875     1.0  0.55205  0.65360  0.40031  1.0000
  C   C2876     1.0  0.49045  0.43883  0.34983  1.0000
  C   C2877     1.0  0.79059  0.52858  0.23737  1.0000
  C   C2878     1.0  0.81175  0.52461  0.23891  1.0000
  Fe  Fe196     1.0  0.61469  0.51841  0.55421  1.0000
  S   S389      1.0  0.64191  0.53342  0.53501  1.0000
  S   S390      1.0  0.61866  0.48313  0.56659  1.0000
  Fe  Fe197     1.0  0.58372  0.56000  0.55221  1.0000
  S   S391      1.0  0.60788  0.57853  0.53194  1.0000
  S   S392      1.0  0.54997  0.57634  0.56092  1.0000
  Fe  Fe198     1.0  0.61899  0.55233  0.51456  1.0000
  Fe  Fe199     1.0  0.62874  0.55843  0.55417  1.0000
  S   S393      1.0  0.64974  0.57565  0.56206  1.0000
  S   S394      1.0  0.59249  0.53581  0.53250  1.0000
  S   S395      1.0  0.60368  0.54145  0.57563  1.0000
  S   S396      1.0  0.56337  0.39041  0.52017  1.0000
  S   S397      1.0  0.61484  0.37357  0.51070  1.0000
  Fe  Fe200     1.0  0.59164  0.40000  0.52387  1.0000
  S   S398      1.0  0.59483  0.43380  0.51084  1.0000
  C   C2879     1.0  0.81767  0.61794  0.64617  1.0000
  C   C2880     1.0  0.50178  0.43309  0.57319  1.0000
  C   C2881     1.0  0.49198  0.37516  0.56747  1.0000
  C   C2882     1.0  0.55173  0.38563  0.64462  1.0000
  C   C2883     1.0  0.53986  0.49757  0.52583  1.0000
  H   H2305     1.0  0.78209  0.60520  0.69154  1.0000
  Fe  Fe201     1.0  0.65047  0.62055  0.65732  1.0000
  P   P96       1.0  0.50285  0.56453  0.50132  1.0000
  S   S399      1.0  0.63788  0.59409  0.65267  1.0000
  Fe  Fe202     1.0  0.66762  0.63360  0.68890  1.0000
  H   H2306     1.0  0.77376  0.58463  0.66924  1.0000
  H   H2307     1.0  0.66793  0.61095  0.53157  1.0000
  C   C2884     1.0  0.54012  0.45510  0.59603  1.0000
  H   H2308     1.0  0.79989  0.33036  0.72286  1.0000
  H   H2309     1.0  0.65697  0.47797  0.51477  1.0000
  S   S400      1.0  0.63486  0.63292  0.68665  1.0000
  S   S401      1.0  0.68336  0.61847  0.66133  1.0000
  S   S402      1.0  0.57827  0.34827  0.48723  1.0000
  H   H2310     1.0  0.60966  0.35291  0.59102  1.0000
  C   C2885     1.0  0.58381  0.62089  0.64122  1.0000
  C   C2886     1.0  0.50617  0.58512  0.62561  1.0000
  H   H2311     1.0  0.52839  0.33523  0.65505  1.0000
  C   C2887     1.0  0.49724  0.60716  0.65105  1.0000
  C   C2888     1.0  0.76271  0.59052  0.65881  1.0000
  C   C2889     1.0  0.57083  0.46758  0.59676  1.0000
  C   C2890     1.0  0.74492  0.61880  0.63462  1.0000
  H   H2312     1.0  0.58550  0.56597  0.49051  1.0000
  C   C2891     1.0  0.73539  0.64491  0.67647  1.0000
  P   P97       1.0  0.52568  0.43429  0.60153  1.0000
  C   C2892     1.0  0.58907  0.63718  0.64685  1.0000
  C   C2893     1.0  0.61091  0.46965  0.55160  1.0000
  C   C2894     1.0  0.60626  0.47984  0.53189  1.0000
  C   C2895     1.0  0.60100  0.46875  0.51971  1.0000
  C   C2896     1.0  0.60023  0.44736  0.52720  1.0000
  C   C2897     1.0  0.60439  0.43719  0.54715  1.0000
  C   C2898     1.0  0.60982  0.44830  0.55928  1.0000
  H   H2313     1.0  0.60752  0.49606  0.52555  1.0000
  H   H2314     1.0  0.59804  0.47668  0.50422  1.0000
  H   H2315     1.0  0.60391  0.42070  0.55307  1.0000
  H   H2316     1.0  0.61320  0.44037  0.57460  1.0000
  C   C2899     1.0  0.64118  0.58935  0.62732  1.0000
  C   C2900     1.0  0.63220  0.57354  0.62504  1.0000
  C   C2901     1.0  0.63453  0.56930  0.60512  1.0000
  C   C2902     1.0  0.64603  0.58074  0.58732  1.0000
  C   C2903     1.0  0.65504  0.59653  0.58959  1.0000
  C   C2904     1.0  0.65251  0.60093  0.60949  1.0000
  H   H2317     1.0  0.62354  0.56445  0.63878  1.0000
  H   H2318     1.0  0.62773  0.55698  0.60355  1.0000
  H   H2319     1.0  0.66404  0.60540  0.57592  1.0000
  H   H2320     1.0  0.65952  0.61312  0.61105  1.0000
  C   C2905     1.0  0.52129  0.36298  0.54087  1.0000
  C   C2906     1.0  0.65204  0.47838  0.50054  1.0000
  H   H2321     1.0  0.53803  0.35774  0.53533  1.0000
  C   C2907     1.0  0.63792  0.32970  0.58411  1.0000
  H   H2322     1.0  0.49103  0.60562  0.58627  1.0000
  P   P98       1.0  0.77361  0.62999  0.65087  1.0000
  H   H2323     1.0  0.84968  0.59198  0.68093  1.0000
  C   C2908     1.0  0.53401  0.55829  0.57562  1.0000
  C   C2909     1.0  0.54030  0.54279  0.59258  1.0000
  C   C2910     1.0  0.52699  0.52891  0.60467  1.0000
  C   C2911     1.0  0.54127  0.40530  0.63488  1.0000
  H   H2324     1.0  0.75301  0.56073  0.66586  1.0000
  H   H2325     1.0  0.55523  0.54169  0.59660  1.0000
  C   C2912     1.0  0.76684  0.65177  0.68248  1.0000
  S   S403      1.0  0.58422  0.34260  0.54289  1.0000
  H   H2326     1.0  0.59482  0.60585  0.64199  1.0000
  C   C2913     1.0  0.77915  0.64819  0.62601  1.0000
  H   H2327     1.0  0.71750  0.35902  0.68835  1.0000
  C   C2914     1.0  0.83531  0.59853  0.67489  1.0000
  H   H2328     1.0  0.54805  0.54411  0.49309  1.0000
  C   C2915     1.0  0.64190  0.49743  0.48957  1.0000
  H   H2329     1.0  0.57220  0.49969  0.58032  1.0000
  H   H2330     1.0  0.51374  0.43516  0.52053  1.0000
  C   C2916     1.0  0.68479  0.61694  0.49933  1.0000
  H   H2331     1.0  0.56203  0.64572  0.69416  1.0000
  H   H2332     1.0  0.81433  0.64414  0.69057  1.0000
  H   H2333     1.0  0.53848  0.64803  0.62456  1.0000
  H   H2334     1.0  0.59835  0.52115  0.66039  1.0000
  C   C2917     1.0  0.73339  0.60510  0.63258  1.0000
  C   C2918     1.0  0.53267  0.60197  0.62949  1.0000
  C   C2919     1.0  0.64779  0.61420  0.48906  1.0000
  H   H2335     1.0  0.51953  0.35635  0.62101  1.0000
  C   C2920     1.0  0.50710  0.36313  0.52884  1.0000
  C   C2921     1.0  0.50691  0.52334  0.52606  1.0000
  C   C2922     1.0  0.55056  0.51261  0.51158  1.0000
  C   C2923     1.0  0.50180  0.54524  0.58210  1.0000
  C   C2924     1.0  0.59233  0.61077  0.58880  1.0000
  C   C2925     1.0  0.53265  0.58139  0.51054  1.0000
  C   C2926     1.0  0.74317  0.60198  0.73172  1.0000
  C   C2927     1.0  0.56093  0.36973  0.63327  1.0000
  C   C2928     1.0  0.53242  0.47504  0.58430  1.0000
  C   C2929     1.0  0.71362  0.35279  0.70514  1.0000
  S   S404      1.0  0.58936  0.38344  0.55775  1.0000
  C   C2930     1.0  0.55946  0.45143  0.60217  1.0000
  H   H2336     1.0  0.58587  0.46473  0.60133  1.0000
  C   C2931     1.0  0.53854  0.43504  0.55868  1.0000
  C   C2932     1.0  0.72184  0.35924  0.71890  1.0000
  H   H2337     1.0  0.55265  0.38268  0.66100  1.0000
  H   H2338     1.0  0.63539  0.60847  0.52256  1.0000
  H   H2339     1.0  0.60977  0.34541  0.62913  1.0000
  Fe  Fe203     1.0  0.61071  0.35623  0.54458  1.0000
  H   H2340     1.0  0.59462  0.62692  0.53612  1.0000
  H   H2341     1.0  0.56906  0.35450  0.64077  1.0000
  C   C2933     1.0  0.51901  0.58374  0.49700  1.0000
  C   C2934     1.0  0.59008  0.54224  0.63215  1.0000
  C   C2935     1.0  0.58108  0.56281  0.62298  1.0000
  C   C2936     1.0  0.55758  0.61726  0.58097  1.0000
  H   H2342     1.0  0.56672  0.36130  0.60326  1.0000
  C   C2937     1.0  0.56321  0.48729  0.58480  1.0000
  H   H2343     1.0  0.59639  0.53037  0.62274  1.0000
  C   C2938     1.0  0.51740  0.53845  0.51139  1.0000
  C   C2939     1.0  0.58788  0.62271  0.55273  1.0000
  C   C2940     1.0  0.54408  0.49097  0.57848  1.0000
  H   H2344     1.0  0.50966  0.57165  0.55754  1.0000
  H   H2345     1.0  0.73177  0.37085  0.71258  1.0000
  C   C2941     1.0  0.56508  0.62434  0.63392  1.0000
  C   C2942     1.0  0.79715  0.60593  0.68072  1.0000
  H   H2346     1.0  0.60367  0.63437  0.65229  1.0000
  H   H2347     1.0  0.55622  0.62719  0.54814  1.0000
  C   C2943     1.0  0.49778  0.33766  0.62101  1.0000
  C   C2944     1.0  0.58284  0.55227  0.66560  1.0000
  C   C2945     1.0  0.83628  0.60893  0.65381  1.0000
  H   H2348     1.0  0.78361  0.65138  0.67818  1.0000
  C   C2946     1.0  0.50108  0.43942  0.62003  1.0000
  H   H2349     1.0  0.51737  0.47828  0.57966  1.0000
  H   H2350     1.0  0.54895  0.39616  0.58598  1.0000
  S   S405      1.0  0.53182  0.36857  0.57510  1.0000
  H   H2351     1.0  0.55664  0.59359  0.51677  1.0000
  S   S406      1.0  0.63901  0.33526  0.55694  1.0000
  C   C2947     1.0  0.73631  0.58416  0.64380  1.0000
  C   C2948     1.0  0.56624  0.62296  0.55952  1.0000
  H   H2352     1.0  0.71312  0.59971  0.69867  1.0000
  H   H2353     1.0  0.74977  0.58748  0.70519  1.0000
  C   C2949     1.0  0.65455  0.45970  0.49393  1.0000
  Fe  Fe204     1.0  0.56304  0.37129  0.55292  1.0000
  H   H2354     1.0  0.51301  0.35785  0.51425  1.0000
  Fe  Fe205     1.0  0.58622  0.36229  0.51028  1.0000
  H   H2355     1.0  0.54851  0.48181  0.53135  1.0000
  C   C2950     1.0  0.81572  0.59702  0.68833  1.0000
  H   H2356     1.0  0.54078  0.61779  0.58578  1.0000
  C   C2951     1.0  0.50785  0.52989  0.59928  1.0000
  H   H2357     1.0  0.71333  0.33361  0.63414  1.0000
  H   H2358     1.0  0.81877  0.62649  0.63000  1.0000
  H   H2359     1.0  0.72174  0.61100  0.62269  1.0000
  H   H2360     1.0  0.74190  0.63517  0.62634  1.0000
  H   H2361     1.0  0.68157  0.32793  0.62575  1.0000
  H   H2362     1.0  0.72746  0.63897  0.66787  1.0000
  H   H2363     1.0  0.53180  0.51701  0.61790  1.0000
  C   C2952     1.0  0.75730  0.64369  0.67097  1.0000
  C   C2953     1.0  0.65390  0.39831  0.52175  1.0000
  C   C2954     1.0  0.66411  0.37837  0.51778  1.0000
  C   C2955     1.0  0.67596  0.36402  0.53178  1.0000
  C   C2956     1.0  0.67743  0.36945  0.54991  1.0000
  C   C2957     1.0  0.66718  0.38943  0.55400  1.0000
  C   C2958     1.0  0.65564  0.40390  0.53966  1.0000
  P   P99       1.0  0.66856  0.39713  0.57717  1.0000
  C   C2959     1.0  0.64269  0.40150  0.59379  1.0000
  C   C2960     1.0  0.68410  0.37655  0.59373  1.0000
  C   C2961     1.0  0.67694  0.35765  0.60351  1.0000
  C   C2962     1.0  0.68752  0.34224  0.61792  1.0000
  C   C2963     1.0  0.70536  0.34550  0.62269  1.0000
  C   C2964     1.0  0.71258  0.36427  0.61310  1.0000
  C   C2965     1.0  0.70190  0.37985  0.59882  1.0000
  C   C2966     1.0  0.63981  0.40971  0.61165  1.0000
  C   C2967     1.0  0.62010  0.41214  0.62534  1.0000
  C   C2968     1.0  0.60324  0.40617  0.62141  1.0000
  C   C2969     1.0  0.60605  0.39789  0.60372  1.0000
  C   C2970     1.0  0.62574  0.39529  0.59008  1.0000
  C   C2971     1.0  0.67916  0.42090  0.56731  1.0000
  C   C2972     1.0  0.69970  0.41998  0.55499  1.0000
  C   C2973     1.0  0.70774  0.43842  0.54618  1.0000
  C   C2974     1.0  0.69520  0.45796  0.54929  1.0000
  C   C2975     1.0  0.67458  0.45906  0.56108  1.0000
  C   C2976     1.0  0.66651  0.44066  0.56995  1.0000
  H   H2364     1.0  0.64427  0.40929  0.51118  1.0000
  S   S407      1.0  0.64799  0.65285  0.63648  1.0000
  C   C2977     1.0  0.51378  0.36900  0.56018  1.0000
  H   H2365     1.0  0.68628  0.35789  0.56073  1.0000
  H   H2366     1.0  0.64771  0.41943  0.54251  1.0000
  H   H2367     1.0  0.66286  0.35499  0.60035  1.0000
  C   C2978     1.0  0.51785  0.61086  0.64537  1.0000
  H   H2368     1.0  0.53814  0.58109  0.60817  1.0000
  H   H2369     1.0  0.72621  0.36690  0.61712  1.0000
  H   H2370     1.0  0.70731  0.39455  0.59230  1.0000
  H   H2371     1.0  0.65286  0.41408  0.61504  1.0000
  H   H2372     1.0  0.61797  0.41848  0.63910  1.0000
  H   H2373     1.0  0.58806  0.40782  0.63215  1.0000
  H   H2374     1.0  0.59307  0.39330  0.60057  1.0000
  H   H2375     1.0  0.62765  0.38823  0.57685  1.0000
  H   H2376     1.0  0.70939  0.40499  0.55206  1.0000
  H   H2377     1.0  0.72363  0.43761  0.53677  1.0000
  H   H2378     1.0  0.70131  0.47230  0.54238  1.0000
  H   H2379     1.0  0.66465  0.47426  0.56314  1.0000
  H   H2380     1.0  0.65024  0.44213  0.57839  1.0000
  C   C2979     1.0  0.52164  0.43367  0.57616  1.0000
  C   C2980     1.0  0.62189  0.33646  0.61896  1.0000
  C   C2981     1.0  0.51594  0.43481  0.53598  1.0000
  H   H2381     1.0  0.49168  0.41075  0.62035  1.0000
  C   C2982     1.0  0.55225  0.64466  0.63141  1.0000
  H   H2382     1.0  0.61773  0.61621  0.56219  1.0000
  H   H2383     1.0  0.56695  0.58432  0.66627  1.0000
  C   C2983     1.0  0.55972  0.37356  0.61217  1.0000
  C   C2984     1.0  0.59111  0.53701  0.65340  1.0000
  H   H2384     1.0  0.54873  0.43694  0.52533  1.0000
  S   S408      1.0  0.49198  0.51169  0.61426  1.0000
  C   C2985     1.0  0.75984  0.61158  0.64757  1.0000
  C   C2986     1.0  0.52673  0.58885  0.61985  1.0000
  H   H2385     1.0  0.51658  0.60843  0.55242  1.0000
  C   C2987     1.0  0.51220  0.34298  0.62944  1.0000
  C   C2988     1.0  0.78474  0.64095  0.60719  1.0000
  C   C2989     1.0  0.60090  0.61663  0.56738  1.0000
  C   C2990     1.0  0.51462  0.55971  0.57061  1.0000
  C   C2991     1.0  0.54956  0.39334  0.60235  1.0000
  H   H2386     1.0  0.81594  0.63555  0.72812  1.0000
  H   H2387     1.0  0.58023  0.56661  0.60653  1.0000
  H   H2388     1.0  0.66141  0.44479  0.50308  1.0000
  C   C2992     1.0  0.49143  0.59430  0.64119  1.0000
  H   H2389     1.0  0.60263  0.60626  0.59996  1.0000
  C   C2993     1.0  0.71712  0.60360  0.71153  1.0000
  C   C2994     1.0  0.51803  0.50294  0.53301  1.0000
  H   H2390     1.0  0.66248  0.37384  0.50411  1.0000
  H   H2391     1.0  0.68327  0.34832  0.52905  1.0000
  C   C2995     1.0  0.75096  0.57688  0.65692  1.0000
  C   C2996     1.0  0.49553  0.63276  0.53548  1.0000
  H   H2392     1.0  0.56751  0.50853  0.50607  1.0000
  C   C2997     1.0  0.79793  0.61650  0.65961  1.0000
  H   H2393     1.0  0.53399  0.41742  0.64390  1.0000
  H   H2394     1.0  0.50185  0.57465  0.61834  1.0000
  C   C2998     1.0  0.62187  0.34081  0.59739  1.0000
  C   C2999     1.0  0.66718  0.61324  0.51520  1.0000
  H   H2395     1.0  0.53814  0.50628  0.56928  1.0000
  H   H2396     1.0  0.58365  0.54823  0.68208  1.0000
  H   H2397     1.0  0.81477  0.58944  0.70483  1.0000
  H   H2398     1.0  0.72696  0.57373  0.64254  1.0000
  H   H2399     1.0  0.50623  0.46818  0.62485  1.0000
  C   C3000     1.0  0.64873  0.61188  0.51007  1.0000
  H   H2400     1.0  0.76174  0.34384  0.72507  1.0000
  H   H2401     1.0  0.56593  0.43615  0.61084  1.0000
  H   H2402     1.0  0.52228  0.62010  0.65383  1.0000
  C   C3001     1.0  0.57360  0.57278  0.65653  1.0000
  C   C3002     1.0  0.53564  0.43574  0.53870  1.0000
  C   C3003     1.0  0.54004  0.40923  0.61366  1.0000
  H   H2403     1.0  0.78641  0.62439  0.60754  1.0000
  C   C3004     1.0  0.51719  0.33107  0.64857  1.0000
  C   C3005     1.0  0.53940  0.53287  0.50427  1.0000
  H   H2404     1.0  0.69480  0.33249  0.70222  1.0000
  C   C3006     1.0  0.57307  0.57829  0.63503  1.0000
  H   H2405     1.0  0.50955  0.49128  0.54385  1.0000
  C   C3007     1.0  0.57065  0.61085  0.59575  1.0000
  H   H2406     1.0  0.69919  0.61763  0.50340  1.0000
  H   H2407     1.0  0.79140  0.64960  0.57334  1.0000
  H   H2408     1.0  0.53370  0.56806  0.52379  1.0000
  H   H2409     1.0  0.85144  0.61048  0.64350  1.0000
  H   H2410     1.0  0.50683  0.63367  0.52064  1.0000
  C   C3008     1.0  0.73787  0.59679  0.71516  1.0000
  H   H2411     1.0  0.55399  0.43574  0.56042  1.0000
  S   S409      1.0  0.67524  0.62378  0.72140  1.0000
  P   P100      1.0  0.55999  0.60430  0.62360  1.0000
  C   C3009     1.0  0.70159  0.61529  0.72475  1.0000
  C   C3010     1.0  0.50100  0.61841  0.55341  1.0000
  C   C3011     1.0  0.54486  0.61306  0.48952  1.0000
  C   C3012     1.0  0.54563  0.59592  0.50667  1.0000
  H   H2412     1.0  0.68988  0.43121  0.72966  1.0000
  H   H2413     1.0  0.63905  0.51176  0.49528  1.0000
  C   C3013     1.0  0.49903  0.43350  0.55321  1.0000
  C   C3014     1.0  0.70071  0.33791  0.71295  1.0000
  H   H2414     1.0  0.54846  0.32242  0.59802  1.0000
  H   H2415     1.0  0.49432  0.34694  0.60605  1.0000
  Fe  Fe206     1.0  0.67967  0.65206  0.64259  1.0000
  C   C3015     1.0  0.49572  0.45724  0.62889  1.0000
  H   H2416     1.0  0.55529  0.62399  0.48634  1.0000
  C   C3016     1.0  0.72347  0.65324  0.69380  1.0000
  C   C3017     1.0  0.81527  0.65165  0.71929  1.0000
  H   H2417     1.0  0.57114  0.64256  0.72816  1.0000
  C   C3018     1.0  0.69616  0.32932  0.73451  1.0000
  H   H2418     1.0  0.49010  0.52707  0.53208  1.0000
  H   H2419     1.0  0.70664  0.65365  0.69820  1.0000
  H   H2420     1.0  0.71611  0.44934  0.73363  1.0000
  C   C3019     1.0  0.78764  0.65517  0.58778  1.0000
  Fe  Fe207     1.0  0.87859  0.39028  0.86723  1.0000
  S   S410      1.0  0.90279  0.37327  0.88683  1.0000
  S   S411      1.0  0.87670  0.42471  0.85214  1.0000
  C   C3020     1.0  0.96956  0.41643  0.82295  1.0000
  S   S412      1.0  0.88666  0.36669  0.84682  1.0000
  Fe  Fe208     1.0  0.89335  0.53731  0.92809  1.0000
  S   S413      1.0  0.91707  0.54860  0.89970  1.0000
  Fe  Fe209     1.0  0.88465  0.50525  0.90888  1.0000
  S   S414      1.0  0.90739  0.51378  0.87861  1.0000
  S   S415      1.0  0.86548  0.47999  0.91810  1.0000
  Fe  Fe210     1.0  0.92893  0.51418  0.89912  1.0000
  S   S416      1.0  0.96271  0.49603  0.89356  1.0000
  Fe  Fe211     1.0  0.89352  0.54721  0.88189  1.0000
  S   S417      1.0  0.88497  0.57396  0.85529  1.0000
  S   S418      1.0  0.90713  0.50303  0.92921  1.0000
  S   S419      1.0  0.86882  0.53870  0.91047  1.0000
  H   H2421     1.0  0.95102  0.56459  0.91821  1.0000
  Fe  Fe212     1.0  0.79243  0.59425  0.80142  1.0000
  S   S420      1.0  0.80720  0.60198  0.76709  1.0000
  S   S421      1.0  0.80601  0.56628  0.82470  1.0000
  Fe  Fe213     1.0  0.75411  0.62998  0.79722  1.0000
  C   C3021     1.0  0.86447  0.47527  0.96853  1.0000
  C   C3022     1.0  0.96879  0.41331  0.84457  1.0000
  Fe  Fe214     1.0  0.77437  0.60638  0.76176  1.0000
  S   S422      1.0  0.88531  0.33045  0.89081  1.0000
  H   H2422     1.0  0.73162  0.61745  0.75767  1.0000
  H   H2423     1.0  0.83863  0.32856  0.93169  1.0000
  S   S423      1.0  0.76033  0.59584  0.79584  1.0000
  S   S424      1.0  0.78506  0.62755  0.80559  1.0000
  C   C3023     1.0  0.91179  0.44562  0.94647  1.0000
  H   H2424     1.0  0.69514  0.62961  0.75128  1.0000
  H   H2425     1.0  0.89369  0.60677  0.90475  1.0000
  C   C3024     1.0  0.69602  0.36699  0.79361  1.0000
  Fe  Fe215     1.0  0.90897  0.34843  0.86830  1.0000
  Fe  Fe216     1.0  0.87718  0.35694  0.90774  1.0000
  P   P101      1.0  0.89068  0.61724  0.94517  1.0000
  H   H2426     1.0  0.87005  0.64683  0.91179  1.0000
  H   H2427     1.0  0.97760  0.43112  0.89023  1.0000
  S   S425      1.0  0.86951  0.34929  0.94320  1.0000
  C   C3025     1.0  0.84645  0.59160  0.92021  1.0000
  C   C3026     1.0  0.83727  0.32973  0.84347  1.0000
  S   S426      1.0  0.88343  0.55050  0.95715  1.0000
  C   C3027     1.0  0.83319  0.44741  0.82983  1.0000
  C   C3028     1.0  0.72420  0.38804  0.75025  1.0000
  C   C3029     1.0  0.57515  0.63571  0.78339  1.0000
  H   H2428     1.0  0.93337  0.43577  0.89764  1.0000
  C   C3030     1.0  0.73878  0.39848  0.75278  1.0000
  C   C3031     1.0  0.87909  0.60331  0.91510  1.0000
  C   C3032     1.0  0.88770  0.60915  0.97349  1.0000
  H   H2429     1.0  0.52372  0.61775  0.78577  1.0000
  H   H2430     1.0  0.94812  0.55716  0.76790  1.0000
  C   C3033     1.0  0.86274  0.57209  0.84716  1.0000
  C   C3034     1.0  0.85440  0.55376  0.85472  1.0000
  C   C3035     1.0  0.83702  0.55216  0.84768  1.0000
  C   C3036     1.0  0.82783  0.56885  0.83313  1.0000
  C   C3037     1.0  0.83620  0.58717  0.82550  1.0000
  C   C3038     1.0  0.85365  0.58878  0.83251  1.0000
  H   H2431     1.0  0.86143  0.54072  0.86585  1.0000
  H   H2432     1.0  0.83076  0.53793  0.85351  1.0000
  H   H2433     1.0  0.82929  0.60008  0.81417  1.0000
  H   H2434     1.0  0.86016  0.60292  0.82649  1.0000
  H   H2435     1.0  0.97378  0.46991  0.96254  1.0000
  H   H2436     1.0  0.77701  0.47893  0.83444  1.0000
  C   C3039     1.0  0.67678  0.55291  0.86238  1.0000
  H   H2437     1.0  0.75246  0.38971  0.75930  1.0000
  H   H2438     1.0  0.92402  0.41408  0.98179  1.0000
  S   S427      1.0  0.83571  0.33852  0.86633  1.0000
  C   C3040     1.0  0.76324  0.50583  0.81319  1.0000
  C   C3041     1.0  0.68497  0.36133  0.81427  1.0000
  H   H2439     1.0  0.96249  0.53452  0.90535  1.0000
  C   C3042     1.0  0.87396  0.43971  0.87065  1.0000
  C   C3043     1.0  0.87957  0.45948  0.86392  1.0000
  C   C3044     1.0  0.87758  0.47175  0.87846  1.0000
  C   C3045     1.0  0.86946  0.46443  0.89974  1.0000
  C   C3046     1.0  0.86352  0.44475  0.90644  1.0000
  C   C3047     1.0  0.86615  0.43220  0.89197  1.0000
  H   H2440     1.0  0.88542  0.46525  0.84742  1.0000
  H   H2441     1.0  0.88176  0.48709  0.87312  1.0000
  H   H2442     1.0  0.85708  0.43913  0.92288  1.0000
  H   H2443     1.0  0.86177  0.41691  0.89727  1.0000
  H   H2444     1.0  0.91743  0.57769  0.75244  1.0000
  H   H2445     1.0  0.89331  0.51332  0.79082  1.0000
  H   H2446     1.0  0.79420  0.42083  0.87660  1.0000
  S   S428      1.0  0.85221  0.37624  0.88976  1.0000
  H   H2447     1.0  0.82294  0.47844  0.91159  1.0000
  C   C3048     1.0  0.90988  0.42040  0.92041  1.0000
  H   H2448     1.0  0.79246  0.52680  0.85221  1.0000
  C   C3049     1.0  0.65789  0.64177  0.82658  1.0000
  H   H2449     1.0  0.81600  0.32714  0.75302  1.0000
  C   C3050     1.0  0.87322  0.50731  0.82150  1.0000
  H   H2450     1.0  0.67661  0.54257  0.77728  1.0000
  C   C3051     1.0  0.88359  0.64573  0.93812  1.0000
  C   C3052     1.0  0.66184  0.54341  0.87823  1.0000
  H   H2451     1.0  0.72074  0.64367  0.77588  1.0000
  H   H2452     1.0  0.86401  0.34313  0.82510  1.0000
  H   H2453     1.0  0.83128  0.38925  0.97407  1.0000
  C   C3053     1.0  0.84881  0.49371  0.96754  1.0000
  H   H2454     1.0  0.67189  0.37261  0.82090  1.0000
  C   C3054     1.0  0.75551  0.34851  0.75686  1.0000
  C   C3055     1.0  0.79518  0.52225  0.88412  1.0000
  H   H2455     1.0  0.85037  0.50079  0.84980  1.0000
  C   C3056     1.0  0.93209  0.62222  0.92585  1.0000
  C   C3057     1.0  0.96530  0.56309  0.85415  1.0000
  C   C3058     1.0  0.90320  0.59365  0.98269  1.0000
  C   C3059     1.0  0.85456  0.50089  0.83318  1.0000
  C   C3060     1.0  0.85272  0.40734  0.97611  1.0000
  H   H2456     1.0  0.86529  0.33021  0.79338  1.0000
  C   C3061     1.0  0.95139  0.41760  0.81577  1.0000
  C   C3062     1.0  0.93238  0.41561  0.83012  1.0000
  C   C3063     1.0  0.93158  0.41240  0.85161  1.0000
  C   C3064     1.0  0.94970  0.41105  0.85888  1.0000
  H   H2457     1.0  0.79373  0.33716  0.78574  1.0000
  C   C3065     1.0  0.83418  0.42564  0.83377  1.0000
  H   H2458     1.0  0.73484  0.56476  0.75814  1.0000
  H   H2459     1.0  0.95526  0.56398  0.95941  1.0000
  C   C3066     1.0  0.67470  0.61734  0.79615  1.0000
  C   C3067     1.0  0.86555  0.59590  0.90739  1.0000
  C   C3068     1.0  0.82013  0.41609  0.85059  1.0000
  S   S429      1.0  0.76548  0.64084  0.76248  1.0000
  C   C3069     1.0  0.98257  0.54071  0.96698  1.0000
  C   C3070     1.0  0.98497  0.37050  0.91126  1.0000
  C   C3071     1.0  0.71830  0.43228  0.73836  1.0000
  C   C3072     1.0  0.94578  0.58070  0.92022  1.0000
  H   H2460     1.0  0.95207  0.41972  0.79913  1.0000
  H   H2461     1.0  0.91828  0.41630  0.82468  1.0000
  H   H2462     1.0  0.91687  0.41090  0.86272  1.0000
  H   H2463     1.0  0.94865  0.40808  0.87565  1.0000
  H   H2464     1.0  0.78656  0.53807  0.88541  1.0000
  H   H2465     1.0  0.69470  0.39239  0.74044  1.0000
  C   C3073     1.0  0.85271  0.33406  0.82533  1.0000
  H   H2466     1.0  0.69120  0.38266  0.78450  1.0000
  H   H2467     1.0  0.92920  0.37611  0.94884  1.0000
  C   C3074     1.0  0.91653  0.36782  0.95712  1.0000
  H   H2468     1.0  0.85080  0.41834  0.96137  1.0000
  Fe  Fe217     1.0  0.86221  0.35094  0.87101  1.0000
  H   H2469     1.0  0.93483  0.32972  0.90012  1.0000
  C   C3075     1.0  0.67686  0.60840  0.81704  1.0000
  H   H2470     1.0  0.58970  0.64030  0.78278  1.0000
  C   C3076     1.0  0.97865  0.52763  0.89935  1.0000
  H   H2471     1.0  0.88301  0.51188  0.82933  1.0000
  C   C3077     1.0  0.92360  0.43452  0.91328  1.0000
  C   C3078     1.0  0.79663  0.50242  0.82306  1.0000
  H   H2472     1.0  0.70162  0.32787  0.76481  1.0000
  C   C3079     1.0  0.90300  0.54069  0.97207  1.0000
  H   H2473     1.0  0.84649  0.41600  0.82433  1.0000
  C   C3080     1.0  0.71313  0.35250  0.78498  1.0000
  H   H2474     1.0  0.96783  0.49641  0.78431  1.0000
  H   H2475     1.0  0.66912  0.61403  0.84857  1.0000
  C   C3081     1.0  0.95689  0.54279  0.82669  1.0000
  H   H2476     1.0  0.88049  0.47653  0.96096  1.0000
  C   C3082     1.0  0.81574  0.48870  0.89881  1.0000
  H   H2477     1.0  0.58242  0.60655  0.80569  1.0000
  C   C3083     1.0  0.95959  0.32745  0.87256  1.0000
  C   C3084     1.0  0.80388  0.50876  0.90086  1.0000
  C   C3085     1.0  0.89679  0.41917  0.94041  1.0000
  C   C3086     1.0  0.98305  0.50865  0.89275  1.0000
  H   H2478     1.0  0.97602  0.58913  0.90556  1.0000
  C   C3087     1.0  0.82776  0.49264  0.97665  1.0000
  C   C3088     1.0  0.55254  0.61006  0.79733  1.0000
  C   C3089     1.0  0.78268  0.53406  0.79904  1.0000
  H   H2479     1.0  0.81160  0.52941  0.80925  1.0000
  H   H2480     1.0  0.90910  0.41056  0.91035  1.0000
  C   C3090     1.0  0.89723  0.43213  0.95351  1.0000
  C   C3091     1.0  0.88688  0.35358  0.95652  1.0000
  Fe  Fe218     1.0  0.79702  0.63568  0.77074  1.0000
  C   C3092     1.0  0.87904  0.50797  0.79992  1.0000
  H   H2481     1.0  0.90667  0.36854  0.92893  1.0000
  H   H2482     1.0  0.86990  0.59343  0.89145  1.0000
  H   H2483     1.0  0.64935  0.32684  0.77494  1.0000
  C   C3093     1.0  0.93800  0.52090  0.97606  1.0000
  C   C3094     1.0  0.74628  0.55592  0.84272  1.0000
  C   C3095     1.0  0.75028  0.57249  0.84900  1.0000
  C   C3096     1.0  0.73591  0.59180  0.84776  1.0000
  C   C3097     1.0  0.71752  0.59458  0.84029  1.0000
  C   C3098     1.0  0.71334  0.57803  0.83396  1.0000
  C   C3099     1.0  0.72790  0.55864  0.83526  1.0000
  P   P102      1.0  0.68942  0.58098  0.82469  1.0000
  H   H2484     1.0  0.75535  0.35099  0.78833  1.0000
  C   C3100     1.0  0.69630  0.56900  0.80216  1.0000
  C   C3101     1.0  0.71518  0.57127  0.78743  1.0000
  C   C3102     1.0  0.72029  0.56283  0.76949  1.0000
  C   C3103     1.0  0.70639  0.55254  0.76582  1.0000
  C   C3104     1.0  0.68751  0.55029  0.78033  1.0000
  C   C3105     1.0  0.68248  0.55841  0.79849  1.0000
  C   C3106     1.0  0.69087  0.34120  0.82643  1.0000
  H   H2485     1.0  0.78414  0.54960  0.78933  1.0000
  H   H2486     1.0  0.92607  0.52711  0.94785  1.0000
  C   C3107     1.0  0.81041  0.49564  0.86309  1.0000
  H   H2487     1.0  0.98187  0.45133  0.82331  1.0000
  C   C3108     1.0  0.67042  0.56844  0.84532  1.0000
  C   C3109     1.0  0.53804  0.62280  0.78517  1.0000
  H   H2488     1.0  0.96844  0.57065  0.86502  1.0000
  C   C3110     1.0  0.64046  0.54933  0.87719  1.0000
  C   C3111     1.0  0.63399  0.56479  0.86030  1.0000
  C   C3112     1.0  0.64888  0.57433  0.84443  1.0000
  H   H2489     1.0  0.75770  0.54115  0.84317  1.0000
  H   H2490     1.0  0.76484  0.57062  0.85415  1.0000
  H   H2491     1.0  0.73938  0.60497  0.85180  1.0000
  C   C3113     1.0  0.93236  0.55669  0.77723  1.0000
  H   H2492     1.0  0.72514  0.54569  0.83031  1.0000
  C   C3114     1.0  0.95300  0.61524  0.91608  1.0000
  C   C3115     1.0  0.81797  0.45986  0.84264  1.0000
  C   C3116     1.0  0.97842  0.50736  0.77941  1.0000
  H   H2493     1.0  0.96837  0.41646  0.92838  1.0000
  H   H2494     1.0  0.66766  0.55676  0.80933  1.0000
  C   C3117     1.0  0.79829  0.52252  0.81036  1.0000
  C   C3118     1.0  0.84160  0.49484  0.82342  1.0000
  H   H2495     1.0  0.82602  0.59137  0.95069  1.0000
  C   C3119     1.0  0.97646  0.53670  0.83292  1.0000
  C   C3120     1.0  0.85341  0.32672  0.80742  1.0000
  H   H2496     1.0  0.68109  0.60831  0.78401  1.0000
  H   H2497     1.0  0.62891  0.54197  0.88951  1.0000
  H   H2498     1.0  0.61741  0.56942  0.85951  1.0000
  H   H2499     1.0  0.64362  0.58628  0.83142  1.0000
  C   C3121     1.0  0.94447  0.47612  0.85598  1.0000
  C   C3122     1.0  0.93249  0.46656  0.84860  1.0000
  H   H2500     1.0  0.92694  0.45259  0.85832  1.0000
  C   C3123     1.0  0.93327  0.49412  0.81694  1.0000
  C   C3124     1.0  0.94467  0.50429  0.82459  1.0000
  C   C3125     1.0  0.95062  0.49486  0.84400  1.0000
  P   P103      1.0  0.95146  0.52917  0.80948  1.0000
  H   H2501     1.0  0.90943  0.48251  0.98124  1.0000
  C   C3126     1.0  0.92728  0.47529  0.82889  1.0000
  H   H2502     1.0  0.93369  0.58160  0.85416  1.0000
  H   H2503     1.0  0.74966  0.49937  0.81424  1.0000
  H   H2504     1.0  0.82139  0.39910  0.85395  1.0000
  C   C3127     1.0  0.95985  0.59450  0.91323  1.0000
  H   H2505     1.0  0.83612  0.58568  0.91418  1.0000
  C   C3128     1.0  0.94162  0.55921  0.83432  1.0000
  H   H2506     1.0  0.91314  0.45520  0.95647  1.0000
  C   C3129     1.0  0.70354  0.42206  0.73611  1.0000
  C   C3130     1.0  0.89446  0.56808  0.78006  1.0000
  C   C3131     1.0  0.97446  0.52466  0.78886  1.0000
  C   C3132     1.0  0.92925  0.54479  0.79798  1.0000
  C   C3133     1.0  0.90856  0.54492  0.80974  1.0000
  C   C3134     1.0  0.89127  0.55630  0.80068  1.0000
  H   H2507     1.0  0.84484  0.45416  0.81724  1.0000
  H   H2508     1.0  0.94858  0.46939  0.87127  1.0000
  C   C3135     1.0  0.94579  0.56924  0.84805  1.0000
  H   H2509     1.0  0.98461  0.53394  0.95352  1.0000
  C   C3136     1.0  0.71876  0.33223  0.79723  1.0000
  H   H2510     1.0  0.95953  0.50208  0.85035  1.0000
  H   H2511     1.0  0.53075  0.65166  0.76267  1.0000
  H   H2512     1.0  0.80190  0.51399  0.91524  1.0000
  C   C3137     1.0  0.80487  0.42835  0.86338  1.0000
  C   C3138     1.0  0.66794  0.62067  0.83230  1.0000
  H   H2513     1.0  0.92638  0.56426  0.82993  1.0000
  H   H2514     1.0  0.75322  0.53468  0.79148  1.0000
  H   H2515     1.0  0.91662  0.58527  0.97317  1.0000
  C   C3139     1.0  0.98146  0.32286  0.86494  1.0000
  C   C3140     1.0  0.85928  0.45554  0.97858  1.0000
  H   H2516     1.0  0.90576  0.53649  0.82602  1.0000
  H   H2517     1.0  0.87533  0.55621  0.80973  1.0000
  H   H2518     1.0  0.54948  0.59511  0.80733  1.0000
  C   C3141     1.0  0.84760  0.49547  0.80173  1.0000
  H   H2519     1.0  0.79192  0.45935  0.86961  1.0000
  H   H2520     1.0  0.82908  0.46690  0.87839  1.0000
  H   H2521     1.0  0.93550  0.45785  0.92089  1.0000
  C   C3142     1.0  0.80372  0.45014  0.85940  1.0000
  C   C3143     1.0  0.76482  0.34654  0.77393  1.0000
  C   C3144     1.0  0.90375  0.36359  0.94581  1.0000
  P   P104      1.0  0.81666  0.48799  0.83812  1.0000
  C   C3145     1.0  0.88347  0.34697  0.97846  1.0000
  C   C3146     1.0  0.79844  0.51573  0.86529  1.0000
  C   C3147     1.0  0.81910  0.48217  0.87998  1.0000
  C   C3148     1.0  0.92266  0.52940  0.96374  1.0000
  C   C3149     1.0  0.92474  0.44697  0.92638  1.0000
  C   C3150     1.0  0.54208  0.64198  0.77208  1.0000
  H   H2522     1.0  0.88097  0.57722  0.77331  1.0000
  C   C3151     1.0  0.84081  0.59477  0.94076  1.0000
  C   C3152     1.0  0.86625  0.50200  0.79004  1.0000
  H   H2523     1.0  0.83767  0.49119  0.79382  1.0000
  C   C3153     1.0  0.77884  0.49425  0.82459  1.0000
  C   C3154     1.0  0.76521  0.52569  0.80037  1.0000
  H   H2524     1.0  0.91823  0.46763  0.82310  1.0000
  C   C3155     1.0  0.91260  0.36182  0.97911  1.0000
  H   H2525     1.0  0.92874  0.50092  0.80189  1.0000
  H   H2526     1.0  0.85305  0.50875  0.95917  1.0000
  H   H2527     1.0  0.66686  0.53148  0.89137  1.0000
  H   H2528     1.0  0.91429  0.57658  0.93545  1.0000
  H   H2529     1.0  0.87065  0.50266  0.77328  1.0000
  H   H2530     1.0  0.65639  0.33020  0.80818  1.0000
  C   C3156     1.0  0.92492  0.58756  0.93006  1.0000
  C   C3157     1.0  0.91785  0.60842  0.93283  1.0000
  H   H2531     1.0  0.69320  0.54813  0.86363  1.0000
  H   H2532     1.0  0.72576  0.58000  0.78949  1.0000
  H   H2533     1.0  0.68243  0.33682  0.84248  1.0000
  H   H2534     1.0  0.92712  0.63838  0.92775  1.0000
  C   C3158     1.0  0.70695  0.62026  0.74133  1.0000
  C   C3159     1.0  0.97999  0.41415  0.89592  1.0000
  C   C3160     1.0  0.97464  0.40592  0.91756  1.0000
  C   C3161     1.0  0.66425  0.63830  0.79059  1.0000
  H   H2535     1.0  0.88647  0.40802  0.94541  1.0000
  H   H2536     1.0  0.70712  0.60992  0.83892  1.0000
  H   H2537     1.0  0.79940  0.55509  0.98133  1.0000
  C   C3162     1.0  0.91500  0.56833  0.76836  1.0000
  H   H2538     1.0  0.71011  0.54668  0.75151  1.0000
  H   H2539     1.0  0.98697  0.35358  0.91699  1.0000
  S   S430      1.0  0.94244  0.33405  0.85493  1.0000
  C   C3163     1.0  0.96608  0.55800  0.97005  1.0000
  C   C3164     1.0  0.84123  0.39120  0.98350  1.0000
  H   H2540     1.0  0.84979  0.60415  0.96460  1.0000
  C   C3165     1.0  0.95170  0.32616  0.89413  1.0000
  C   C3166     1.0  0.85437  0.60208  0.94859  1.0000
  C   C3167     1.0  0.87373  0.60623  0.93588  1.0000
  C   C3168     1.0  0.57107  0.61652  0.79643  1.0000
  C   C3169     1.0  0.78657  0.33892  0.77249  1.0000
  P   P105      1.0  0.72759  0.35962  0.75834  1.0000
  C   C3170     1.0  0.98801  0.40051  0.88182  1.0000
  H   H2541     1.0  0.95303  0.51198  0.96958  1.0000
  H   H2542     1.0  0.97262  0.37771  0.94194  1.0000
  H   H2543     1.0  0.96389  0.62598  0.91053  1.0000
  C   C3171     1.0  0.70772  0.32667  0.81787  1.0000
  C   C3172     1.0  0.71751  0.35055  0.74061  1.0000
  C   C3173     1.0  0.70470  0.33540  0.74831  1.0000
  H   H2544     1.0  0.85806  0.63124  0.97985  1.0000
  C   C3174     1.0  0.72765  0.61370  0.74476  1.0000
  H   H2545     1.0  0.97381  0.33184  0.94808  1.0000
  H   H2546     1.0  0.65190  0.65145  0.83822  1.0000
  H   H2547     1.0  0.83795  0.55429  0.97374  1.0000
  C   C3175     1.0  0.97624  0.32987  0.96377  1.0000
  P   P106      1.0  0.87958  0.43161  0.97912  1.0000
  H   H2548     1.0  0.81563  0.50687  0.97539  1.0000
  H   H2549     1.0  0.98539  0.55257  0.78838  1.0000
  C   C3176     1.0  0.70639  0.40004  0.74213  1.0000
  C   C3177     1.0  0.97707  0.38409  0.92523  1.0000
  H   H2550     1.0  0.89616  0.65061  0.96262  1.0000
  H   H2551     1.0  0.98430  0.41762  0.81171  1.0000
  S   S431      1.0  0.76881  0.59262  0.73694  1.0000
  H   H2552     1.0  0.98311  0.49013  0.98330  1.0000
  C   C3178     1.0  0.56067  0.64856  0.77108  1.0000
  H   H2553     1.0  0.98762  0.32380  0.84829  1.0000
  C   C3179     1.0  0.98837  0.53878  0.78175  1.0000
  C   C3180     1.0  0.98067  0.54692  0.84647  1.0000
  S   S432      1.0  0.72450  0.64690  0.81588  1.0000
  C   C3181     1.0  0.73586  0.42050  0.74675  1.0000
  H   H2554     1.0  0.66311  0.64523  0.77435  1.0000
  C   C3182     1.0  0.98849  0.47549  0.95721  1.0000
  C   C3183     1.0  0.79918  0.33321  0.75404  1.0000
  C   C3184     1.0  0.76838  0.34276  0.73838  1.0000
  H   H2555     1.0  0.74728  0.42842  0.74858  1.0000
  H   H2556     1.0  0.98836  0.52382  0.82761  1.0000
  C   C3185     1.0  0.65606  0.65059  0.80572  1.0000
  C   C3186     1.0  0.79010  0.33510  0.73703  1.0000
  H   H2557     1.0  0.67091  0.67186  0.20757  1.0000
  H   H2558     1.0  0.91110  0.73280  0.17528  1.0000
  Fe  Fe219     1.0  0.72493  0.80342  0.20128  1.0000
  S   S433      1.0  0.71605  0.77472  0.22407  1.0000
  S   S434      1.0  0.73339  0.82903  0.21126  1.0000
  Fe  Fe220     1.0  0.71428  0.79228  0.16511  1.0000
  S   S435      1.0  0.70447  0.76232  0.18490  1.0000
  S   S436      1.0  0.71411  0.80491  0.13061  1.0000
  Fe  Fe221     1.0  0.68821  0.78149  0.20920  1.0000
  C   C3187     1.0  0.49543  0.95006  0.08768  1.0000
  Fe  Fe222     1.0  0.73312  0.75774  0.19815  1.0000
  S   S437      1.0  0.75160  0.72540  0.20910  1.0000
  S   S438      1.0  0.69543  0.81194  0.18837  1.0000
  S   S439      1.0  0.74464  0.78602  0.17635  1.0000
  H   H2559     1.0  0.64996  0.88002  0.01141  1.0000
  C   C3188     1.0  0.68400  0.68595  0.15409  1.0000
  C   C3189     1.0  0.49469  0.93078  0.08363  1.0000
  C   C3190     1.0  0.49591  0.88061  0.10885  1.0000
  S   S440      1.0  0.60047  0.82438  0.05685  1.0000
  Fe  Fe223     1.0  0.62055  0.87536  0.05103  1.0000
  S   S441      1.0  0.59977  0.86158  0.08074  1.0000
  S   S442      1.0  0.63199  0.90586  0.04403  1.0000
  Fe  Fe224     1.0  0.62058  0.83042  0.07584  1.0000
  S   S443      1.0  0.62940  0.80614  0.10435  1.0000
  Fe  Fe225     1.0  0.58150  0.85680  0.05940  1.0000
  S   S444      1.0  0.54638  0.86901  0.06274  1.0000
  S   S445      1.0  0.64297  0.84449  0.04762  1.0000
  S   S446      1.0  0.60062  0.87308  0.03015  1.0000
  C   C3191     1.0  0.58872  0.95570  0.07912  1.0000
  C   C3192     1.0  0.60431  0.96139  0.06156  1.0000
  C   C3193     1.0  0.61766  0.94598  0.05088  1.0000
  C   C3194     1.0  0.61513  0.92496  0.05749  1.0000
  C   C3195     1.0  0.59942  0.91940  0.07491  1.0000
  C   C3196     1.0  0.58640  0.93467  0.08583  1.0000
  C   C3197     1.0  0.83045  0.73546  0.23394  1.0000
  H   H2560     1.0  0.62989  0.95033  0.03748  1.0000
  H   H2561     1.0  0.59747  0.90328  0.08027  1.0000
  H   H2562     1.0  0.57446  0.93017  0.09949  1.0000
  C   C3198     1.0  0.50473  0.82163  0.07255  1.0000
  H   H2563     1.0  0.70586  0.86123  0.04577  1.0000
  C   C3199     1.0  0.50896  0.85751  0.06786  1.0000
  C   C3200     1.0  0.53081  0.85052  0.06601  1.0000
  C   C3201     1.0  0.53967  0.82904  0.06723  1.0000
  C   C3202     1.0  0.52664  0.81461  0.07038  1.0000
  H   H2564     1.0  0.89951  0.79706  0.14042  1.0000
  H   H2565     1.0  0.57921  0.83465  0.01601  1.0000
  H   H2566     1.0  0.55650  0.82351  0.06584  1.0000
  H   H2567     1.0  0.53355  0.79804  0.07110  1.0000
  C   C3203     1.0  0.69061  0.80514  0.12336  1.0000
  C   C3204     1.0  0.67463  0.79599  0.13786  1.0000
  C   C3205     1.0  0.65627  0.79581  0.13158  1.0000
  C   C3206     1.0  0.65326  0.80568  0.11114  1.0000
  C   C3207     1.0  0.66917  0.81502  0.09669  1.0000
  C   C3208     1.0  0.68798  0.81433  0.10269  1.0000
  H   H2568     1.0  0.67640  0.78900  0.15388  1.0000
  H   H2569     1.0  0.64399  0.78871  0.14277  1.0000
  H   H2570     1.0  0.66718  0.82241  0.08082  1.0000
  H   H2571     1.0  0.70051  0.82091  0.09130  1.0000
  C   C3209     1.0  0.76993  0.71213  0.19084  1.0000
  C   C3210     1.0  0.77577  0.72202  0.16972  1.0000
  H   H2572     1.0  0.72324  0.84614  0.16589  1.0000
  Fe  Fe226     1.0  0.62117  0.84115  0.02892  1.0000
  C   C3211     1.0  0.79518  0.68023  0.18452  1.0000
  C   C3212     1.0  0.77940  0.69117  0.19807  1.0000
  H   H2573     1.0  0.76839  0.73824  0.16409  1.0000
  C   C3213     1.0  0.70834  0.70204  0.21148  1.0000
  H   H2574     1.0  0.51226  0.90559  0.06769  1.0000
  H   H2575     1.0  0.77478  0.68351  0.21433  1.0000
  H   H2576     1.0  0.68661  0.93644  0.05672  1.0000
  H   H2577     1.0  0.86320  0.67097  0.23207  1.0000
  H   H2578     1.0  0.51697  0.93676  0.00103  1.0000
  H   H2579     1.0  0.56399  0.95049  0.02534  1.0000
  H   H2580     1.0  0.63622  0.95512  0.99378  1.0000
  C   C3214     1.0  0.68020  0.68772  0.17511  1.0000
  H   H2581     1.0  0.79664  0.71868  0.13986  1.0000
  H   H2582     1.0  0.68885  0.69864  0.14133  1.0000
  C   C3215     1.0  0.65429  0.74696  0.19122  1.0000
  C   C3216     1.0  0.69662  0.95809  0.10041  1.0000
  H   H2583     1.0  0.92455  0.76487  0.15395  1.0000
  C   C3217     1.0  0.71147  0.69643  0.23212  1.0000
  C   C3218     1.0  0.80168  0.69018  0.16365  1.0000
  H   H2584     1.0  0.67329  0.91144  0.14070  1.0000
  H   H2585     1.0  0.72193  0.70389  0.19889  1.0000
  H   H2586     1.0  0.52712  0.95804  0.02028  1.0000
  H   H2587     1.0  0.63541  0.94824  0.09039  1.0000
  C   C3219     1.0  0.68977  0.94257  0.06869  1.0000
  S   S447      1.0  0.65558  0.77982  0.22852  1.0000
  H   H2588     1.0  0.75396  0.85465  0.22317  1.0000
  C   C3220     1.0  0.76296  0.83864  0.22613  1.0000
  H   H2589     1.0  0.59961  0.92607  0.15159  1.0000
  C   C3221     1.0  0.51483  0.89629  0.99143  1.0000
  C   C3222     1.0  0.58578  0.97655  0.98791  1.0000
  H   H2590     1.0  0.62004  0.74981  0.15176  1.0000
  H   H2591     1.0  0.69821  0.84457  0.14541  1.0000
  C   C3223     1.0  0.67077  0.70385  0.22471  1.0000
  H   H2592     1.0  0.72692  0.85480  0.07306  1.0000
  H   H2593     1.0  0.65188  0.72174  0.15446  1.0000
  C   C3224     1.0  0.68796  0.70556  0.20754  1.0000
  H   H2594     1.0  0.63190  0.77444  0.19928  1.0000
  P   P107      1.0  0.68356  0.71127  0.18097  1.0000
  C   C3225     1.0  0.70572  0.71968  0.16138  1.0000
  C   C3226     1.0  0.70338  0.73979  0.14798  1.0000
  C   C3227     1.0  0.72068  0.74612  0.13303  1.0000
  C   C3228     1.0  0.74033  0.73232  0.13105  1.0000
  C   C3229     1.0  0.74260  0.71198  0.14372  1.0000
  C   C3230     1.0  0.72533  0.70560  0.15869  1.0000
  H   H2595     1.0  0.52846  0.83693  0.01258  1.0000
  H   H2596     1.0  0.66389  0.74688  0.20195  1.0000
  C   C3231     1.0  0.76788  0.80167  0.22590  1.0000
  H   H2597     1.0  0.66716  0.87396  0.05411  1.0000
  H   H2598     1.0  0.60641  0.97752  0.05648  1.0000
  H   H2599     1.0  0.50199  0.87406  0.06695  1.0000
  H   H2600     1.0  0.68840  0.75088  0.14929  1.0000
  H   H2601     1.0  0.71889  0.76193  0.12320  1.0000
  H   H2602     1.0  0.75382  0.73744  0.11978  1.0000
  H   H2603     1.0  0.75787  0.70129  0.14223  1.0000
  H   H2604     1.0  0.72740  0.68980  0.16842  1.0000
  H   H2605     1.0  0.69834  0.91258  0.16129  1.0000
  C   C3232     1.0  0.51623  0.83492  0.00586  1.0000
  H   H2606     1.0  0.81770  0.83489  0.19036  1.0000
  H   H2607     1.0  0.80259  0.66411  0.19028  1.0000
  C   C3233     1.0  0.88262  0.69438  0.22015  1.0000
  C   C3234     1.0  0.90023  0.74708  0.16975  1.0000
  C   C3235     1.0  0.81185  0.71923  0.21828  1.0000
  C   C3236     1.0  0.62350  0.76346  0.17585  1.0000
  C   C3237     1.0  0.50602  0.89470  0.01297  1.0000
  C   C3238     1.0  0.83577  0.74904  0.21459  1.0000
  C   C3239     1.0  0.82943  0.74752  0.19688  1.0000
  C   C3240     1.0  0.81678  0.73304  0.19901  1.0000
  P   P108      1.0  0.83664  0.76494  0.17199  1.0000
  C   C3241     1.0  0.83482  0.75446  0.15065  1.0000
  C   C3242     1.0  0.81979  0.79039  0.17397  1.0000
  C   C3243     1.0  0.79945  0.79537  0.16960  1.0000
  H   H2608     1.0  0.51447  0.89743  0.02339  1.0000
  C   C3244     1.0  0.67388  0.67102  0.19127  1.0000
  C   C3245     1.0  0.81296  0.82423  0.18372  1.0000
  C   C3246     1.0  0.82615  0.80467  0.18175  1.0000
  C   C3247     1.0  0.82658  0.76764  0.13337  1.0000
  C   C3248     1.0  0.82580  0.75922  0.11678  1.0000
  C   C3249     1.0  0.83380  0.73776  0.11703  1.0000
  C   C3250     1.0  0.84275  0.72475  0.13377  1.0000
  C   C3251     1.0  0.84330  0.73302  0.15050  1.0000
  C   C3252     1.0  0.86429  0.76547  0.16724  1.0000
  C   C3253     1.0  0.87200  0.78331  0.15460  1.0000
  C   C3254     1.0  0.87858  0.74728  0.17458  1.0000
  C   C3255     1.0  0.68144  0.66784  0.14933  1.0000
  H   H2609     1.0  0.59089  0.92248  0.01027  1.0000
  H   H2610     1.0  0.78266  0.84437  0.18055  1.0000
  H   H2611     1.0  0.64925  0.88054  0.08914  1.0000
  H   H2612     1.0  0.81077  0.73220  0.18589  1.0000
  H   H2613     1.0  0.60961  0.77591  0.17440  1.0000
  H   H2614     1.0  0.66158  0.91472  0.09367  1.0000
  C   C3256     1.0  0.78633  0.81501  0.17150  1.0000
  H   H2615     1.0  0.84491  0.76062  0.21347  1.0000
  H   H2616     1.0  0.84100  0.80052  0.18694  1.0000
  H   H2617     1.0  0.82091  0.78440  0.13256  1.0000
  H   H2618     1.0  0.81902  0.76935  0.10370  1.0000
  H   H2619     1.0  0.84909  0.70812  0.13395  1.0000
  H   H2620     1.0  0.85031  0.72261  0.16335  1.0000
  H   H2621     1.0  0.86131  0.79723  0.14813  1.0000
  H   H2622     1.0  0.87308  0.73307  0.18377  1.0000
  H   H2623     1.0  0.66137  0.85118  0.17139  1.0000
  C   C3257     1.0  0.68655  0.97205  0.08466  1.0000
  C   C3258     1.0  0.75604  0.82237  0.22221  1.0000
  H   H2624     1.0  0.70959  0.86074  0.10821  1.0000
  C   C3259     1.0  0.60352  0.97020  0.99703  1.0000
  C   C3260     1.0  0.79166  0.71095  0.15605  1.0000
  C   C3261     1.0  0.57472  0.92552  0.00827  1.0000
  C   C3262     1.0  0.53306  0.93347  0.00309  1.0000
  C   C3263     1.0  0.90777  0.76508  0.15762  1.0000
  C   C3264     1.0  0.51264  0.91999  0.07178  1.0000
  C   C3265     1.0  0.53163  0.92715  0.06595  1.0000
  C   C3266     1.0  0.53250  0.94589  0.07074  1.0000
  C   C3267     1.0  0.51430  0.95755  0.08125  1.0000
  C   C3268     1.0  0.78693  0.79751  0.23297  1.0000
  S   S448      1.0  0.63292  0.82830  0.99926  1.0000
  H   H2625     1.0  0.70589  0.91229  0.08367  1.0000
  H   H2626     1.0  0.51495  0.85010  0.11893  1.0000
  H   H2627     1.0  0.83307  0.73112  0.10432  1.0000
  H   H2628     1.0  0.63458  0.85715  0.11771  1.0000
  H   H2629     1.0  0.54574  0.91791  0.05797  1.0000
  H   H2630     1.0  0.54727  0.95137  0.06640  1.0000
  H   H2631     1.0  0.51497  0.97221  0.08473  1.0000
  H   H2632     1.0  0.61871  0.87371  0.98932  1.0000
  C   C3269     1.0  0.62937  0.74867  0.16313  1.0000
  C   C3270     1.0  0.89365  0.78319  0.15003  1.0000
  C   C3271     1.0  0.55956  0.94141  0.01667  1.0000
  H   H2633     1.0  0.72323  0.87987  0.17414  1.0000
  H   H2634     1.0  0.62572  0.89241  0.15535  1.0000
  C   C3272     1.0  0.70384  0.93667  0.09987  1.0000
  H   H2635     1.0  0.79355  0.78395  0.16517  1.0000
  H   H2636     1.0  0.55760  0.87064  0.01437  1.0000
  C   C3273     1.0  0.62372  0.83568  0.14582  1.0000
  C   C3274     1.0  0.62558  0.82612  0.16655  1.0000
  C   C3275     1.0  0.63944  0.83162  0.17550  1.0000
  C   C3276     1.0  0.65140  0.84673  0.16373  1.0000
  C   C3277     1.0  0.65029  0.85584  0.14255  1.0000
  C   C3278     1.0  0.63614  0.85030  0.13380  1.0000
  P   P109      1.0  0.66473  0.87636  0.12748  1.0000
  C   C3279     1.0  0.64561  0.90098  0.12473  1.0000
  C   C3280     1.0  0.68386  0.87787  0.14145  1.0000
  C   C3281     1.0  0.69824  0.85959  0.14855  1.0000
  C   C3282     1.0  0.71246  0.86041  0.16013  1.0000
  C   C3283     1.0  0.71246  0.87948  0.16475  1.0000
  C   C3284     1.0  0.69840  0.89783  0.15756  1.0000
  C   C3285     1.0  0.68417  0.89708  0.14592  1.0000
  C   C3286     1.0  0.64830  0.91701  0.10653  1.0000
  C   C3287     1.0  0.63355  0.93609  0.10464  1.0000
  C   C3288     1.0  0.61605  0.93933  0.12089  1.0000
  C   C3289     1.0  0.61332  0.92356  0.13912  1.0000
  C   C3290     1.0  0.62808  0.90447  0.14110  1.0000
  C   C3291     1.0  0.67790  0.87108  0.10170  1.0000
  C   C3292     1.0  0.66620  0.87473  0.08606  1.0000
  C   C3293     1.0  0.67632  0.87125  0.06600  1.0000
  C   C3294     1.0  0.69817  0.86420  0.06125  1.0000
  C   C3295     1.0  0.71000  0.86070  0.07657  1.0000
  C   C3296     1.0  0.69995  0.86403  0.09670  1.0000
  H   H2637     1.0  0.61319  0.83122  0.13872  1.0000
  H   H2638     1.0  0.61643  0.81433  0.17560  1.0000
  H   H2639     1.0  0.64099  0.82411  0.19157  1.0000
  S   S449      1.0  0.57252  0.97428  0.09351  1.0000
  H   H2640     1.0  0.90030  0.71899  0.21301  1.0000
  C   C3297     1.0  0.68259  0.96399  0.06917  1.0000
  C   C3298     1.0  0.63606  0.76269  0.18976  1.0000
  C   C3299     1.0  0.53879  0.94558  0.01387  1.0000
  S   S450      1.0  0.82330  0.67683  0.14788  1.0000
  C   C3300     1.0  0.49593  0.84307  0.07155  1.0000
  C   C3301     1.0  0.79317  0.82950  0.17836  1.0000
  C   C3302     1.0  0.64754  0.73282  0.16465  1.0000
  S   S451      1.0  0.84175  0.66602  0.20057  1.0000
  H   H2641     1.0  0.79672  0.78184  0.23465  1.0000
  H   H2642     1.0  0.80245  0.70788  0.21956  1.0000
  H   H2643     1.0  0.77052  0.81876  0.16843  1.0000
  H   H2644     1.0  0.69867  0.96367  0.11327  1.0000
  S   S452      1.0  0.89227  0.68791  0.19538  1.0000
  H   H2645     1.0  0.60441  0.95396  0.11921  1.0000
  C   C3303     1.0  0.56287  0.86433  0.00023  1.0000
  C   C3304     1.0  0.66002  0.73169  0.17890  1.0000
  H   H2646     1.0  0.49291  0.83458  0.03466  1.0000
  H   H2647     1.0  0.71178  0.92600  0.11195  1.0000
  C   C3305     1.0  0.62253  0.95958  0.98663  1.0000
  H   H2648     1.0  0.65485  0.70681  0.22214  1.0000
  C   C3306     1.0  0.88930  0.71050  0.22475  1.0000
  H   H2649     1.0  0.66922  0.85475  0.98860  1.0000
  H   H2650     1.0  0.50937  0.88811  0.10415  1.0000
  C   C3307     1.0  0.57479  0.84378  0.00134  1.0000
  C   C3308     1.0  0.70053  0.92894  0.08394  1.0000
  H   H2651     1.0  0.58107  0.90145  0.99071  1.0000
  Fe  Fe227     1.0  0.87683  0.66339  0.19174  1.0000
  H   H2652     1.0  0.76278  0.78906  0.22263  1.0000
  C   C3309     1.0  0.78197  0.83452  0.23293  1.0000
  C   C3310     1.0  0.56905  0.91353  0.99733  1.0000
  C   C3311     1.0  0.81883  0.72029  0.23572  1.0000
  H   H2653     1.0  0.67365  0.97418  0.05765  1.0000
  C   C3312     1.0  0.49912  0.85894  0.11769  1.0000
  C   C3313     1.0  0.54805  0.91713  0.99508  1.0000
  H   H2654     1.0  0.57121  0.98539  0.99564  1.0000
  C   C3314     1.0  0.65469  0.88574  0.99464  1.0000
  H   H2655     1.0  0.60260  0.97392  0.01195  1.0000
  C   C3315     1.0  0.49621  0.83359  0.01838  1.0000
  H   H2656     1.0  0.68436  0.66666  0.13306  1.0000
  H   H2657     1.0  0.64047  0.91776  0.99626  1.0000
  Fe  Fe228     1.0  0.84561  0.65804  0.16931  1.0000
  S   S453      1.0  0.88032  0.65796  0.15949  1.0000
  H   H2658     1.0  0.78760  0.84736  0.23509  1.0000
  H   H2659     1.0  0.72726  0.69367  0.23503  1.0000
  C   C3316     1.0  0.86847  0.68338  0.23546  1.0000
  H   H2660     1.0  0.85056  0.87178  0.32729  1.0000
  S   S454      1.0  0.81430  0.75713  0.28504  1.0000
  Fe  Fe229     1.0  0.85459  0.77895  0.30239  1.0000
  S   S455      1.0  0.84385  0.74889  0.32000  1.0000
  S   S456      1.0  0.88034  0.78937  0.31106  1.0000
  Fe  Fe230     1.0  0.84766  0.74198  0.28841  1.0000
  S   S457      1.0  0.86082  0.70823  0.28584  1.0000
  Fe  Fe231     1.0  0.81144  0.76620  0.31540  1.0000
  S   S458      1.0  0.78445  0.76137  0.34308  1.0000
  S   S459      1.0  0.86112  0.77054  0.27086  1.0000
  S   S460      1.0  0.82164  0.79724  0.30056  1.0000
  Fe  Fe232     1.0  0.68637  0.69230  0.31932  1.0000
  C   C3317     1.0  0.73970  0.73797  0.25951  1.0000
  Fe  Fe233     1.0  0.72752  0.67568  0.33523  1.0000
  C   C3318     1.0  0.58348  0.72930  0.31282  1.0000
  S   S461      1.0  0.74854  0.67951  0.35457  1.0000
  C   C3319     1.0  0.63475  0.66373  0.37008  1.0000
  S   S462      1.0  0.95465  0.82592  0.40202  1.0000
  C   C3320     1.0  0.59445  0.71220  0.32554  1.0000
  H   H2661     1.0  0.84953  0.97185  0.44490  1.0000
  S   S463      1.0  0.72009  0.69383  0.30391  1.0000
  S   S464      1.0  0.69358  0.67705  0.35112  1.0000
  Fe  Fe234     1.0  0.87938  0.85350  0.39108  1.0000
  S   S465      1.0  0.89307  0.83884  0.42000  1.0000
  S   S466      1.0  0.85499  0.84052  0.38351  1.0000
  Fe  Fe235     1.0  0.90107  0.89050  0.37944  1.0000
  S   S467      1.0  0.91683  0.87934  0.40705  1.0000
  S   S468      1.0  0.90602  0.92018  0.35570  1.0000
  Fe  Fe236     1.0  0.92317  0.84754  0.39948  1.0000
  H   H2662     1.0  0.64565  0.81029  0.26204  1.0000
  Fe  Fe237     1.0  0.88563  0.87182  0.42518  1.0000
  S   S469      1.0  0.87223  0.87988  0.45685  1.0000
  S   S470      1.0  0.91019  0.85931  0.36995  1.0000
  S   S471      1.0  0.86909  0.88588  0.39819  1.0000
  C   C3321     1.0  0.90048  0.94108  0.36853  1.0000
  C   C3322     1.0  0.89179  0.93796  0.39004  1.0000
  C   C3323     1.0  0.88815  0.95431  0.40056  1.0000
  H   H2663     1.0  0.55745  0.68136  0.34268  1.0000
  H   H2664     1.0  0.85145  0.84352  0.47889  1.0000
  C   C3324     1.0  0.90517  0.96075  0.35744  1.0000
  H   H2665     1.0  0.88790  0.92293  0.39867  1.0000
  H   H2666     1.0  0.88158  0.95170  0.41721  1.0000
  H   H2667     1.0  0.91136  0.96342  0.34069  1.0000
  H   H2668     1.0  0.93374  0.83798  0.29808  1.0000
  H   H2669     1.0  0.98934  0.88529  0.40991  1.0000
  H   H2670     1.0  0.62523  0.75111  0.30163  1.0000
  H   H2671     1.0  0.98144  0.72136  0.30629  1.0000
  C   C3325     1.0  0.88834  0.86476  0.47458  1.0000
  C   C3326     1.0  0.90586  0.84945  0.46838  1.0000
  H   H2672     1.0  0.94832  0.74476  0.37993  1.0000
  H   H2673     1.0  0.93307  0.95908  0.45121  1.0000
  C   C3327     1.0  0.82011  0.84284  0.44684  1.0000
  H   H2674     1.0  0.90986  0.84713  0.45248  1.0000
  C   C3328     1.0  0.61326  0.69893  0.36917  1.0000
  H   H2675     1.0  0.78723  0.74985  0.25510  1.0000
  C   C3329     1.0  0.87288  0.80479  0.33023  1.0000
  C   C3330     1.0  0.85185  0.80981  0.34055  1.0000
  C   C3331     1.0  0.84651  0.82114  0.35660  1.0000
  C   C3332     1.0  0.86214  0.82761  0.36234  1.0000
  C   C3333     1.0  0.88311  0.82306  0.35164  1.0000
  C   C3334     1.0  0.88846  0.81159  0.33571  1.0000
  H   H2676     1.0  0.83977  0.80476  0.33626  1.0000
  H   H2677     1.0  0.83022  0.82484  0.36463  1.0000
  H   H2678     1.0  0.89523  0.82818  0.35574  1.0000
  H   H2679     1.0  0.90471  0.80781  0.32768  1.0000
  C   C3335     1.0  0.77339  0.73948  0.34549  1.0000
  C   C3336     1.0  0.77018  0.73416  0.32796  1.0000
  C   C3337     1.0  0.76161  0.71630  0.33051  1.0000
  C   C3338     1.0  0.75699  0.70335  0.35052  1.0000
  C   C3339     1.0  0.76010  0.70883  0.36796  1.0000
  C   C3340     1.0  0.76782  0.72705  0.36552  1.0000
  H   H2680     1.0  0.77425  0.74381  0.31246  1.0000
  H   H2681     1.0  0.75904  0.71239  0.31697  1.0000
  H   H2682     1.0  0.75661  0.69888  0.38343  1.0000
  H   H2683     1.0  0.77019  0.73110  0.37909  1.0000
  C   C3341     1.0  0.86836  0.70398  0.26016  1.0000
  H   H2684     1.0  0.82648  0.93697  0.36564  1.0000
  C   C3342     1.0  0.97195  0.86017  0.37906  1.0000
  S   S472      1.0  0.81946  0.81023  0.24128  1.0000
  C   C3343     1.0  0.97792  0.73320  0.31561  1.0000
  H   H2685     1.0  0.81894  0.84783  0.43041  1.0000
  S   S473      1.0  0.65735  0.71803  0.31748  1.0000
  H   H2686     1.0  0.76035  0.69836  0.28443  1.0000
  H   H2687     1.0  0.93407  0.91535  0.40770  1.0000
  C   C3344     1.0  0.62664  0.70359  0.37941  1.0000
  H   H2688     1.0  0.72035  0.82485  0.27113  1.0000
  Fe  Fe238     1.0  0.82726  0.78658  0.27030  1.0000
  H   H2689     1.0  0.96754  0.82452  0.35894  1.0000
  H   H2690     1.0  0.89245  0.80496  0.39990  1.0000
  C   C3345     1.0  0.96072  0.82709  0.34537  1.0000
  H   H2691     1.0  0.86116  0.98748  0.34383  1.0000
  H   H2692     1.0  0.79311  0.82812  0.45644  1.0000
  C   C3346     1.0  0.98310  0.77237  0.38930  1.0000
  C   C3347     1.0  0.86133  0.68823  0.25539  1.0000
  H   H2693     1.0  0.96488  0.97861  0.37157  1.0000
  H   H2694     1.0  0.83512  0.90076  0.30043  1.0000
  C   C3348     1.0  0.82822  0.95245  0.38893  1.0000
  H   H2695     1.0  0.95760  0.86074  0.33936  1.0000
  H   H2696     1.0  0.83248  0.97076  0.40882  1.0000
  H   H2697     1.0  0.92521  0.81187  0.37482  1.0000
  C   C3349     1.0  0.81966  0.68751  0.31808  1.0000
  C   C3350     1.0  0.81751  0.70092  0.33149  1.0000
  C   C3351     1.0  0.81536  0.69297  0.35312  1.0000
  C   C3352     1.0  0.61015  0.65731  0.42891  1.0000
  C   C3353     1.0  0.80087  0.67202  0.25328  1.0000
  H   H2698     1.0  0.92997  0.97815  0.28150  1.0000
  C   C3354     1.0  0.93905  0.77885  0.37511  1.0000
  H   H2699     1.0  0.92294  0.91479  0.45654  1.0000
  H   H2700     1.0  0.59969  0.71085  0.36529  1.0000
  C   C3355     1.0  0.89411  0.94691  0.47664  1.0000
  H   H2701     1.0  0.82119  0.69405  0.30134  1.0000
  H   H2702     1.0  0.81722  0.71758  0.32503  1.0000
  H   H2703     1.0  0.81327  0.70359  0.36342  1.0000
  C   C3356     1.0  0.96877  0.76397  0.33967  1.0000
  C   C3357     1.0  0.93597  0.94641  0.40911  1.0000
  C   C3358     1.0  0.61763  0.67916  0.36386  1.0000
  C   C3359     1.0  0.56459  0.69497  0.33504  1.0000
  C   C3360     1.0  0.63841  0.76330  0.26918  1.0000
  C   C3361     1.0  0.85924  0.89278  0.34127  1.0000
  H   H2704     1.0  0.69130  0.68659  0.42666  1.0000
  H   H2705     1.0  0.88787  0.76819  0.41599  1.0000
  H   H2706     1.0  0.85720  0.93302  0.45925  1.0000
  H   H2707     1.0  0.61059  0.71216  0.32587  1.0000
  H   H2708     1.0  0.55775  0.68274  0.37916  1.0000
  C   C3362     1.0  0.85055  0.88809  0.32677  1.0000
  C   C3363     1.0  0.87754  0.98477  0.30354  1.0000
  H   H2709     1.0  0.86597  0.91710  0.35215  1.0000
  H   H2710     1.0  0.71263  0.80199  0.25448  1.0000
  H   H2711     1.0  0.93998  0.90870  0.32188  1.0000
  C   C3364     1.0  0.77050  0.74999  0.26029  1.0000
  C   C3365     1.0  0.65730  0.73494  0.29260  1.0000
  C   C3366     1.0  0.98251  0.90768  0.42971  1.0000
  H   H2712     1.0  0.85029  0.97653  0.28070  1.0000
  C   C3367     1.0  0.83551  0.96841  0.39295  1.0000
  P   P110      1.0  0.96245  0.78361  0.35542  1.0000
  C   C3368     1.0  0.65634  0.76212  0.25294  1.0000
  H   H2713     1.0  0.84038  0.75780  0.47432  1.0000
  H   H2714     1.0  0.78187  0.67914  0.31075  1.0000
  C   C3369     1.0  0.95733  0.74480  0.32011  1.0000
  C   C3370     1.0  0.89382  0.94766  0.30840  1.0000
  C   C3371     1.0  0.67467  0.74713  0.25650  1.0000
  C   C3372     1.0  0.85031  0.93031  0.32582  1.0000
  H   H2715     1.0  0.83491  0.93782  0.29936  1.0000
  C   C3373     1.0  0.94537  0.85172  0.31717  1.0000
  H   H2716     1.0  0.93197  0.82537  0.47788  1.0000
  C   C3374     1.0  0.97352  0.89793  0.31210  1.0000
  C   C3375     1.0  0.80693  0.66369  0.28889  1.0000
  H   H2717     1.0  0.96942  0.79627  0.46868  1.0000
  P   P111      1.0  0.59975  0.67229  0.35209  1.0000
  H   H2718     1.0  0.66063  0.69777  0.25851  1.0000
  H   H2719     1.0  0.95645  0.86761  0.37575  1.0000
  H   H2720     1.0  0.77104  0.69213  0.24829  1.0000
  C   C3376     1.0  0.91791  0.75422  0.39897  1.0000
  C   C3377     1.0  0.94742  0.81417  0.32212  1.0000
  C   C3378     1.0  0.85918  0.91376  0.34078  1.0000
  C   C3379     1.0  0.88906  0.96888  0.46932  1.0000
  H   H2721     1.0  0.94223  0.87929  0.45136  1.0000
  C   C3380     1.0  0.86599  0.94309  0.46214  1.0000
  C   C3381     1.0  0.91331  0.95292  0.29762  1.0000
  H   H2722     1.0  0.62424  0.77490  0.26651  1.0000
  H   H2723     1.0  0.71037  0.75116  0.27780  1.0000
  C   C3382     1.0  0.69250  0.67186  0.42229  1.0000
  C   C3383     1.0  0.97536  0.83979  0.39160  1.0000
  H   H2724     1.0  0.94022  0.97794  0.40574  1.0000
  C   C3384     1.0  0.78127  0.68463  0.25945  1.0000
  C   C3385     1.0  0.70665  0.66721  0.40407  1.0000
  H   H2725     1.0  0.98034  0.92907  0.44915  1.0000
  H   H2726     1.0  0.88748  0.72763  0.24831  1.0000
  H   H2727     1.0  0.94485  0.74201  0.31427  1.0000
  C   C3386     1.0  0.87573  0.96361  0.31137  1.0000
  H   H2728     1.0  0.65508  0.65865  0.29022  1.0000
  C   C3387     1.0  0.63896  0.74986  0.28902  1.0000
  C   C3388     1.0  0.90217  0.77112  0.40469  1.0000
  C   C3389     1.0  0.69734  0.80094  0.26482  1.0000
  H   H2729     1.0  0.83555  0.73656  0.24751  1.0000
  C   C3390     1.0  0.83256  0.94919  0.36846  1.0000
  H   H2730     1.0  0.94028  0.86781  0.30901  1.0000
  C   C3391     1.0  0.84183  0.90442  0.31170  1.0000
  C   C3392     1.0  0.97314  0.97494  0.32865  1.0000
  H   H2731     1.0  0.62373  0.71916  0.38266  1.0000
  C   C3393     1.0  0.76125  0.73800  0.25267  1.0000
  C   C3394     1.0  0.84172  0.92546  0.31118  1.0000
  C   C3395     1.0  0.55363  0.71214  0.32236  1.0000
  C   C3396     1.0  0.95271  0.75997  0.33225  1.0000
  C   C3397     1.0  0.64390  0.68825  0.38521  1.0000
  C   C3398     1.0  0.56303  0.72935  0.31135  1.0000
  C   C3399     1.0  0.58484  0.69516  0.33723  1.0000
  C   C3400     1.0  0.95596  0.98049  0.31854  1.0000
  C   C3401     1.0  0.65951  0.80567  0.26897  1.0000
  H   H2732     1.0  0.85017  0.67993  0.26705  1.0000
  C   C3402     1.0  0.67516  0.73358  0.27634  1.0000
  C   C3403     1.0  0.81209  0.70611  0.43225  1.0000
  C   C3404     1.0  0.79079  0.70947  0.43147  1.0000
  C   C3405     1.0  0.78033  0.72946  0.42253  1.0000
  C   C3406     1.0  0.79113  0.74612  0.41440  1.0000
  C   C3407     1.0  0.81256  0.74288  0.41512  1.0000
  C   C3408     1.0  0.82297  0.72271  0.42405  1.0000
  P   P112      1.0  0.82715  0.76387  0.40345  1.0000
  C   C3409     1.0  0.85000  0.75461  0.38444  1.0000
  C   C3410     1.0  0.81064  0.78609  0.38954  1.0000
  C   C3411     1.0  0.80871  0.78632  0.36925  1.0000
  C   C3412     1.0  0.79548  0.80321  0.35867  1.0000
  C   C3413     1.0  0.78403  0.81994  0.36824  1.0000
  C   C3414     1.0  0.78559  0.81967  0.38857  1.0000
  C   C3415     1.0  0.79868  0.80273  0.39929  1.0000
  C   C3416     1.0  0.86732  0.76468  0.37759  1.0000
  C   C3417     1.0  0.88480  0.75762  0.36276  1.0000
  C   C3418     1.0  0.88510  0.74060  0.35442  1.0000
  C   C3419     1.0  0.86795  0.73051  0.36102  1.0000
  C   C3420     1.0  0.85034  0.73763  0.37574  1.0000
  C   C3421     1.0  0.83535  0.77229  0.42299  1.0000
  C   C3422     1.0  0.83454  0.76027  0.44366  1.0000
  C   C3423     1.0  0.84112  0.76709  0.45839  1.0000
  C   C3424     1.0  0.84854  0.78591  0.45262  1.0000
  C   C3425     1.0  0.84921  0.79802  0.43219  1.0000
  C   C3426     1.0  0.84244  0.79136  0.41756  1.0000
  H   H2733     1.0  0.82023  0.69056  0.43903  1.0000
  H   H2734     1.0  0.78240  0.69657  0.43763  1.0000
  H   H2735     1.0  0.76389  0.73201  0.42163  1.0000
  H   H2736     1.0  0.78272  0.76134  0.40724  1.0000
  H   H2737     1.0  0.83960  0.71979  0.42437  1.0000
  H   H2738     1.0  0.81729  0.77347  0.36153  1.0000
  H   H2739     1.0  0.79408  0.80322  0.34304  1.0000
  H   H2740     1.0  0.77390  0.83303  0.35989  1.0000
  H   H2741     1.0  0.77666  0.83262  0.39601  1.0000
  H   H2742     1.0  0.79940  0.80267  0.41515  1.0000
  H   H2743     1.0  0.86722  0.77845  0.38299  1.0000
  H   H2744     1.0  0.89772  0.76599  0.35704  1.0000
  H   H2745     1.0  0.89826  0.73576  0.34225  1.0000
  H   H2746     1.0  0.86791  0.71774  0.35403  1.0000
  H   H2747     1.0  0.83683  0.73021  0.37976  1.0000
  H   H2748     1.0  0.82870  0.74577  0.44860  1.0000
  C   C3427     1.0  0.90184  0.97705  0.36808  1.0000
  H   H2749     1.0  0.85484  0.81270  0.42764  1.0000
  H   H2750     1.0  0.84262  0.80123  0.40196  1.0000
  H   H2751     1.0  0.68939  0.72219  0.27903  1.0000
  H   H2752     1.0  0.65444  0.69187  0.39291  1.0000
  C   C3428     1.0  0.70822  0.73377  0.34860  1.0000
  C   C3429     1.0  0.70430  0.74386  0.36524  1.0000
  C   C3430     1.0  0.70444  0.76538  0.36113  1.0000
  C   C3431     1.0  0.70882  0.77673  0.34037  1.0000
  C   C3432     1.0  0.71357  0.76650  0.32357  1.0000
  C   C3433     1.0  0.71276  0.74503  0.32785  1.0000
  P   P113      1.0  0.71959  0.78120  0.29679  1.0000
  C   C3434     1.0  0.73626  0.76348  0.28043  1.0000
  C   C3435     1.0  0.69581  0.79211  0.28640  1.0000
  C   C3436     1.0  0.67590  0.79002  0.29918  1.0000
  H   H2753     1.0  0.85361  0.79128  0.46397  1.0000
  C   C3437     1.0  0.97779  0.92869  0.33121  1.0000
  H   H2754     1.0  0.86597  0.88011  0.35297  1.0000
  C   C3438     1.0  0.88201  0.93413  0.47357  1.0000
  C   C3439     1.0  0.75809  0.76282  0.27401  1.0000
  C   C3440     1.0  0.87303  0.97778  0.45789  1.0000
  C   C3441     1.0  0.77495  0.68767  0.27998  1.0000
  C   C3442     1.0  0.78743  0.67695  0.29476  1.0000
  C   C3443     1.0  0.72720  0.75076  0.27325  1.0000
  C   C3444     1.0  0.73393  0.80110  0.29565  1.0000
  C   C3445     1.0  0.74901  0.79631  0.30823  1.0000
  C   C3446     1.0  0.76163  0.81063  0.30632  1.0000
  C   C3447     1.0  0.75936  0.82989  0.29182  1.0000
  C   C3448     1.0  0.74417  0.83497  0.27948  1.0000
  C   C3449     1.0  0.73152  0.82066  0.28132  1.0000
  H   H2755     1.0  0.70824  0.71706  0.35173  1.0000
  H   H2756     1.0  0.70126  0.73495  0.38129  1.0000
  H   H2757     1.0  0.70137  0.77324  0.37401  1.0000
  H   H2758     1.0  0.70884  0.79340  0.33743  1.0000
  H   H2759     1.0  0.71595  0.73677  0.31530  1.0000
  H   H2760     1.0  0.67429  0.78264  0.31572  1.0000
  C   C3450     1.0  0.81378  0.66178  0.26780  1.0000
  C   C3451     1.0  0.94163  0.83491  0.31107  1.0000
  H   H2761     1.0  0.55465  0.74254  0.30134  1.0000
  H   H2762     1.0  0.95875  0.91546  0.37358  1.0000
  H   H2763     1.0  0.76566  0.77248  0.27902  1.0000
  C   C3452     1.0  0.92331  0.79571  0.38123  1.0000
  H   H2764     1.0  0.91581  0.73816  0.40586  1.0000
  C   C3453     1.0  0.90481  0.79184  0.39572  1.0000
  C   C3454     1.0  0.91840  0.83713  0.48278  1.0000
  H   H2765     1.0  0.75153  0.78116  0.31904  1.0000
  H   H2766     1.0  0.77354  0.80646  0.31575  1.0000
  H   H2767     1.0  0.76962  0.84070  0.28986  1.0000
  C   C3455     1.0  0.96911  0.97094  0.47124  1.0000
  H   H2768     1.0  0.73256  0.72865  0.25349  1.0000
  C   C3456     1.0  0.94092  0.88374  0.46603  1.0000
  H   H2769     1.0  0.66917  0.66132  0.44900  1.0000
  C   C3457     1.0  0.83652  0.84707  0.45326  1.0000
  H   H2770     1.0  0.89302  0.93119  0.31452  1.0000
  C   C3458     1.0  0.92966  0.90371  0.46920  1.0000
  H   H2771     1.0  0.59103  0.74235  0.30380  1.0000
  H   H2772     1.0  0.64260  0.79450  0.30019  1.0000
  C   C3459     1.0  0.94139  0.95951  0.46281  1.0000
  H   H2773     1.0  0.81935  0.94248  0.40171  1.0000
  C   C3460     1.0  0.65783  0.79676  0.29045  1.0000
  P   P114      1.0  0.85031  0.95742  0.32538  1.0000
  C   C3461     1.0  0.95854  0.96453  0.37932  1.0000
  C   C3462     1.0  0.69435  0.69460  0.24900  1.0000
  H   H2774     1.0  0.94399  0.80162  0.31720  1.0000
  H   H2775     1.0  0.97723  0.82634  0.43939  1.0000
  H   H2776     1.0  0.74262  0.84976  0.26798  1.0000
  C   C3463     1.0  0.85177  0.97769  0.35611  1.0000
  H   H2777     1.0  0.92719  0.94057  0.29538  1.0000
  H   H2778     1.0  0.98877  0.77696  0.28107  1.0000
  C   C3464     1.0  0.80557  0.83179  0.46151  1.0000
  H   H2779     1.0  0.71635  0.67830  0.39422  1.0000
  C   C3465     1.0  0.89348  0.97376  0.38973  1.0000
  C   C3466     1.0  0.93629  0.75804  0.38422  1.0000
  H   H2780     1.0  0.97187  0.88615  0.30471  1.0000
  C   C3467     1.0  0.80716  0.82540  0.48269  1.0000
  H   H2781     1.0  0.92441  0.94660  0.42371  1.0000
  C   C3468     1.0  0.98589  0.82141  0.45201  1.0000
  C   C3469     1.0  0.95021  0.86933  0.48192  1.0000
  H   H2782     1.0  0.98175  0.97966  0.46647  1.0000
  H   H2783     1.0  0.96567  0.91111  0.43049  1.0000
  H   H2784     1.0  0.81506  0.70960  0.25071  1.0000
  C   C3470     1.0  0.91490  0.97409  0.28985  1.0000
  C   C3471     1.0  0.95814  0.97015  0.45650  1.0000
  C   C3472     1.0  0.98935  0.75195  0.33542  1.0000
  C   C3473     1.0  0.83832  0.84046  0.47432  1.0000
  H   H2785     1.0  0.84790  0.85554  0.44192  1.0000
  H   H2786     1.0  0.95865  0.85371  0.47965  1.0000
  C   C3474     1.0  0.94476  0.96414  0.39889  1.0000
  C   C3475     1.0  0.98872  0.87090  0.37052  1.0000
  C   C3476     1.0  0.95509  0.92915  0.38041  1.0000
  H   H2787     1.0  0.60450  0.67374  0.42209  1.0000
  C   C3477     1.0  0.67924  0.80783  0.25620  1.0000
  C   C3478     1.0  0.94124  0.92889  0.39994  1.0000
  H   H2788     1.0  0.93655  0.76854  0.33587  1.0000
  C   C3479     1.0  0.96351  0.94718  0.36973  1.0000
  C   C3480     1.0  0.95681  0.81008  0.33956  1.0000
  C   C3481     1.0  0.84474  0.96154  0.35191  1.0000
  H   H2789     1.0  0.77071  0.72897  0.24120  1.0000
  H   H2790     1.0  0.94372  0.93561  0.33860  1.0000
  H   H2791     1.0  0.64029  0.66224  0.42945  1.0000
  C   C3482     1.0  0.95774  0.92609  0.33100  1.0000
  H   H2792     1.0  0.96937  0.76638  0.39897  1.0000
  C   C3483     1.0  0.83024  0.97503  0.31181  1.0000
  C   C3484     1.0  0.67396  0.69851  0.24534  1.0000
  H   H2793     1.0  0.69698  0.69041  0.26492  1.0000
  C   C3485     1.0  0.56408  0.66603  0.38386  1.0000
  C   C3486     1.0  0.88205  0.71541  0.24470  1.0000
  C   C3487     1.0  0.95513  0.84776  0.33418  1.0000
  C   C3488     1.0  0.98400  0.78163  0.36787  1.0000
  H   H2794     1.0  0.53800  0.71191  0.32077  1.0000
  C   C3489     1.0  0.86158  0.96490  0.45420  1.0000
  C   C3490     1.0  0.95561  0.91077  0.32155  1.0000
  H   H2795     1.0  0.94734  0.96889  0.31875  1.0000
  C   C3491     1.0  0.98145  0.80446  0.46856  1.0000
  C   C3492     1.0  0.80998  0.98225  0.32310  1.0000
  H   H2796     1.0  0.63770  0.67665  0.31950  1.0000
  C   C3493     1.0  0.64768  0.66822  0.38090  1.0000
  S   S474      1.0  0.68752  0.66177  0.31126  1.0000
  P   P115      1.0  0.98033  0.94843  0.34385  1.0000
  H   H2797     1.0  0.81357  0.66537  0.37817  1.0000
  C   C3494     1.0  0.63173  0.66365  0.31804  1.0000
  C   C3495     1.0  0.93537  0.94973  0.48398  1.0000
  C   C3496     1.0  0.81551  0.67148  0.36137  1.0000
  H   H2798     1.0  0.53640  0.66059  0.40786  1.0000
  C   C3497     1.0  0.58405  0.65680  0.37358  1.0000
  C   C3498     1.0  0.81980  0.66594  0.32620  1.0000
  Fe  Fe239     1.0  0.72205  0.66160  0.29848  1.0000
  H   H2799     1.0  0.98603  0.88658  0.36079  1.0000
  H   H2800     1.0  0.86122  0.66183  0.30853  1.0000
  C   C3499     1.0  0.61403  0.65731  0.33242  1.0000
  H   H2801     1.0  0.88496  0.91723  0.47988  1.0000
  H   H2802     1.0  0.89746  0.97918  0.47238  1.0000
  H   H2803     1.0  0.68841  0.74575  0.24391  1.0000
  H   H2804     1.0  0.96225  0.97821  0.44024  1.0000
  H   H2805     1.0  0.80601  0.97730  0.34003  1.0000
  C   C3500     1.0  0.83480  0.98180  0.28980  1.0000
  C   C3501     1.0  0.68001  0.65749  0.43488  1.0000
  C   C3502     1.0  0.84702  0.98119  0.37649  1.0000
  H   H2806     1.0  0.66090  0.65623  0.38563  1.0000
  C   C3503     1.0  0.81785  0.65795  0.34796  1.0000
  C   C3504     1.0  0.79405  0.81399  0.23634  1.0000
  H   H2807     1.0  0.68064  0.81423  0.23944  1.0000
  H   H2808     1.0  0.80596  0.66990  0.23725  1.0000
  Fe  Fe240     1.0  0.77168  0.76069  0.65459  1.0000
  S   S475      1.0  0.80632  0.74574  0.65074  1.0000
  S   S476      1.0  0.75827  0.78294  0.67664  1.0000
  H   H2809     1.0  0.63002  0.76304  0.58816  1.0000
  H   H2810     1.0  0.58978  0.78004  0.67361  1.0000
  S   S477      1.0  0.83281  0.76988  0.59148  1.0000
  C   C3505     1.0  0.73593  0.71058  0.71011  1.0000
  C   C3506     1.0  0.59926  0.70900  0.68199  1.0000
  C   C3507     1.0  0.85409  0.70587  0.62870  1.0000
  C   C3508     1.0  0.87257  0.76930  0.50942  1.0000
  H   H2811     1.0  0.85879  0.69239  0.66027  1.0000
  C   C3509     1.0  0.77144  0.79161  0.56107  1.0000
  C   C3510     1.0  0.61240  0.70847  0.69530  1.0000
  C   C3511     1.0  0.91848  0.74918  0.59334  1.0000
  H   H2812     1.0  0.64313  0.73578  0.68485  1.0000
  C   C3512     1.0  0.78512  0.67666  0.58704  1.0000
  C   C3513     1.0  0.71429  0.70033  0.59279  1.0000
  C   C3514     1.0  0.88867  0.79491  0.51551  1.0000
  C   C3515     1.0  0.96113  0.69411  0.65190  1.0000
  S   S478      1.0  0.79932  0.72730  0.61323  1.0000
  H   H2813     1.0  0.94400  0.72193  0.59063  1.0000
  C   C3516     1.0  0.91364  0.84026  0.50334  1.0000
  H   H2814     1.0  0.49711  0.65908  0.62009  1.0000
  C   C3517     1.0  0.95670  0.71546  0.65260  1.0000
  C   C3518     1.0  0.86015  0.71971  0.60978  1.0000
  H   H2815     1.0  0.79571  0.76603  0.57200  1.0000
  Fe  Fe241     1.0  0.89634  0.84585  0.59077  1.0000
  S   S479      1.0  0.90310  0.86604  0.55837  1.0000
  S   S480      1.0  0.86324  0.84422  0.60899  1.0000
  Fe  Fe242     1.0  0.94267  0.82593  0.59049  1.0000
  S   S481      1.0  0.95311  0.84388  0.55800  1.0000
  Fe  Fe243     1.0  0.93003  0.87140  0.56894  1.0000
  S   S482      1.0  0.94266  0.90119  0.55760  1.0000
  Fe  Fe244     1.0  0.92547  0.83685  0.55026  1.0000
  H   H2816     1.0  0.53542  0.71167  0.69127  1.0000
  S   S483      1.0  0.92133  0.85395  0.60234  1.0000
  S   S484      1.0  0.91697  0.81629  0.58196  1.0000
  H   H2817     1.0  0.59478  0.80639  0.69049  1.0000
  C   C3519     1.0  0.91245  0.95375  0.59356  1.0000
  C   C3520     1.0  0.90456  0.93510  0.59984  1.0000
  C   C3521     1.0  0.91401  0.91846  0.58925  1.0000
  C   C3522     1.0  0.93116  0.92070  0.57230  1.0000
  C   C3523     1.0  0.93946  0.93897  0.56667  1.0000
  C   C3524     1.0  0.93041  0.95519  0.57761  1.0000
  H   H2818     1.0  0.89078  0.93378  0.61238  1.0000
  H   H2819     1.0  0.90763  0.90427  0.59373  1.0000
  H   H2820     1.0  0.95285  0.94061  0.55376  1.0000
  C   C3525     1.0  0.82322  0.83026  0.48938  1.0000
  Fe  Fe245     1.0  0.80677  0.75686  0.61622  1.0000
  S   S485      1.0  0.80852  0.68343  0.66087  1.0000
  C   C3526     1.0  0.50441  0.94735  0.73502  1.0000
  C   C3527     1.0  0.72216  0.68811  0.62758  1.0000
  C   C3528     1.0  0.68689  0.69990  0.69578  1.0000
  C   C3529     1.0  0.54761  0.67877  0.69084  1.0000
  C   C3530     1.0  0.66586  0.71049  0.69819  1.0000
  H   H2821     1.0  0.93751  0.74594  0.64427  1.0000
  C   C3531     1.0  0.65956  0.72804  0.68292  1.0000
  C   C3532     1.0  0.98490  0.90435  0.58663  1.0000
  H   H2822     1.0  0.82497  0.78179  0.54860  1.0000
  H   H2823     1.0  0.66617  0.70162  0.61016  1.0000
  C   C3533     1.0  0.79234  0.78101  0.56107  1.0000
  H   H2824     1.0  0.89185  0.85757  0.52549  1.0000
  C   C3534     1.0  0.58878  0.73935  0.70688  1.0000
  C   C3535     1.0  0.60698  0.72345  0.70801  1.0000
  C   C3536     1.0  0.58100  0.72483  0.68106  1.0000
  C   C3537     1.0  0.57571  0.73986  0.69353  1.0000
  H   H2825     1.0  0.97410  0.81166  0.52336  1.0000
  H   H2826     1.0  0.57090  0.72544  0.67065  1.0000
  H   H2827     1.0  0.56157  0.75203  0.69267  1.0000
  C   C3538     1.0  0.84058  0.79085  0.59646  1.0000
  C   C3539     1.0  0.83092  0.79879  0.61460  1.0000
  C   C3540     1.0  0.83765  0.81547  0.61822  1.0000
  C   C3541     1.0  0.85424  0.82399  0.60391  1.0000
  C   C3542     1.0  0.86347  0.81635  0.58554  1.0000
  C   C3543     1.0  0.85666  0.79983  0.58184  1.0000
  H   H2828     1.0  0.71157  0.79601  0.58485  1.0000
  H   H2829     1.0  0.83026  0.82150  0.63231  1.0000
  H   H2830     1.0  0.87561  0.82343  0.57395  1.0000
  H   H2831     1.0  0.86388  0.79400  0.56760  1.0000
  C   C3544     1.0  0.73082  0.78860  0.68601  1.0000
  C   C3545     1.0  0.71878  0.77283  0.69336  1.0000
  C   C3546     1.0  0.69709  0.77799  0.70239  1.0000
  C   C3547     1.0  0.68751  0.79899  0.70358  1.0000
  C   C3548     1.0  0.69952  0.81467  0.69571  1.0000
  C   C3549     1.0  0.72110  0.80945  0.68716  1.0000
  H   H2832     1.0  0.72630  0.75666  0.69254  1.0000
  H   H2833     1.0  0.68787  0.76578  0.70842  1.0000
  H   H2834     1.0  0.69217  0.83089  0.69648  1.0000
  H   H2835     1.0  0.73034  0.82164  0.68124  1.0000
  H   H2836     1.0  0.62041  0.75885  0.65409  1.0000
  H   H2837     1.0  0.69655  0.76942  0.66214  1.0000
  C   C3550     1.0  0.78503  0.77558  0.72132  1.0000
  S   S486      1.0  0.77303  0.77396  0.62009  1.0000
  C   C3551     1.0  0.97622  0.77348  0.56787  1.0000
  H   H2838     1.0  0.72329  0.72956  0.57488  1.0000
  H   H2839     1.0  0.61693  0.72274  0.71860  1.0000
  C   C3552     1.0  0.76889  0.76414  0.72963  1.0000
  H   H2840     1.0  0.86830  0.82434  0.52033  1.0000
  H   H2841     1.0  0.93501  0.89860  0.51930  1.0000
  C   C3553     1.0  0.72305  0.71805  0.58960  1.0000
  H   H2842     1.0  0.69562  0.86145  0.72984  1.0000
  S   S487      1.0  0.64217  0.75347  0.72240  1.0000
  S   S488      1.0  0.92986  0.82483  0.52093  1.0000
  H   H2843     1.0  0.72503  0.78933  0.64543  1.0000
  H   H2844     1.0  0.83935  0.95878  0.67998  1.0000
  H   H2845     1.0  0.79598  0.81651  0.49363  1.0000
  C   C3554     1.0  0.60825  0.79787  0.68108  1.0000
  C   C3555     1.0  0.69166  0.77942  0.61113  1.0000
  C   C3556     1.0  0.87690  0.76729  0.64387  1.0000
  H   H2846     1.0  0.75094  0.81984  0.54806  1.0000
  C   C3557     1.0  0.55760  0.66098  0.63699  1.0000
  H   H2847     1.0  0.75926  0.76322  0.71937  1.0000
  H   H2848     1.0  0.76975  0.70511  0.70063  1.0000
  C   C3558     1.0  0.62957  0.66341  0.72987  1.0000
  H   H2849     1.0  0.77328  0.67567  0.63939  1.0000
  C   C3559     1.0  0.62851  0.80114  0.67912  1.0000
  C   C3560     1.0  0.69553  0.72489  0.66311  1.0000
  C   C3561     1.0  0.90070  0.93702  0.51873  1.0000
  H   H2850     1.0  0.64283  0.72518  0.58654  1.0000
  S   S489      1.0  0.76087  0.73148  0.65512  1.0000
  C   C3562     1.0  0.88038  0.71318  0.64307  1.0000
  H   H2851     1.0  0.66151  0.79189  0.66708  1.0000
  C   C3563     1.0  0.70165  0.70676  0.67793  1.0000
  S   S490      1.0  0.66637  0.66720  0.67044  1.0000
  H   H2852     1.0  0.85185  0.72275  0.59712  1.0000
  C   C3564     1.0  0.82886  0.87518  0.54623  1.0000
  C   C3565     1.0  0.96689  0.96636  0.60456  1.0000
  C   C3566     1.0  0.94939  0.68683  0.64197  1.0000
  S   S491      1.0  0.70414  0.66250  0.61421  1.0000
  H   H2853     1.0  0.96940  0.91313  0.59239  1.0000
  C   C3567     1.0  0.91019  0.77861  0.62828  1.0000
  H   H2854     1.0  0.90254  0.79953  0.51681  1.0000
  H   H2855     1.0  0.71779  0.69805  0.67537  1.0000
  H   H2856     1.0  0.69151  0.68648  0.70789  1.0000
  H   H2857     1.0  0.70711  0.73036  0.64958  1.0000
  H   H2858     1.0  0.63081  0.81230  0.68693  1.0000
  C   C3568     1.0  0.79744  0.77726  0.73433  1.0000
  C   C3569     1.0  0.88721  0.95709  0.54625  1.0000
  H   H2859     1.0  0.64024  0.77722  0.61354  1.0000
  H   H2860     1.0  0.68299  0.77635  0.60119  1.0000
  H   H2861     1.0  0.81832  0.79207  0.62584  1.0000
  C   C3570     1.0  0.89801  0.95564  0.52580  1.0000
  C   C3571     1.0  0.73335  0.66004  0.70596  1.0000
  C   C3572     1.0  0.87852  0.94023  0.55960  1.0000
  C   C3573     1.0  0.88056  0.92192  0.55247  1.0000
  C   C3574     1.0  0.89150  0.92035  0.53203  1.0000
  H   H2862     1.0  0.88569  0.97129  0.55178  1.0000
  C   C3575     1.0  0.94675  0.95016  0.49862  1.0000
  H   H2863     1.0  0.65445  0.70509  0.71195  1.0000
  H   H2864     1.0  0.83010  0.88740  0.55332  1.0000
  H   H2865     1.0  0.87042  0.94128  0.57554  1.0000
  H   H2866     1.0  0.87385  0.90886  0.56289  1.0000
  H   H2867     1.0  0.89276  0.90619  0.52662  1.0000
  H   H2868     1.0  0.95281  0.67027  0.64142  1.0000
  H   H2869     1.0  0.81180  0.70951  0.68759  1.0000
  H   H2870     1.0  0.90553  0.76418  0.51033  1.0000
  H   H2871     1.0  0.97364  0.97815  0.59214  1.0000
  C   C3576     1.0  0.86404  0.70273  0.64542  1.0000
  H   H2872     1.0  0.70795  0.69820  0.58046  1.0000
  H   H2873     1.0  0.93739  0.96883  0.57383  1.0000
  C   C3577     1.0  0.98652  0.88444  0.58281  1.0000
  S   S492      1.0  0.96427  0.80092  0.60915  1.0000
  H   H2874     1.0  0.82626  0.82327  0.55900  1.0000
  H   H2875     1.0  0.75866  0.78458  0.57177  1.0000
  P   P116      1.0  0.90791  0.74035  0.62096  1.0000
  H   H2876     1.0  0.94280  0.94213  0.51496  1.0000
  C   C3578     1.0  0.57601  0.65722  0.64473  1.0000
  H   H2877     1.0  0.78785  0.78308  0.70472  1.0000
  C   C3579     1.0  0.83957  0.97301  0.70503  1.0000
  C   C3580     1.0  0.87637  0.73027  0.60739  1.0000
  C   C3581     1.0  0.81487  0.68827  0.71746  1.0000
  C   C3582     1.0  0.82815  0.87962  0.52493  1.0000
  H   H2878     1.0  0.78024  0.83599  0.52421  1.0000
  H   H2879     1.0  0.83942  0.77892  0.50907  1.0000
  H   H2880     1.0  0.92605  0.77645  0.61877  1.0000
  C   C3583     1.0  0.93324  0.70089  0.63271  1.0000
  C   C3584     1.0  0.73178  0.70550  0.62401  1.0000
  H   H2881     1.0  0.85257  0.78901  0.65986  1.0000
  H   H2882     1.0  0.96593  0.76726  0.58226  1.0000
  H   H2883     1.0  0.77770  0.70053  0.60506  1.0000
  Fe  Fe246     1.0  0.76533  0.74327  0.62019  1.0000
  C   C3585     1.0  0.76714  0.81140  0.54769  1.0000
  C   C3586     1.0  0.73210  0.72059  0.60503  1.0000
  Fe  Fe247     1.0  0.63485  0.66520  0.66605  1.0000
  H   H2884     1.0  0.97366  0.68323  0.65906  1.0000
  H   H2885     1.0  0.95497  0.86344  0.51343  1.0000
  C   C3587     1.0  0.77732  0.66968  0.62514  1.0000
  C   C3588     1.0  0.88685  0.72684  0.62391  1.0000
  H   H2886     1.0  0.95096  0.79593  0.55510  1.0000
  H   H2887     1.0  0.81509  0.70053  0.72501  1.0000
  C   C3589     1.0  0.71363  0.68539  0.61181  1.0000
  C   C3590     1.0  0.83320  0.97246  0.68705  1.0000
  H   H2888     1.0  0.76280  0.66477  0.70949  1.0000
  C   C3591     1.0  0.89605  0.85548  0.50955  1.0000
  H   H2889     1.0  0.73417  0.70429  0.69771  1.0000
  Fe  Fe248     1.0  0.79568  0.71761  0.64820  1.0000
  H   H2890     1.0  0.97165  0.96183  0.50377  1.0000
  C   C3592     1.0  0.81236  0.67750  0.68671  1.0000
  S   S493      1.0  0.74391  0.74264  0.59962  1.0000
  C   C3593     1.0  0.81301  0.69335  0.69632  1.0000
  C   C3594     1.0  0.64599  0.78947  0.66772  1.0000
  H   H2891     1.0  0.73247  0.80288  0.60687  1.0000
  C   C3595     1.0  0.62288  0.77113  0.66030  1.0000
  H   H2892     1.0  0.67665  0.71537  0.63523  1.0000
  C   C3596     1.0  0.64333  0.77440  0.65813  1.0000
  C   C3597     1.0  0.60543  0.78300  0.67153  1.0000
  C   C3598     1.0  0.97716  0.94504  0.60747  1.0000
  H   H2893     1.0  0.98868  0.78502  0.49771  1.0000
  C   C3599     1.0  0.86915  0.80896  0.51750  1.0000
  H   H2894     1.0  0.58051  0.66991  0.64865  1.0000
  C   C3600     1.0  0.96778  0.78981  0.55273  1.0000
  H   H2895     1.0  0.92320  0.96261  0.64354  1.0000
  C   C3601     1.0  0.70785  0.79069  0.60176  1.0000
  C   C3602     1.0  0.81422  0.65656  0.69804  1.0000
  C   C3603     1.0  0.55775  0.65936  0.70125  1.0000
  C   C3604     1.0  0.86883  0.78584  0.65150  1.0000
  C   C3605     1.0  0.94755  0.97264  0.61761  1.0000
  C   C3606     1.0  0.64015  0.75274  0.59853  1.0000
  C   C3607     1.0  0.64735  0.73144  0.59758  1.0000
  C   C3608     1.0  0.66047  0.71814  0.61090  1.0000
  C   C3609     1.0  0.66635  0.72606  0.62524  1.0000
  C   C3610     1.0  0.65887  0.74735  0.62658  1.0000
  C   C3611     1.0  0.64593  0.76070  0.61293  1.0000
  P   P117      1.0  0.66604  0.75764  0.64537  1.0000
  C   C3612     1.0  0.67441  0.73560  0.66550  1.0000
  C   C3613     1.0  0.68719  0.77186  0.63301  1.0000
  C   C3614     1.0  0.69942  0.77545  0.64529  1.0000
  C   C3615     1.0  0.71555  0.78676  0.63588  1.0000
  C   C3616     1.0  0.71973  0.79443  0.61414  1.0000
  H   H2896     1.0  0.82847  0.85146  0.57499  1.0000
  H   H2897     1.0  0.72202  0.67646  0.64217  1.0000
  C   C3617     1.0  0.80480  0.80952  0.53354  1.0000
  C   C3618     1.0  0.96855  0.93037  0.62459  1.0000
  H   H2898     1.0  0.73908  0.70714  0.63587  1.0000
  C   C3619     1.0  0.98628  0.90720  0.51124  1.0000
  C   C3620     1.0  0.94052  0.72955  0.64343  1.0000
  H   H2899     1.0  0.97440  0.95989  0.56160  1.0000
  H   H2900     1.0  0.77447  0.71981  0.72850  1.0000
  S   S494      1.0  0.60468  0.69003  0.66660  1.0000
  H   H2901     1.0  0.62671  0.69653  0.69575  1.0000
  P   P118      1.0  0.82616  0.82170  0.51647  1.0000
  H   H2902     1.0  0.90800  0.79019  0.55247  1.0000
  C   C3621     1.0  0.80896  0.78997  0.54753  1.0000
  H   H2903     1.0  0.90420  0.96911  0.51558  1.0000
  H   H2904     1.0  0.87489  0.81545  0.65279  1.0000
  H   H2905     1.0  0.86657  0.75639  0.64660  1.0000
  C   C3622     1.0  0.90212  0.79703  0.63609  1.0000
  C   C3623     1.0  0.93853  0.95776  0.63393  1.0000
  H   H2906     1.0  0.87390  0.75390  0.50641  1.0000
  H   H2907     1.0  0.72505  0.84135  0.70795  1.0000
  H   H2908     1.0  0.93916  0.76855  0.53339  1.0000
  C   C3624     1.0  0.85114  0.80321  0.51551  1.0000
  C   C3625     1.0  0.89772  0.76347  0.63227  1.0000
  H   H2909     1.0  0.88778  0.71080  0.65626  1.0000
  H   H2910     1.0  0.54489  0.70909  0.72473  1.0000
  P   P119      1.0  0.91415  0.93551  0.49213  1.0000
  C   C3626     1.0  0.98937  0.96478  0.55541  1.0000
  C   C3627     1.0  0.91568  0.77510  0.56069  1.0000
  H   H2911     1.0  0.72431  0.66561  0.71994  1.0000
  C   C3628     1.0  0.94911  0.93666  0.63755  1.0000
  H   H2912     1.0  0.91176  0.80875  0.63269  1.0000
  C   C3629     1.0  0.82660  0.84311  0.52780  1.0000
  C   C3630     1.0  0.73601  0.81892  0.73425  1.0000
  C   C3631     1.0  0.93321  0.76287  0.55000  1.0000
  C   C3632     1.0  0.98101  0.79865  0.53464  1.0000
  C   C3633     1.0  0.55824  0.67545  0.72940  1.0000
  H   H2913     1.0  0.97451  0.89745  0.51782  1.0000
  H   H2914     1.0  0.78677  0.68785  0.57209  1.0000
  C   C3634     1.0  0.88140  0.80072  0.64756  1.0000
  C   C3635     1.0  0.78013  0.68383  0.60569  1.0000
  S   S495      1.0  0.89924  0.97585  0.60447  1.0000
  C   C3636     1.0  0.92861  0.72238  0.63340  1.0000
  C   C3637     1.0  0.78376  0.82043  0.53413  1.0000
  C   C3638     1.0  0.82696  0.86369  0.51572  1.0000
  H   H2915     1.0  0.89476  0.77793  0.59027  1.0000
  H   H2916     1.0  0.84141  0.69789  0.63047  1.0000
  C   C3639     1.0  0.93597  0.73680  0.58249  1.0000
  C   C3640     1.0  0.96333  0.96104  0.49229  1.0000
  C   C3641     1.0  0.82801  0.85489  0.55843  1.0000
  H   H2917     1.0  0.54784  0.67671  0.63479  1.0000
  C   C3642     1.0  0.82684  0.83894  0.54929  1.0000
  H   H2918     1.0  0.97244  0.87800  0.58594  1.0000
  H   H2919     1.0  0.94214  0.92515  0.65025  1.0000
  C   C3643     1.0  0.90832  0.76825  0.58221  1.0000
  H   H2920     1.0  0.97667  0.91400  0.62768  1.0000
  H   H2921     1.0  0.88025  0.74140  0.59277  1.0000
  H   H2922     1.0  0.85066  0.95973  0.71189  1.0000
  H   H2923     1.0  0.54389  0.68019  0.67578  1.0000
  C   C3644     1.0  0.94336  0.74371  0.56090  1.0000
  H   H2924     1.0  0.95711  0.73435  0.55265  1.0000
  H   H2925     1.0  0.92441  0.69501  0.62492  1.0000
  S   S496      1.0  0.66068  0.80650  0.71494  1.0000
  C   C3645     1.0  0.85307  0.78343  0.51108  1.0000
  S   S497      1.0  0.58186  0.75873  0.72203  1.0000
  H   H2926     1.0  0.60253  0.65896  0.72179  1.0000
  C   C3646     1.0  0.94802  0.87478  0.50106  1.0000
  C   C3647     1.0  0.56297  0.65766  0.72049  1.0000
  C   C3648     1.0  0.60792  0.66456  0.73268  1.0000
  C   C3649     1.0  0.54279  0.69651  0.69960  1.0000
  H   H2927     1.0  0.74848  0.80978  0.72444  1.0000
  C   C3650     1.0  0.89037  0.77504  0.51166  1.0000
  C   C3651     1.0  0.93649  0.89460  0.50441  1.0000
  H   H2928     1.0  0.82884  0.89535  0.51544  1.0000
  H   H2929     1.0  0.96584  0.72116  0.66024  1.0000
  H   H2930     1.0  0.86997  0.87958  0.50001  1.0000
  H   H2931     1.0  0.82648  0.86767  0.49922  1.0000
  C   C3652     1.0  0.54823  0.69494  0.71870  1.0000
  C   C3653     1.0  0.88346  0.86776  0.49517  1.0000
  C   C3654     1.0  0.75610  0.71117  0.71169  1.0000
  C   C3655     1.0  0.72273  0.83667  0.72492  1.0000
  C   C3656     1.0  0.81552  0.66748  0.72906  1.0000
  C   C3657     1.0  0.75866  0.71963  0.72743  1.0000
  H   H2932     1.0  0.64040  0.65715  0.71697  1.0000
  H   H2933     1.0  0.49787  0.95863  0.72231  1.0000
  H   H2934     1.0  0.70260  0.71725  0.72341  1.0000
  H   H2935     1.0  0.81001  0.78606  0.72782  1.0000
  H   H2936     1.0  0.98497  0.91417  0.54095  1.0000
  C   C3658     1.0  0.75502  0.65955  0.70013  1.0000
  C   C3659     1.0  0.92709  0.90917  0.48857  1.0000
  C   C3660     1.0  0.71824  0.71797  0.72453  1.0000
  Fe  Fe249     1.0  0.64406  0.78052  0.73456  1.0000
  H   H2937     1.0  0.97833  0.98798  0.52947  1.0000
  H   H2938     1.0  0.54658  0.95502  0.89844  1.0000
  C   C3661     1.0  0.54369  0.82727  0.91555  1.0000
  Fe  Fe250     1.0  0.57579  0.87865  0.86881  1.0000
  S   S498      1.0  0.59867  0.86940  0.84035  1.0000
  S   S499      1.0  0.54031  0.88551  0.87439  1.0000
  Fe  Fe251     1.0  0.61008  0.88132  0.88922  1.0000
  S   S500      1.0  0.63613  0.87184  0.86293  1.0000
  S   S501      1.0  0.61378  0.89323  0.91585  1.0000
  Fe  Fe252     1.0  0.61537  0.89392  0.84172  1.0000
  S   S502      1.0  0.63084  0.91440  0.81244  1.0000
  Fe  Fe253     1.0  0.61755  0.84804  0.86379  1.0000
  S   S503      1.0  0.63513  0.81553  0.85933  1.0000
  S   S504      1.0  0.59060  0.90533  0.86791  1.0000
  S   S505      1.0  0.59333  0.85543  0.89238  1.0000
  Fe  Fe254     1.0  0.64638  0.73442  0.75442  1.0000
  S   S506      1.0  0.66684  0.70262  0.75250  1.0000
  C   C3662     1.0  0.68316  0.68860  0.77024  1.0000
  C   C3663     1.0  0.68143  0.69421  0.78927  1.0000
  C   C3664     1.0  0.55264  0.87414  0.76072  1.0000
  C   C3665     1.0  0.64045  0.93810  0.89646  1.0000
  H   H2939     1.0  0.58186  0.84059  0.95037  1.0000
  C   C3666     1.0  0.71657  0.82444  0.76874  1.0000
  H   H2940     1.0  0.67027  0.70818  0.79306  1.0000
  C   C3667     1.0  0.50596  0.87083  0.87477  1.0000
  H   H2941     1.0  0.56973  0.82406  0.88934  1.0000
  C   C3668     1.0  0.63490  0.93773  0.81661  1.0000
  C   C3669     1.0  0.62134  0.94761  0.83239  1.0000
  H   H2942     1.0  0.60810  0.94099  0.84225  1.0000
  C   C3670     1.0  0.62411  0.80483  0.84461  1.0000
  C   C3671     1.0  0.60227  0.80928  0.84604  1.0000
  C   C3672     1.0  0.59362  0.80044  0.83441  1.0000
  C   C3673     1.0  0.63729  0.79162  0.83141  1.0000
  H   H2943     1.0  0.59205  0.81937  0.85626  1.0000
  H   H2944     1.0  0.57665  0.80348  0.83602  1.0000
  H   H2945     1.0  0.65416  0.78807  0.83043  1.0000
  H   H2946     1.0  0.64303  0.89088  0.77594  1.0000
  C   C3674     1.0  0.70960  0.77165  0.75550  1.0000
  C   C3675     1.0  0.61662  0.88205  0.95692  1.0000
  C   C3676     1.0  0.61932  0.87478  0.93862  1.0000
  C   C3677     1.0  0.62651  0.85323  0.93881  1.0000
  C   C3678     1.0  0.63103  0.83901  0.95740  1.0000
  P   P120      1.0  0.74449  0.73918  0.76141  1.0000
  H   H2947     1.0  0.61135  0.89873  0.95680  1.0000
  H   H2948     1.0  0.62875  0.84757  0.92465  1.0000
  H   H2949     1.0  0.63668  0.82236  0.95757  1.0000
  C   C3679     1.0  0.63727  0.67075  0.74330  1.0000
  C   C3680     1.0  0.52799  0.86795  0.86910  1.0000
  C   C3681     1.0  0.53966  0.85092  0.86001  1.0000
  C   C3682     1.0  0.60680  0.78774  0.82072  1.0000
  H   H2950     1.0  0.55669  0.84870  0.85546  1.0000
  C   C3683     1.0  0.57624  0.84710  0.96437  1.0000
  C   C3684     1.0  0.67682  0.88434  0.76363  1.0000
  H   H2951     1.0  0.49686  0.88412  0.88150  1.0000
  C   C3685     1.0  0.63860  0.82829  0.76349  1.0000
  H   H2952     1.0  0.72020  0.94200  0.96265  1.0000
  H   H2953     1.0  0.51965  0.78110  0.86585  1.0000
  H   H2954     1.0  0.60946  0.82128  0.78337  1.0000
  C   C3686     1.0  0.71009  0.65786  0.77951  1.0000
  H   H2955     1.0  0.53834  0.94206  0.76655  1.0000
  H   H2956     1.0  0.50157  0.92332  0.87504  1.0000
  C   C3687     1.0  0.50765  0.89425  0.80903  1.0000
  C   C3688     1.0  0.50443  0.83125  0.97608  1.0000
  H   H2957     1.0  0.71440  0.81927  0.78563  1.0000
  H   H2958     1.0  0.61395  0.97404  0.84727  1.0000
  C   C3689     1.0  0.50389  0.96886  0.83762  1.0000
  C   C3690     1.0  0.52237  0.70987  0.79189  1.0000
  C   C3691     1.0  0.67143  0.92816  0.74774  1.0000
  C   C3692     1.0  0.58464  0.70547  0.81511  1.0000
  C   C3693     1.0  0.49688  0.95049  0.84985  1.0000
  H   H2959     1.0  0.66873  0.97191  0.79712  1.0000
  H   H2960     1.0  0.54864  0.74758  0.75964  1.0000
  H   H2961     1.0  0.58672  0.93102  0.81927  1.0000
  H   H2962     1.0  0.53342  0.79226  0.89062  1.0000
  C   C3694     1.0  0.65778  0.96405  0.91067  1.0000
  C   C3695     1.0  0.64901  0.94761  0.92519  1.0000
  C   C3696     1.0  0.63982  0.93504  0.91795  1.0000
  P   P121      1.0  0.64902  0.94293  0.95293  1.0000
  C   C3697     1.0  0.65499  0.91488  0.96411  1.0000
  C   C3698     1.0  0.54084  0.77490  0.81175  1.0000
  H   H2963     1.0  0.52870  0.86739  0.92926  1.0000
  C   C3699     1.0  0.53940  0.80702  0.77520  1.0000
  C   C3700     1.0  0.62465  0.96642  0.83522  1.0000
  C   C3701     1.0  0.49900  0.85708  0.93618  1.0000
  H   H2964     1.0  0.57193  0.91119  0.77026  1.0000
  H   H2965     1.0  0.74324  0.79897  0.76334  1.0000
  H   H2966     1.0  0.59610  0.92499  0.78307  1.0000
  S   S507      1.0  0.59536  0.77777  0.80572  1.0000
  C   C3702     1.0  0.66655  0.90055  0.95132  1.0000
  C   C3703     1.0  0.62393  0.95518  0.96699  1.0000
  C   C3704     1.0  0.60590  0.96132  0.95812  1.0000
  H   H2967     1.0  0.52197  0.82765  0.79622  1.0000
  H   H2968     1.0  0.49895  0.92540  0.81597  1.0000
  C   C3705     1.0  0.52736  0.93778  0.76002  1.0000
  Fe  Fe255     1.0  0.61574  0.76721  0.77660  1.0000
  H   H2969     1.0  0.64881  0.66708  0.80112  1.0000
  H   H2970     1.0  0.63231  0.92273  0.92886  1.0000
  C   C3706     1.0  0.86833  0.67791  0.91565  1.0000
  C   C3707     1.0  0.55791  0.87659  0.98105  1.0000
  C   C3708     1.0  0.50447  0.89066  0.97879  1.0000
  C   C3709     1.0  0.55281  0.72844  0.82994  1.0000
  C   C3710     1.0  0.54405  0.91185  0.82026  1.0000
  H   H2971     1.0  0.49190  0.96367  0.78273  1.0000
  H   H2972     1.0  0.67161  0.90593  0.93455  1.0000
  H   H2973     1.0  0.60652  0.95854  0.94287  1.0000
  C   C3711     1.0  0.53172  0.97405  0.79102  1.0000
  C   C3712     1.0  0.77755  0.75598  0.76401  1.0000
  H   H2974     1.0  0.53321  0.83797  0.90576  1.0000
  H   H2975     1.0  0.79361  0.67865  0.79460  1.0000
  H   H2976     1.0  0.52325  0.79970  0.82823  1.0000
  H   H2977     1.0  0.54968  0.85898  0.81376  1.0000
  H   H2978     1.0  0.71012  0.88390  0.75070  1.0000
  H   H2979     1.0  0.57629  0.90947  0.94557  1.0000
  C   C3713     1.0  0.64993  0.95393  0.88208  1.0000
  H   H2980     1.0  0.69255  0.68535  0.81842  1.0000
  H   H2981     1.0  0.59478  0.75511  0.87122  1.0000
  C   C3714     1.0  0.56760  0.91392  0.78609  1.0000
  C   C3715     1.0  0.57822  0.76031  0.87039  1.0000
  H   H2982     1.0  0.64048  0.85638  0.80612  1.0000
  C   C3716     1.0  0.73550  0.70926  0.79838  1.0000
  H   H2983     1.0  0.86062  0.68561  0.90248  1.0000
  H   H2984     1.0  0.54782  0.96667  0.94368  1.0000
  C   C3717     1.0  0.56438  0.81929  0.90617  1.0000
  H   H2985     1.0  0.58040  0.82340  0.76614  1.0000
  C   C3718     1.0  0.64013  0.84871  0.79398  1.0000
  H   H2986     1.0  0.57049  0.82577  0.80345  1.0000
  C   C3719     1.0  0.54675  0.87548  0.78198  1.0000
  C   C3720     1.0  0.56198  0.91896  0.94060  1.0000
  C   C3721     1.0  0.49435  0.91043  0.81867  1.0000
  H   H2987     1.0  0.50921  0.70796  0.80509  1.0000
  C   C3722     1.0  0.65832  0.96710  0.88920  1.0000
  C   C3723     1.0  0.52131  0.91816  0.76799  1.0000
  C   C3724     1.0  0.54376  0.78135  0.88121  1.0000
  H   H2988     1.0  0.77475  0.74856  0.78057  1.0000
  C   C3725     1.0  0.59372  0.67311  0.74910  1.0000
  C   C3726     1.0  0.51895  0.95230  0.74359  1.0000
  C   C3727     1.0  0.56484  0.85543  0.75501  1.0000
  H   H2989     1.0  0.51409  0.90431  0.91394  1.0000
  C   C3728     1.0  0.57615  0.92502  0.81365  1.0000
  H   H2990     1.0  0.88643  0.68951  0.95306  1.0000
  C   C3729     1.0  0.52400  0.93148  0.94760  1.0000
  C   C3730     1.0  0.55281  0.69177  0.83138  1.0000
  H   H2991     1.0  0.57881  0.93221  0.91000  1.0000
  C   C3731     1.0  0.69395  0.68128  0.80359  1.0000
  H   H2992     1.0  0.63893  0.77345  0.80879  1.0000
  H   H2993     1.0  0.50866  0.93209  0.95809  1.0000
  H   H2994     1.0  0.51559  0.73773  0.87720  1.0000
  C   C3732     1.0  0.52452  0.94254  0.86954  1.0000
  C   C3733     1.0  0.49827  0.92786  0.74290  1.0000
  H   H2995     1.0  0.53454  0.96022  0.80343  1.0000
  H   H2996     1.0  0.56946  0.85437  0.73863  1.0000
  C   C3734     1.0  0.56429  0.86768  0.96320  1.0000
  C   C3735     1.0  0.62868  0.78336  0.81919  1.0000
  C   C3736     1.0  0.55369  0.85810  0.79732  1.0000
  C   C3737     1.0  0.57050  0.75405  0.85611  1.0000
  C   C3738     1.0  0.66576  0.87155  0.98180  1.0000
  H   H2997     1.0  0.66232  0.93918  0.79148  1.0000
  C   C3739     1.0  0.55627  0.71494  0.75786  1.0000
  C   C3740     1.0  0.54791  0.97743  0.77334  1.0000
  C   C3741     1.0  0.69150  0.78613  0.76210  1.0000
  C   C3742     1.0  0.68521  0.78746  0.78323  1.0000
  C   C3743     1.0  0.69749  0.77481  0.79765  1.0000
  C   C3744     1.0  0.71569  0.76038  0.79106  1.0000
  C   C3745     1.0  0.52172  0.97361  0.84131  1.0000
  C   C3746     1.0  0.52921  0.83663  0.85695  1.0000
  C   C3747     1.0  0.87368  0.65585  0.92103  1.0000
  C   C3748     1.0  0.53601  0.77507  0.86698  1.0000
  C   C3749     1.0  0.69431  0.89352  0.75268  1.0000
  C   C3750     1.0  0.65590  0.83735  0.76113  1.0000
  C   C3751     1.0  0.54527  0.94463  0.91387  1.0000
  C   C3752     1.0  0.65709  0.84712  0.77669  1.0000
  C   C3753     1.0  0.72142  0.75814  0.77008  1.0000
  C   C3754     1.0  0.50431  0.74486  0.86705  1.0000
  H   H2998     1.0  0.55835  0.75463  0.79006  1.0000
  C   C3755     1.0  0.57829  0.80558  0.91848  1.0000
  H   H2999     1.0  0.71900  0.71658  0.79881  1.0000
  P   P122      1.0  0.50920  0.83038  0.94874  1.0000
  H   H3000     1.0  0.57103  0.77910  0.89361  1.0000
  H   H3001     1.0  0.67086  0.79828  0.78843  1.0000
  H   H3002     1.0  0.69279  0.77606  0.81398  1.0000
  H   H3003     1.0  0.72515  0.75091  0.80238  1.0000
  C   C3756     1.0  0.56488  0.77398  0.88289  1.0000
  H   H3004     1.0  0.56937  0.71718  0.74468  1.0000
  H   H3005     1.0  0.76570  0.66653  0.82452  1.0000
  H   H3006     1.0  0.53824  0.82346  0.84992  1.0000
  H   H3007     1.0  0.62927  0.68548  0.76974  1.0000
  C   C3757     1.0  0.68390  0.83017  0.83690  1.0000
  C   C3758     1.0  0.68816  0.84632  0.84362  1.0000
  C   C3759     1.0  0.69047  0.86549  0.82953  1.0000
  C   C3760     1.0  0.68856  0.86852  0.80871  1.0000
  C   C3761     1.0  0.68419  0.85238  0.80185  1.0000
  C   C3762     1.0  0.68186  0.83317  0.81614  1.0000
  C   C3763     1.0  0.66510  0.97621  0.95573  1.0000
  C   C3764     1.0  0.54991  0.78644  0.77367  1.0000
  C   C3765     1.0  0.49619  0.76308  0.83295  1.0000
  H   H3008     1.0  0.60992  0.84076  0.80962  1.0000
  H   H3009     1.0  0.60107  0.70323  0.80701  1.0000
  H   H3010     1.0  0.53263  0.93213  0.88161  1.0000
  H   H3011     1.0  0.53887  0.81938  0.76111  1.0000
  C   C3766     1.0  0.66926  0.95454  0.95605  1.0000
  H   H3012     1.0  0.63347  0.92824  0.89094  1.0000
  C   C3767     1.0  0.57119  0.83803  0.77045  1.0000
  C   C3768     1.0  0.50378  0.89302  0.92019  1.0000
  C   C3769     1.0  0.55025  0.80672  0.94952  1.0000
  H   H3013     1.0  0.52362  0.96747  0.73759  1.0000
  C   C3770     1.0  0.56346  0.93190  0.92045  1.0000
  C   C3771     1.0  0.52028  0.83405  0.98466  1.0000
  H   H3014     1.0  0.56027  0.87654  0.94833  1.0000
  H   H3015     1.0  0.65029  0.95639  0.86546  1.0000
  C   C3772     1.0  0.62326  0.67944  0.75959  1.0000
  C   C3773     1.0  0.74092  0.72787  0.74151  1.0000
  H   H3016     1.0  0.68137  0.81559  0.84803  1.0000
  H   H3017     1.0  0.68902  0.84420  0.85990  1.0000
  H   H3018     1.0  0.69314  0.87823  0.83492  1.0000
  H   H3019     1.0  0.68989  0.88371  0.79830  1.0000
  H   H3020     1.0  0.67784  0.82072  0.81146  1.0000
  C   C3774     1.0  0.52993  0.81169  0.79493  1.0000
  C   C3775     1.0  0.57119  0.79921  0.94016  1.0000
  P   P123      1.0  0.53119  0.89942  0.78978  1.0000
  H   H3021     1.0  0.66933  0.94511  0.74197  1.0000
  C   C3776     1.0  0.50109  0.87510  0.81259  1.0000
  C   C3777     1.0  0.56561  0.83937  0.79156  1.0000
  S   S508      1.0  0.65111  0.76118  0.76566  1.0000
  H   H3022     1.0  0.59453  0.79991  0.91115  1.0000
  C   C3778     1.0  0.58692  0.97191  0.96862  1.0000
  C   C3779     1.0  0.49558  0.85643  0.87204  1.0000
  H   H3023     1.0  0.66401  0.97471  0.91579  1.0000
  C   C3780     1.0  0.54222  0.91834  0.95418  1.0000
  C   C3781     1.0  0.62226  0.82922  0.78112  1.0000
  C   C3782     1.0  0.70291  0.84213  0.75944  1.0000
  C   C3783     1.0  0.76533  0.75391  0.75090  1.0000
  H   H3024     1.0  0.51351  0.97068  0.96840  1.0000
  C   C3784     1.0  0.65178  0.94676  0.80367  1.0000
  C   C3785     1.0  0.70844  0.66317  0.79856  1.0000
  H   H3025     1.0  0.52581  0.71340  0.84374  1.0000
  C   C3786     1.0  0.65541  0.96525  0.80686  1.0000
  C   C3787     1.0  0.58128  0.92179  0.79318  1.0000
  C   C3788     1.0  0.68063  0.98549  0.95790  1.0000
  P   P124      1.0  0.56588  0.67318  0.75387  1.0000
  H   H3026     1.0  0.51169  0.89047  0.96248  1.0000
  H   H3027     1.0  0.58219  0.67350  0.81758  1.0000
  S   S509      1.0  0.61167  0.73841  0.76829  1.0000
  C   C3789     1.0  0.51208  0.87197  0.92868  1.0000
  C   C3790     1.0  0.55778  0.91973  0.82721  1.0000
  H   H3028     1.0  0.63803  0.82014  0.75187  1.0000
  C   C3791     1.0  0.50663  0.91334  0.75937  1.0000
  C   C3792     1.0  0.50715  0.83925  0.86322  1.0000
  H   H3029     1.0  0.68221  0.79609  0.75079  1.0000
  H   H3030     1.0  0.51154  0.95478  0.92236  1.0000
  C   C3793     1.0  0.53655  0.82135  0.93733  1.0000
  C   C3794     1.0  0.68927  0.94226  0.95849  1.0000
  H   H3031     1.0  0.55768  0.78289  0.75839  1.0000
  C   C3795     1.0  0.69158  0.91533  0.74462  1.0000
  H   H3032     1.0  0.53033  0.90722  0.83145  1.0000
  C   C3796     1.0  0.53842  0.98226  0.94466  1.0000
  P   P125      1.0  0.68057  0.85641  0.77530  1.0000
  H   H3033     1.0  0.63851  0.92915  0.76207  1.0000
  C   C3797     1.0  0.73302  0.81286  0.75615  1.0000
  H   H3034     1.0  0.66485  0.97992  0.87806  1.0000
  C   C3798     1.0  0.58150  0.83517  0.98343  1.0000
  H   H3035     1.0  0.70684  0.73164  0.75168  1.0000
  H   H3036     1.0  0.49099  0.79410  0.97640  1.0000
  C   C3799     1.0  0.67163  0.87895  0.96013  1.0000
  H   H3037     1.0  0.67982  0.86788  0.95013  1.0000
  S   S510      1.0  0.49427  0.82105  0.85978  1.0000
  H   H3038     1.0  0.54453  0.67884  0.83592  1.0000
  P   P126      1.0  0.54071  0.90222  0.98047  1.0000
  C   C3800     1.0  0.54857  0.90945  0.79942  1.0000
  C   C3801     1.0  0.54458  0.73222  0.76646  1.0000
  H   H3039     1.0  0.64986  0.98596  0.95354  1.0000
  C   C3802     1.0  0.79362  0.76756  0.75570  1.0000
  H   H3040     1.0  0.58142  0.74399  0.84632  1.0000
  C   C3803     1.0  0.64190  0.97510  0.82269  1.0000
  C   C3804     1.0  0.54928  0.76140  0.85420  1.0000
  H   H3041     1.0  0.51133  0.98517  0.88610  1.0000
  C   C3805     1.0  0.53197  0.96049  0.85717  1.0000
  C   C3806     1.0  0.88287  0.68010  0.94413  1.0000
  C   C3807     1.0  0.62274  0.83989  0.79607  1.0000
  H   H3042     1.0  0.55451  0.92116  0.84338  1.0000
  Fe  Fe256     1.0  0.60784  0.75947  0.73713  1.0000
  C   C3808     1.0  0.75134  0.71696  0.78210  1.0000
  C   C3809     1.0  0.55044  0.77040  0.79182  1.0000
  C   C3810     1.0  0.52769  0.72970  0.78354  1.0000
  H   H3043     1.0  0.71428  0.77091  0.73904  1.0000
  C   C3811     1.0  0.77230  0.70559  0.78066  1.0000
  C   C3812     1.0  0.51116  0.75411  0.84582  1.0000
  H   H3044     1.0  0.56305  0.96650  0.77250  1.0000
  C   C3813     1.0  0.53084  0.79578  0.81312  1.0000
  C   C3814     1.0  0.70048  0.97316  0.96044  1.0000
  C   C3815     1.0  0.54224  0.71149  0.83583  1.0000
  H   H3045     1.0  0.80324  0.76886  0.76578  1.0000
  H   H3046     1.0  0.54482  0.80099  0.96619  1.0000
  C   C3816     1.0  0.50708  0.93749  0.86576  1.0000
  C   C3817     1.0  0.76179  0.68073  0.81283  1.0000
  H   H3047     1.0  0.52938  0.67744  0.78972  1.0000
  H   H3048     1.0  0.69296  0.92555  0.95864  1.0000
  C   C3818     1.0  0.57400  0.68876  0.82104  1.0000
  P   P127      1.0  0.53899  0.75415  0.83530  1.0000
  C   C3819     1.0  0.87288  0.69003  0.92721  1.0000
  C   C3820     1.0  0.52553  0.94444  0.92741  1.0000
  H   H3049     1.0  0.49875  0.82627  0.91104  1.0000
  H   H3050     1.0  0.59100  0.68729  0.77528  1.0000
  S   S511      1.0  0.81560  0.66128  0.75597  1.0000
  C   C3821     1.0  0.57411  0.72520  0.81948  1.0000
  C   C3822     1.0  0.53389  0.69257  0.78310  1.0000
  C   C3823     1.0  0.49317  0.81407  0.92392  1.0000
  H   H3051     1.0  0.51074  0.86239  0.80526  1.0000
  H   H3052     1.0  0.58254  0.73806  0.81432  1.0000
  C   C3824     1.0  0.70480  0.95156  0.96074  1.0000
  H   H3053     1.0  0.51870  0.74314  0.79022  1.0000
  C   C3825     1.0  0.69744  0.67046  0.76546  1.0000
  C   C3826     1.0  0.60157  0.68057  0.76254  1.0000
  C   C3827     1.0  0.74081  0.69153  0.81396  1.0000
  C   C3828     1.0  0.55091  0.69504  0.76592  1.0000
  C   C3829     1.0  0.77750  0.68763  0.79607  1.0000
  C   C3830     1.0  0.65666  0.89735  0.76675  1.0000
  P   P128      1.0  0.49170  0.98490  0.81592  1.0000
  H   H3054     1.0  0.86867  0.70712  0.92302  1.0000
  H   H3055     1.0  0.78459  0.71017  0.76736  1.0000
  H   H3056     1.0  0.65412  0.66988  0.74084  1.0000
  H   H3057     1.0  0.72855  0.68552  0.82642  1.0000
  C   C3831     1.0  0.72071  0.72637  0.74039  1.0000
  H   H3058     1.0  0.50093  0.77017  0.81650  1.0000
  H   H3059     1.0  0.66846  0.83607  0.74743  1.0000
  C   C3832     1.0  0.65401  0.91917  0.75884  1.0000
  H   H3060     1.0  0.54568  0.96434  0.85989  1.0000
  H   H3061     1.0  0.57326  0.97721  0.96147  1.0000
  H   H3062     1.0  0.52801  0.98724  0.83174  1.0000
  H   H3063     1.0  0.69845  0.66589  0.75098  1.0000
  H   H3064     1.0  0.54804  0.88749  0.74851  1.0000
  C   C3833     1.0  0.62792  0.84630  0.97586  1.0000
  C   C3834     1.0  0.88828  0.65804  0.94955  1.0000
  S   S512      1.0  0.60905  0.78872  0.74633  1.0000
  H   H3065     1.0  0.71254  0.98037  0.96209  1.0000
  H   H3066     1.0  0.58189  0.78836  0.94968  1.0000
  H   H3067     1.0  0.70514  0.92232  0.73629  1.0000
  C   C3835     1.0  0.49545  0.81262  0.94439  1.0000
  H   H3068     1.0  0.53564  0.83582  0.97504  1.0000
  C   C3836     1.0  0.62067  0.86784  0.97549  1.0000
  C   C3837     1.0  0.51895  0.98466  0.95871  1.0000
  H   H3069     1.0  0.72399  0.98317  0.78722  1.0000
  H   H3070     1.0  0.50160  0.89835  0.76544  1.0000
  C   C3838     1.0  0.70616  0.84814  0.73741  1.0000
  H   H3071     1.0  0.70551  0.98613  0.75879  1.0000
  H   H3072     1.0  0.59139  0.81951  0.98421  1.0000
  C   C3839     1.0  0.51237  0.98864  0.79273  1.0000
  C   C3840     1.0  0.64919  0.90726  0.98588  1.0000
