data_image0
_chemical_formula_structural       PHSCFeSCSCFeS2FeS2FeSFeS3FeCSCFeSC3HCHCHC7H4CSCH3C9H4C4H3CHC4H4C2H2C4PC14H4CH14CH2CHC6PC13HC2H14CH3CFeH3C2H2SHC4H6CHCHC5H3C2H2C2H2CH2CHCPC3SCHFeC3HCPCHCHC2HFeSHCHCHC3H3C2HCFeCSFeSCSCFeS2FeS2FeSFeS3FeHS2H2CHSHPCHC10H4C6H4C3H3C2PC4HC2H3C2H2CHCH2C4HC9HC3H5CH4C2H2CH3C3HC2H2PC3H3C3HC2HCH2C4HCH3C3HCH2C5H2C3H6C2HC2HCH3CH3CHC2HFeH2C3HCPH3C9HC2H3C2HC2H5CHCHC3H3CHC4H2SHCH2CHCHCH2C2HCPCFeS2FeS2FeSFeS3FeSH2C4H2C6HSH2C6H4C2HC6PC18H24C4H2C3HC3HC2H2C3HCHC2HC2H3C2HC7PSH2CH3C2SCH7CHCH2C2HCH3CHC2HC5H3C2H2C2HCPHFeS2FeS2FeSFeS3CS2C6H4C6H4C2HPH2CHFeCH3CHC2HC2H2C2H4C3HCH2CHC2H2CPC2H2C4H2CHCH2C3HC5HC3HC2HC2H4C3H3C3SCHC2HCHCHCHCH2C2H3FeC2HC2HCH3C2PH2CHC4H2CHCSC2HC2HC2H2SCHC3H2C2H2CH2CHC2H3FeSHFeS2FeS2FeSFeS3FeS2FeSFeSFeS3HCH2C3HCHC6H7CH3C4H2C6H4CPCH5CHC3HCHCH2CH4CHSCHC2H5C2H4C4HC3H2C4PC2HCHC4H4CH2C2HCH3C2HC3H2C5HC4H2C2HC2HC3HC4H2C4HC4PCH2CHC10PC6H2CHC3HCHCHC3SHCH2CHC2HCH2SH2CHC3FeHSHCHCFeS2FeS2FeSFeS3FeS2FeS2Fe2S3C2H2C3HC6H6C2H3CHC7H4C3HCHC2HCHC3PC8SC11H4CH2CH2C2HC7PC18H16CH4C5H2SC7H2C2HCH3CH3C2H2CH2CH2CHC3HPCH3C2HC2HPCH2CH3CHC4H2CHCH3C6H3C2H6C2HCH3C2HCHCH3CHCH2C2H3PHCHC2H2CHCSHFeS2FeS2FeSFeS3FeHSFeSHCSPC3HCHCH2C7H6CH3C6H4C3H4C3HC4HC2SHC2HCH4CH3C2FeHCHC3FeHCH2C2H4C5HC3H2CPC10H8C3H2C2HCH2C4SHCH2C3H2CH2CHC2HC2H3C4SC2HSC2SC3H2CHC3H2CH3C2H3C3HC3H3C3H2CHCH2C4HCH3C3HCH2C2HCHCH2CHC4HC2PHSFeS2FeS2FeSFeS3FeCSFeSC3S2C2PC2HC2PHCHC6H4C6H4C3H3C2H4CH6FeHCH2CHC9HSC2H2CHC2H3C2HC2HC7HCH3C3HSC3H7CH2CHC4H2SCH2CHC6PC2HC2HC8HC2H5CFeH2CH4CH2C4HC3HC2HCH3CH2CHC2H4CHPHC3HCHC2H2CPCH2C3H2CH2FeS2FeS2FeSFeS3H2FeSCHC4H2C3HCH2C6H4C6H6CHCHPC19H4CHCH7C2HCH2CHCHCPC3HC2HC4HC2HC3H2C4H6C2HCHCH2C2HCH3CH2CHSCHC6H2C3H4C2HCH4C3HCPC2HC2HCH2CSC3HPCH2FeS2FeS2FeSFeS3CS2C2H2CH2C6H4C6H6C3HC2HC2SH3C6H2CHPHC3H3C3H2CHPHC4HCHC3H2CHC3H3CH4C2H2C3H3C2HC9PC2HC3HC7HCH2C2H2CH2C2H5C4H2SH2C2SCHC2HCHC2H4CFeC3H2CH3CHCHC3HCFeH2C3HCH4C3HC3HFeHSHCSFeS2FeS2FeSFeS3FeSCFeSFeSFeS3C2H2CFeH3C7H4CHC2HC2HFeC2HCHC7H4CHCHCHC7HCH3CH2C6H2C2H4PH2CHCHSCH3CHC2HC2HC4SHCHC2HCH2CHC2HCH3CHCH2CPC6PC18H20C3H2C2HC2PC4HCSHCHC3HCSCHCH2C5HCH3C2HCHCHSFeSFeS2FeS2FeSFeS3FeS2FeS2FeSHS2C4H2C4H2C6H5CH2C7H4C3HC2HFeHCHCH4C2H4CHC6PC9H2C7H6CH4C2FeCH5C5HPC8PHC3HC3PH13CH4C3HC2HCSC3HCHC3H2CHFeC3SHC4H3C2HCH3C2HC4H3CHCH2CH6SC2H2C2H2CSCHCHC2HCH
_chemical_formula_sum              "P48 H1152 S192 C1440 Fe96"
_cell_length_a       54.6758
_cell_length_b       54.4171
_cell_length_c       43.3558
_cell_angle_alpha    88.6246
_cell_angle_beta     88.9501
_cell_angle_gamma    89.7995

_space_group_name_H-M_alt    "P 1"
_space_group_IT_number       1

loop_
  _space_group_symop_operation_xyz
  'x, y, z'

loop_
  _atom_site_type_symbol
  _atom_site_label
  _atom_site_symmetry_multiplicity
  _atom_site_fract_x
  _atom_site_fract_y
  _atom_site_fract_z
  _atom_site_occupancy
  P   P1        1.0  0.46151  0.02638  0.07158  1.0000
  H   H1        1.0  0.44337  0.11592  0.43430  1.0000
  S   S1        1.0  0.44627  0.11047  0.18685  1.0000
  C   C1        1.0  0.21569  0.04415  0.46699  1.0000
  Fe  Fe1       1.0  0.46132  0.13631  0.22103  1.0000
  S   S2        1.0  0.43786  0.15721  0.25629  1.0000
  C   C2        1.0  0.43442  0.06704  0.09141  1.0000
  S   S3        1.0  0.46336  0.04594  0.22120  1.0000
  C   C3        1.0  0.38220  0.10969  0.44895  1.0000
  Fe  Fe2       1.0  0.26550  0.09739  0.36914  1.0000
  S   S4        1.0  0.30554  0.10299  0.37521  1.0000
  S   S5        1.0  0.24745  0.06018  0.36207  1.0000
  Fe  Fe3       1.0  0.25401  0.15321  0.37486  1.0000
  S   S6        1.0  0.29412  0.16239  0.38106  1.0000
  S   S7        1.0  0.21854  0.17606  0.38149  1.0000
  Fe  Fe4       1.0  0.30212  0.13552  0.34261  1.0000
  S   S8        1.0  0.32685  0.13424  0.29890  1.0000
  Fe  Fe5       1.0  0.29484  0.12884  0.41296  1.0000
  S   S9        1.0  0.31364  0.11956  0.45832  1.0000
  S   S10       1.0  0.26187  0.12861  0.33460  1.0000
  S   S11       1.0  0.25485  0.12106  0.40889  1.0000
  Fe  Fe6       1.0  0.07763  0.30042  0.33879  1.0000
  C   C4        1.0  0.44353  0.04355  0.09895  1.0000
  S   S12       1.0  0.09824  0.28024  0.37603  1.0000
  C   C5        1.0  0.30118  0.01171  0.45885  1.0000
  Fe  Fe7       1.0  0.13182  0.29948  0.35748  1.0000
  S   S13       1.0  0.17006  0.28186  0.35103  1.0000
  C   C6        1.0  0.00847  0.29990  0.47757  1.0000
  C   C7        1.0  0.18431  0.21693  0.46710  1.0000
  C   C8        1.0  0.29579  0.01046  0.29377  1.0000
  H   H2        1.0  0.30449  0.03135  0.45830  1.0000
  C   C9        1.0  0.01742  0.28345  0.31114  1.0000
  H   H3        1.0  0.02673  0.28747  0.43628  1.0000
  C   C10       1.0  0.00408  0.29599  0.33403  1.0000
  H   H4        1.0  0.43023  0.09124  0.27655  1.0000
  C   C11       1.0  0.23272  0.04717  0.44278  1.0000
  C   C12       1.0  0.20545  0.20561  0.37239  1.0000
  C   C13       1.0  0.18122  0.21068  0.38218  1.0000
  C   C14       1.0  0.17017  0.23383  0.37612  1.0000
  C   C15       1.0  0.18308  0.25227  0.35981  1.0000
  C   C16       1.0  0.20725  0.24720  0.34994  1.0000
  C   C17       1.0  0.21837  0.22411  0.35617  1.0000
  H   H5        1.0  0.17097  0.19661  0.39474  1.0000
  H   H6        1.0  0.15173  0.23749  0.38421  1.0000
  H   H7        1.0  0.21750  0.26126  0.33734  1.0000
  H   H8        1.0  0.23695  0.22066  0.34842  1.0000
  C   C18       1.0  0.41908  0.07481  0.27665  1.0000
  S   S14       1.0  0.04986  0.28121  0.30948  1.0000
  C   C19       1.0  0.17164  0.31397  0.48468  1.0000
  H   H9        1.0  0.22924  0.03948  0.42046  1.0000
  H   H10       1.0  0.30382  0.17140  0.47149  1.0000
  H   H11       1.0  0.06016  0.14666  0.22175  1.0000
  C   C20       1.0  0.45964  0.12904  0.03879  1.0000
  C   C21       1.0  0.47130  0.00056  0.19806  1.0000
  C   C22       1.0  0.43929  0.03355  0.12875  1.0000
  C   C23       1.0  0.40704  0.15037  0.26803  1.0000
  C   C24       1.0  0.39608  0.16349  0.29229  1.0000
  C   C25       1.0  0.37172  0.15875  0.30215  1.0000
  C   C26       1.0  0.35786  0.14085  0.28785  1.0000
  C   C27       1.0  0.36881  0.12780  0.26350  1.0000
  C   C28       1.0  0.39322  0.13243  0.25375  1.0000
  H   H12       1.0  0.40639  0.17762  0.30336  1.0000
  H   H13       1.0  0.36340  0.16941  0.32020  1.0000
  H   H14       1.0  0.35830  0.11406  0.25200  1.0000
  H   H15       1.0  0.40117  0.12242  0.23480  1.0000
  C   C29       1.0  0.30050  0.00833  0.37450  1.0000
  C   C30       1.0  0.25110  0.00975  0.36020  1.0000
  C   C31       1.0  0.26342  0.03188  0.36546  1.0000
  C   C32       1.0  0.28811  0.03101  0.37306  1.0000
  H   H16       1.0  0.43075  0.01457  0.01818  1.0000
  H   H17       1.0  0.23208  0.01032  0.35383  1.0000
  H   H18       1.0  0.29772  0.04785  0.37737  1.0000
  C   C33       1.0  0.42383  0.99210  0.07260  1.0000
  H   H19       1.0  0.42280  0.03902  0.17358  1.0000
  C   C34       1.0  0.45878  0.03957  0.03303  1.0000
  C   C35       1.0  0.33838  0.01741  0.27904  1.0000
  C   C36       1.0  0.46761  0.13057  0.00750  1.0000
  C   C37       1.0  0.21506  0.24885  0.46861  1.0000
  H   H20       1.0  0.02541  0.30088  0.49008  1.0000
  H   H21       1.0  0.27539  0.08085  0.47879  1.0000
  H   H22       1.0  0.08839  0.25897  0.43865  1.0000
  H   H23       1.0  0.43825  0.07569  0.06910  1.0000
  C   C38       1.0  0.27945  0.00238  0.47186  1.0000
  C   C39       1.0  0.07038  0.15819  0.23693  1.0000
  H   H24       1.0  0.48595  0.06789  0.03961  1.0000
  H   H25       1.0  0.28148  0.99819  0.30217  1.0000
  C   C40       1.0  0.45818  0.11376  0.32514  1.0000
  C   C41       1.0  0.43685  0.11944  0.34176  1.0000
  C   C42       1.0  0.43150  0.10742  0.37014  1.0000
  C   C43       1.0  0.44702  0.08848  0.38054  1.0000
  P   P2        1.0  0.40298  0.11359  0.39019  1.0000
  C   C44       1.0  0.39367  0.14511  0.38388  1.0000
  C   C45       1.0  0.38120  0.09256  0.37476  1.0000
  C   C46       1.0  0.37259  0.09677  0.34490  1.0000
  C   C47       1.0  0.35591  0.08065  0.33223  1.0000
  C   C48       1.0  0.34796  0.05995  0.34917  1.0000
  C   C49       1.0  0.35701  0.05518  0.37868  1.0000
  C   C50       1.0  0.37374  0.07133  0.39139  1.0000
  C   C51       1.0  0.36879  0.15153  0.38499  1.0000
  C   C52       1.0  0.36174  0.17624  0.38271  1.0000
  C   C53       1.0  0.37937  0.19463  0.37897  1.0000
  C   C54       1.0  0.40417  0.18841  0.37821  1.0000
  C   C55       1.0  0.41133  0.16379  0.38115  1.0000
  C   C56       1.0  0.40416  0.11100  0.43167  1.0000
  C   C57       1.0  0.31962  0.00158  0.28961  1.0000
  H   H26       1.0  0.17937  0.27504  0.42467  1.0000
  H   H27       1.0  0.30491  0.07044  0.27304  1.0000
  H   H28       1.0  0.13074  0.30136  0.24411  1.0000
  H   H29       1.0  0.26734  0.06269  0.42831  1.0000
  C   C58       1.0  0.41461  0.06141  0.30406  1.0000
  H   H30       1.0  0.26607  0.01494  0.48128  1.0000
  H   H31       1.0  0.24763  0.16199  0.47784  1.0000
  H   H32       1.0  0.42445  0.13303  0.33215  1.0000
  H   H33       1.0  0.44252  0.07801  0.40141  1.0000
  H   H34       1.0  0.37871  0.11263  0.33149  1.0000
  H   H35       1.0  0.34875  0.08465  0.30951  1.0000
  H   H36       1.0  0.33445  0.04792  0.33961  1.0000
  H   H37       1.0  0.35071  0.03923  0.39188  1.0000
  H   H38       1.0  0.38062  0.06728  0.41419  1.0000
  H   H39       1.0  0.35480  0.13754  0.38791  1.0000
  H   H40       1.0  0.34258  0.18118  0.38350  1.0000
  H   H41       1.0  0.37376  0.21370  0.37673  1.0000
  H   H42       1.0  0.41784  0.20270  0.37554  1.0000
  H   H43       1.0  0.43065  0.15941  0.38146  1.0000
  C   C59       1.0  0.25862  0.07063  0.47576  1.0000
  H   H44       1.0  0.36471  0.10921  0.43756  1.0000
  H   H45       1.0  0.41166  0.00785  0.07172  1.0000
  C   C60       1.0  0.40006  0.04031  0.30401  1.0000
  H   H46       1.0  0.19663  0.18244  0.44861  1.0000
  C   C61       1.0  0.09376  0.21398  0.39213  1.0000
  C   C62       1.0  0.06990  0.22316  0.39009  1.0000
  C   C63       1.0  0.05980  0.22793  0.36119  1.0000
  C   C64       1.0  0.07333  0.22305  0.33434  1.0000
  C   C65       1.0  0.09704  0.21322  0.33618  1.0000
  C   C66       1.0  0.10741  0.20933  0.36529  1.0000
  P   P3        1.0  0.11412  0.20734  0.30106  1.0000
  C   C67       1.0  0.14193  0.19007  0.30788  1.0000
  C   C68       1.0  0.09665  0.18829  0.27616  1.0000
  C   C69       1.0  0.10360  0.18654  0.24496  1.0000
  C   C70       1.0  0.09043  0.17163  0.22539  1.0000
  C   C71       1.0  0.07678  0.17438  0.28774  1.0000
  C   C72       1.0  0.16398  0.19634  0.29249  1.0000
  C   C73       1.0  0.18529  0.18282  0.29817  1.0000
  C   C74       1.0  0.18464  0.16253  0.31848  1.0000
  C   C75       1.0  0.16263  0.15556  0.33293  1.0000
  C   C76       1.0  0.14128  0.16907  0.32738  1.0000
  C   C77       1.0  0.11947  0.23703  0.28277  1.0000
  C   C78       1.0  0.13937  0.25137  0.29132  1.0000
  C   C79       1.0  0.14372  0.27421  0.27686  1.0000
  H   H47       1.0  0.44373  0.11532  0.49121  1.0000
  C   C80       1.0  0.10709  0.26972  0.24709  1.0000
  C   C81       1.0  0.10295  0.24666  0.26113  1.0000
  H   H48       1.0  0.10191  0.21093  0.41448  1.0000
  H   H49       1.0  0.05948  0.22726  0.41083  1.0000
  H   H50       1.0  0.04171  0.23604  0.35942  1.0000
  H   H51       1.0  0.06536  0.22735  0.31214  1.0000
  H   H52       1.0  0.12609  0.20308  0.36744  1.0000
  H   H53       1.0  0.11922  0.19674  0.23580  1.0000
  H   H54       1.0  0.09581  0.17046  0.20129  1.0000
  H   H55       1.0  0.07145  0.17487  0.31188  1.0000
  H   H56       1.0  0.16494  0.21160  0.27611  1.0000
  H   H57       1.0  0.20246  0.18825  0.28717  1.0000
  H   H58       1.0  0.20131  0.15240  0.32338  1.0000
  H   H59       1.0  0.16230  0.13987  0.34879  1.0000
  H   H60       1.0  0.12433  0.16330  0.33858  1.0000
  H   H61       1.0  0.15150  0.24497  0.30926  1.0000
  C   C82       1.0  0.39003  0.03240  0.27638  1.0000
  H   H62       1.0  0.40568  0.08000  0.15944  1.0000
  H   H63       1.0  0.09409  0.27724  0.23082  1.0000
  H   H64       1.0  0.08661  0.23666  0.25553  1.0000
  C   C83       1.0  0.00469  0.27230  0.28758  1.0000
  Fe  Fe8       1.0  0.47404  0.08408  0.20561  1.0000
  H   H65       1.0  0.42216  0.06757  0.32539  1.0000
  H   H66       1.0  0.01469  0.26256  0.26987  1.0000
  H   H67       1.0  0.38685  0.04042  0.22740  1.0000
  C   C84       1.0  0.31846  0.99570  0.44616  1.0000
  C   C85       1.0  0.20178  0.20086  0.45485  1.0000
  H   H68       1.0  0.41298  0.99747  0.23706  1.0000
  H   H69       1.0  0.07091  0.22889  0.47659  1.0000
  S   S15       1.0  0.07541  0.30898  0.45180  1.0000
  H   H70       1.0  0.04817  0.14897  0.27709  1.0000
  C   C86       1.0  0.25422  0.06027  0.44722  1.0000
  C   C87       1.0  0.39466  0.04594  0.24893  1.0000
  C   C88       1.0  0.42556  0.04660  0.15043  1.0000
  C   C89       1.0  0.41605  0.06973  0.14254  1.0000
  H   H71       1.0  0.39632  0.03054  0.32559  1.0000
  H   H72       1.0  0.18640  0.31436  0.39682  1.0000
  H   H73       1.0  0.44026  0.12817  0.04414  1.0000
  H   H74       1.0  0.41282  0.07730  0.22786  1.0000
  H   H75       1.0  0.15919  0.28513  0.28367  1.0000
  H   H76       1.0  0.23898  0.19660  0.43861  1.0000
  C   C90       1.0  0.47349  0.05962  0.02370  1.0000
  H   H77       1.0  0.25092  0.23898  0.45133  1.0000
  C   C91       1.0  0.17840  0.29197  0.43736  1.0000
  H   H78       1.0  0.27222  0.04229  0.29247  1.0000
  C   C92       1.0  0.09958  0.25173  0.45711  1.0000
  C   C93       1.0  0.12766  0.28335  0.25465  1.0000
  C   C94       1.0  0.48076  0.02408  0.20176  1.0000
  C   C95       1.0  0.06362  0.15951  0.26810  1.0000
  C   C96       1.0  0.29054  0.03528  0.28809  1.0000
  H   H79       1.0  0.31970  0.00791  0.37970  1.0000
  H   H80       1.0  0.24202  0.98996  0.42944  1.0000
  H   H81       1.0  0.03502  0.32142  0.25536  1.0000
  C   C97       1.0  0.36398  0.98965  0.33748  1.0000
  C   C98       1.0  0.19084  0.24110  0.47396  1.0000
  H   H82       1.0  0.47934  0.18651  0.28669  1.0000
  H   H83       1.0  0.01373  0.30484  0.35226  1.0000
  C   C99       1.0  0.42660  0.11333  0.47939  1.0000
  C   C100      1.0  0.42636  0.11335  0.44709  1.0000
  H   H84       1.0  0.19909  0.03386  0.46345  1.0000
  H   H85       1.0  0.41432  0.09847  0.10754  1.0000
  C   C101      1.0  0.00929  0.29198  0.44708  1.0000
  H   H86       1.0  0.13056  0.27359  0.44336  1.0000
  H   H87       1.0  0.22045  0.26744  0.47366  1.0000
  C   C102      1.0  0.42070  0.08003  0.11318  1.0000
  H   H88       1.0  0.44695  0.01584  0.13541  1.0000
  C   C103      1.0  0.22575  0.20883  0.44919  1.0000
  P   P4        1.0  0.36964  0.00639  0.27631  1.0000
  C   C104      1.0  0.30898  0.05112  0.27723  1.0000
  C   C105      1.0  0.33274  0.04220  0.27237  1.0000
  C   C106      1.0  0.40910  0.06705  0.24914  1.0000
  S   S16       1.0  0.11173  0.31745  0.31743  1.0000
  C   C107      1.0  0.12358  0.26006  0.45995  1.0000
  H   H89       1.0  0.34662  0.05498  0.26416  1.0000
  Fe  Fe9       1.0  0.09154  0.31429  0.40348  1.0000
  C   C108      1.0  0.38248  0.10981  0.48115  1.0000
  C   C109      1.0  0.44931  0.99543  0.07350  1.0000
  C   C110      1.0  0.47214  0.06937  0.99365  1.0000
  H   H90       1.0  0.46219  0.12338  0.30341  1.0000
  C   C111      1.0  0.23241  0.23278  0.45616  1.0000
  P   P5        1.0  0.16867  0.26240  0.48942  1.0000
  C   C112      1.0  0.47396  0.09544  0.33611  1.0000
  H   H91       1.0  0.47223  0.19713  0.23189  1.0000
  C   C113      1.0  0.47640  0.12884  0.06317  1.0000
  H   H92       1.0  0.98835  0.28395  0.40687  1.0000
  C   C114      1.0  0.46831  0.08270  0.36372  1.0000
  C   C115      1.0  0.09123  0.31801  0.48475  1.0000
  H   H93       1.0  0.45365  0.99584  0.20801  1.0000
  Fe  Fe10      1.0  0.47633  0.12326  0.15349  1.0000
  S   S17       1.0  0.46489  0.12759  0.10234  1.0000
  H   H94       1.0  0.24794  0.11725  0.48212  1.0000
  C   C116      1.0  0.44250  0.02978  0.01183  1.0000
  H   H95       1.0  0.35192  0.00518  0.34068  1.0000
  C   C117      1.0  0.18239  0.31426  0.42141  1.0000
  H   H96       1.0  0.48035  0.06820  0.37191  1.0000
  C   C118      1.0  0.98771  0.29002  0.43052  1.0000
  C   C119      1.0  0.13789  0.25145  0.48451  1.0000
  C   C120      1.0  0.17305  0.29160  0.46920  1.0000
  H   H97       1.0  0.33519  0.00286  0.43578  1.0000
  H   H98       1.0  0.16575  0.21053  0.47063  1.0000
  H   H99       1.0  0.20618  0.99784  0.39725  1.0000
  C   C121      1.0  0.08970  0.23480  0.47855  1.0000
  C   C122      1.0  0.37429  0.98904  0.24159  1.0000
  H   H100      1.0  0.24592  0.05716  0.59743  1.0000
  C   C123      1.0  0.36590  0.11438  0.86743  1.0000
  Fe  Fe11      1.0  0.45917  0.13867  0.85213  1.0000
  C   C124      1.0  0.34720  0.99890  0.74367  1.0000
  S   S18       1.0  0.43145  0.16342  0.82682  1.0000
  Fe  Fe12      1.0  0.46826  0.08681  0.87443  1.0000
  S   S19       1.0  0.45163  0.04967  0.88278  1.0000
  C   C125      1.0  0.99390  0.25591  0.58648  1.0000
  S   S20       1.0  0.45110  0.11900  0.89774  1.0000
  C   C126      1.0  0.29561  0.18111  0.80107  1.0000
  Fe  Fe13      1.0  0.27138  0.16720  0.68641  1.0000
  S   S21       1.0  0.31011  0.17951  0.67502  1.0000
  S   S22       1.0  0.24538  0.19654  0.70704  1.0000
  Fe  Fe14      1.0  0.28278  0.11465  0.66408  1.0000
  S   S23       1.0  0.32117  0.12467  0.65003  1.0000
  S   S24       1.0  0.27164  0.07667  0.64834  1.0000
  Fe  Fe15      1.0  0.32291  0.14326  0.69600  1.0000
  S   S25       1.0  0.35584  0.12944  0.72454  1.0000
  Fe  Fe16      1.0  0.30497  0.15945  0.63060  1.0000
  S   S26       1.0  0.31228  0.17831  0.58390  1.0000
  S   S27       1.0  0.28454  0.13204  0.71067  1.0000
  S   S28       1.0  0.26624  0.14850  0.64138  1.0000
  Fe  Fe17      1.0  0.12582  0.29131  0.66949  1.0000
  H   H101      1.0  0.21363  0.05215  0.63695  1.0000
  S   S29       1.0  0.14629  0.25376  0.66833  1.0000
  S   S30       1.0  0.47347  0.10542  0.82825  1.0000
  H   H102      1.0  0.39999  0.24379  0.89413  1.0000
  H   H103      1.0  0.40861  0.15790  0.63694  1.0000
  C   C127      1.0  0.36143  0.23637  0.89046  1.0000
  H   H104      1.0  0.45770  0.03916  0.70826  1.0000
  S   S31       1.0  0.09758  0.29600  0.63180  1.0000
  H   H105      1.0  0.35584  0.25264  0.90271  1.0000
  P   P6        1.0  0.24712  0.08249  0.53641  1.0000
  C   C128      1.0  0.19128  0.25247  0.54586  1.0000
  H   H106      1.0  0.00896  0.24592  0.59683  1.0000
  C   C129      1.0  0.17605  0.26724  0.59485  1.0000
  C   C130      1.0  0.19281  0.25330  0.57798  1.0000
  C   C131      1.0  0.39351  0.21050  0.86974  1.0000
  C   C132      1.0  0.42064  0.01561  0.78781  1.0000
  C   C133      1.0  0.21886  0.21339  0.69414  1.0000
  C   C134      1.0  0.21009  0.23320  0.71167  1.0000
  C   C135      1.0  0.18858  0.24628  0.70353  1.0000
  C   C136      1.0  0.17521  0.23972  0.67776  1.0000
  C   C137      1.0  0.18415  0.22010  0.65998  1.0000
  C   C138      1.0  0.20587  0.20723  0.66785  1.0000
  H   H107      1.0  0.21972  0.23816  0.73217  1.0000
  H   H108      1.0  0.18171  0.26072  0.71799  1.0000
  H   H109      1.0  0.17394  0.21453  0.64020  1.0000
  H   H110      1.0  0.21211  0.19205  0.65408  1.0000
  C   C139      1.0  0.41093  0.15387  0.79782  1.0000
  C   C140      1.0  0.39467  0.17109  0.78449  1.0000
  C   C141      1.0  0.37761  0.16405  0.76221  1.0000
  C   C142      1.0  0.37682  0.13972  0.75259  1.0000
  C   C143      1.0  0.39360  0.12272  0.76522  1.0000
  C   C144      1.0  0.41036  0.12963  0.78782  1.0000
  H   H111      1.0  0.39517  0.19000  0.79157  1.0000
  H   H112      1.0  0.36519  0.17745  0.75234  1.0000
  H   H113      1.0  0.39361  0.10405  0.75751  1.0000
  H   H114      1.0  0.42289  0.11624  0.79747  1.0000
  C   C145      1.0  0.27523  0.04381  0.69823  1.0000
  C   C146      1.0  0.27652  0.04743  0.66620  1.0000
  C   C147      1.0  0.27968  0.02690  0.64743  1.0000
  H   H115      1.0  0.27227  0.05939  0.71287  1.0000
  H   H116      1.0  0.28079  0.02954  0.62265  1.0000
  H   H117      1.0  0.28429  0.16841  0.81457  1.0000
  C   C148      1.0  0.46996  0.02653  0.86717  1.0000
  C   C149      1.0  0.12801  0.23400  0.50565  1.0000
  P   P7        1.0  0.32828  0.17827  0.84956  1.0000
  C   C150      1.0  0.45877  0.07415  0.75397  1.0000
  C   C151      1.0  0.31633  0.13652  0.54896  1.0000
  C   C152      1.0  0.31169  0.16178  0.54914  1.0000
  C   C153      1.0  0.31867  0.04867  0.57352  1.0000
  H   H118      1.0  0.32029  0.12690  0.57038  1.0000
  C   C154      1.0  0.35593  0.13797  0.86978  1.0000
  C   C155      1.0  0.46056  0.09764  0.74041  1.0000
  H   H119      1.0  0.38199  0.17842  0.84662  1.0000
  H   H120      1.0  0.33602  0.22512  0.75046  1.0000
  H   H121      1.0  0.32466  0.22457  0.88347  1.0000
  C   C156      1.0  0.30717  0.16158  0.49299  1.0000
  C   C157      1.0  0.33265  0.20509  0.79386  1.0000
  H   H122      1.0  0.34025  0.02961  0.81371  1.0000
  H   H123      1.0  0.27460  0.01712  0.73599  1.0000
  C   C158      1.0  0.32831  0.04256  0.80194  1.0000
  H   H124      1.0  0.32666  0.14105  0.80087  1.0000
  C   C159      1.0  0.27542  0.06962  0.55057  1.0000
  H   H125      1.0  0.32844  0.02488  0.69078  1.0000
  H   H126      1.0  0.37469  0.06989  0.78506  1.0000
  C   C160      1.0  0.35903  0.07155  0.65398  1.0000
  C   C161      1.0  0.37472  0.07811  0.67747  1.0000
  C   C162      1.0  0.37410  0.06521  0.70576  1.0000
  C   C163      1.0  0.35782  0.04556  0.71069  1.0000
  H   H127      1.0  0.16742  0.31452  0.50906  1.0000
  C   C164      1.0  0.31801  0.18930  0.81236  1.0000
  C   C165      1.0  0.22781  0.06406  0.59248  1.0000
  C   C166      1.0  0.32466  0.21303  0.76478  1.0000
  C   C167      1.0  0.38257  0.03327  0.76934  1.0000
  C   C168      1.0  0.42476  0.03657  0.80488  1.0000
  C   C169      1.0  0.29492  0.07189  0.80421  1.0000
  C   C170      1.0  0.29742  0.07636  0.77245  1.0000
  C   C171      1.0  0.31529  0.06393  0.75535  1.0000
  C   C172      1.0  0.30215  0.20512  0.75396  1.0000
  H   H128      1.0  0.43308  0.14820  0.72978  1.0000
  C   C173      1.0  0.08445  0.30789  0.51375  1.0000
  C   C174      1.0  0.40820  0.05611  0.80379  1.0000
  C   C175      1.0  0.38729  0.05455  0.78589  1.0000
  H   H129      1.0  0.47788  0.04469  0.77757  1.0000
  H   H130      1.0  0.27860  0.14538  0.93798  1.0000
  H   H131      1.0  0.07032  0.29404  0.51543  1.0000
  H   H132      1.0  0.41279  0.20655  0.86583  1.0000
  H   H133      1.0  0.41170  0.07245  0.81687  1.0000
  C   C176      1.0  0.15508  0.27823  0.54786  1.0000
  H   H134      1.0  0.02092  0.27407  0.67050  1.0000
  H   H135      1.0  0.35899  0.08208  0.63247  1.0000
  H   H136      1.0  0.38656  0.09394  0.67430  1.0000
  H   H137      1.0  0.38570  0.07123  0.72396  1.0000
  C   C177      1.0  0.18096  0.08280  0.58197  1.0000
  C   C178      1.0  0.31657  0.12389  0.52098  1.0000
  H   H138      1.0  0.28101  0.08154  0.81735  1.0000
  H   H139      1.0  0.28550  0.08950  0.76096  1.0000
  C   C179      1.0  0.17248  0.26516  0.53050  1.0000
  H   H140      1.0  0.20440  0.24141  0.53336  1.0000
  H   H141      1.0  0.20665  0.24279  0.59000  1.0000
  H   H142      1.0  0.22222  0.28824  0.69644  1.0000
  C   C180      1.0  0.31180  0.13627  0.49291  1.0000
  C   C181      1.0  0.09571  0.31576  0.54071  1.0000
  C   C182      1.0  0.24721  0.15579  0.55606  1.0000
  H   H143      1.0  0.31689  0.06796  0.73082  1.0000
  C   C183      1.0  0.30024  0.15961  0.89955  1.0000
  C   C184      1.0  0.31133  0.07210  0.58248  1.0000
  H   H144      1.0  0.32963  0.04769  0.64126  1.0000
  H   H145      1.0  0.39969  0.15511  0.69314  1.0000
  P   P8        1.0  0.24429  0.31551  0.64246  1.0000
  C   C185      1.0  0.46653  0.02187  0.70310  1.0000
  C   C186      1.0  0.18596  0.07040  0.60978  1.0000
  C   C187      1.0  0.44744  0.15206  0.64190  1.0000
  H   H146      1.0  0.23906  0.27704  0.59595  1.0000
  H   H147      1.0  0.37743  0.10702  0.88554  1.0000
  H   H148      1.0  0.14382  0.29000  0.59305  1.0000
  C   C188      1.0  0.38629  0.23143  0.88561  1.0000
  C   C189      1.0  0.20941  0.06110  0.61504  1.0000
  C   C190      1.0  0.48570  0.16264  0.75190  1.0000
  H   H149      1.0  0.29589  0.21118  0.73145  1.0000
  C   C191      1.0  0.24732  0.15314  0.50049  1.0000
  C   C192      1.0  0.24809  0.11570  0.53230  1.0000
  H   H150      1.0  0.27125  0.03500  0.52775  1.0000
  C   C193      1.0  0.37592  0.19447  0.85886  1.0000
  H   H151      1.0  0.30852  0.05164  0.84362  1.0000
  H   H152      1.0  0.44093  0.03786  0.81872  1.0000
  C   C194      1.0  0.26186  0.17737  0.91702  1.0000
  C   C195      1.0  0.45602  0.05946  0.97273  1.0000
  C   C196      1.0  0.31041  0.05504  0.81897  1.0000
  C   C197      1.0  0.00473  0.28474  0.66525  1.0000
  H   H153      1.0  0.37149  0.99464  0.70406  1.0000
  C   C198      1.0  0.22296  0.07643  0.56448  1.0000
  H   H154      1.0  0.44416  0.10602  0.73157  1.0000
  H   H155      1.0  0.20648  0.05212  0.51390  1.0000
  H   H156      1.0  0.45758  0.18641  0.73241  1.0000
  C   C199      1.0  0.24739  0.13013  0.55878  1.0000
  C   C200      1.0  0.26380  0.19554  0.89381  1.0000
  C   C201      1.0  0.34261  0.05215  0.65883  1.0000
  H   H157      1.0  0.48375  0.08457  0.98640  1.0000
  C   C202      1.0  0.46441  0.00196  0.87412  1.0000
  H   H158      1.0  0.17754  0.26819  0.61965  1.0000
  H   H159      1.0  0.19555  0.09626  0.53840  1.0000
  C   C203      1.0  0.39955  0.01384  0.77019  1.0000
  C   C204      1.0  0.28009  0.15944  0.91991  1.0000
  C   C205      1.0  0.47939  0.06265  0.76636  1.0000
  C   C206      1.0  0.33075  0.04672  0.76992  1.0000
  C   C207      1.0  0.27632  0.01981  0.71124  1.0000
  H   H160      1.0  0.24748  0.16677  0.57658  1.0000
  H   H161      1.0  0.43368  0.00062  0.78870  1.0000
  C   C208      1.0  0.34132  0.14783  0.84616  1.0000
  C   C209      1.0  0.15711  0.27958  0.57984  1.0000
  C   C210      1.0  0.27885  0.99923  0.69237  1.0000
  H   H162      1.0  0.32064  0.99649  0.78144  1.0000
  H   H163      1.0  0.16291  0.09044  0.57815  1.0000
  H   H164      1.0  0.99700  0.30074  0.74541  1.0000
  H   H165      1.0  0.23981  0.01065  0.60780  1.0000
  H   H166      1.0  0.35979  0.14858  0.88994  1.0000
  H   H167      1.0  0.20644  0.01668  0.57029  1.0000
  C   C211      1.0  0.26233  0.98965  0.57678  1.0000
  C   C212      1.0  0.28258  0.04580  0.54234  1.0000
  H   H168      1.0  0.42887  0.03192  0.96536  1.0000
  C   C213      1.0  0.28394  0.19580  0.87345  1.0000
  C   C214      1.0  0.19944  0.08598  0.55948  1.0000
  H   H169      1.0  0.30408  0.19391  0.52085  1.0000
  C   C215      1.0  0.40466  0.11152  0.49640  1.0000
  H   H170      1.0  0.01733  0.28144  0.56185  1.0000
  H   H171      1.0  0.28515  0.21012  0.85569  1.0000
  H   H172      1.0  0.45436  0.13077  0.98927  1.0000
  C   C216      1.0  0.36127  0.10042  0.84158  1.0000
  H   H173      1.0  0.31405  0.14553  0.90231  1.0000
  H   H174      1.0  0.34392  0.09983  0.79724  1.0000
  H   H175      1.0  0.36892  0.08213  0.83997  1.0000
  C   C217      1.0  0.30232  0.17778  0.87608  1.0000
  H   H176      1.0  0.40474  0.11202  0.52137  1.0000
  C   C218      1.0  0.33718  0.13384  0.81997  1.0000
  C   C219      1.0  0.34196  0.03923  0.68706  1.0000
  H   H177      1.0  0.35031  0.21108  0.80162  1.0000
  Fe  Fe18      1.0  0.07514  0.31780  0.66576  1.0000
  H   H178      1.0  0.13874  0.22699  0.52471  1.0000
  H   H179      1.0  0.44124  0.06504  0.75505  1.0000
  C   C220      1.0  0.28770  0.18910  0.77205  1.0000
  C   C221      1.0  0.30421  0.03546  0.55354  1.0000
  C   C222      1.0  0.35091  0.19909  0.86388  1.0000
  H   H180      1.0  0.27037  0.18278  0.76342  1.0000
  C   C223      1.0  0.10397  0.22581  0.50273  1.0000
  P   P9        1.0  0.35444  0.03099  0.74833  1.0000
  H   H181      1.0  0.28420  0.10033  0.57916  1.0000
  H   H182      1.0  0.09630  0.21279  0.51952  1.0000
  H   H183      1.0  0.33528  0.04058  0.58247  1.0000
  C   C224      1.0  0.27002  0.24738  0.66748  1.0000
  C   C225      1.0  0.26586  0.23348  0.64145  1.0000
  C   C226      1.0  0.25477  0.24433  0.61575  1.0000
  C   C227      1.0  0.24748  0.26901  0.61620  1.0000
  C   C228      1.0  0.25139  0.28304  0.64245  1.0000
  C   C229      1.0  0.26303  0.27209  0.66794  1.0000
  C   C230      1.0  0.43733  0.14898  0.70526  1.0000
  C   C231      1.0  0.45301  0.00012  0.70435  1.0000
  C   C232      1.0  0.00647  0.31029  0.66144  1.0000
  H   H184      1.0  0.32198  0.08222  0.59866  1.0000
  C   C233      1.0  0.28975  0.08247  0.57120  1.0000
  C   C234      1.0  0.24119  0.06847  0.49990  1.0000
  H   H185      1.0  0.19236  0.30054  0.73630  1.0000
  H   H186      1.0  0.44936  0.99745  0.88979  1.0000
  H   H187      1.0  0.24699  0.12159  0.58162  1.0000
  C   C235      1.0  0.30740  0.17431  0.52098  1.0000
  C   C236      1.0  0.34377  0.22032  0.87957  1.0000
  H   H188      1.0  0.24965  0.20945  0.89155  1.0000
  C   C237      1.0  0.34706  0.11023  0.81778  1.0000
  C   C238      1.0  0.46158  0.14615  0.69447  1.0000
  H   H189      1.0  0.39649  0.99721  0.75774  1.0000
  H   H190      1.0  0.13981  0.28726  0.53669  1.0000
  H   H191      1.0  0.27837  0.23878  0.68749  1.0000
  H   H192      1.0  0.27106  0.21423  0.64130  1.0000
  H   H193      1.0  0.25185  0.23348  0.59552  1.0000
  C   C239      1.0  0.44125  0.03962  0.98178  1.0000
  H   H194      1.0  0.26669  0.28266  0.68819  1.0000
  C   C240      1.0  0.99856  0.27625  0.56694  1.0000
  H   H195      1.0  0.30955  0.01706  0.54707  1.0000
  C   C241      1.0  0.28108  0.00295  0.66045  1.0000
  C   C242      1.0  0.19778  0.31352  0.71814  1.0000
  C   C243      1.0  0.42338  0.15456  0.65290  1.0000
  H   H196      1.0  0.32048  0.10440  0.52107  1.0000
  H   H197      1.0  0.17183  0.06841  0.62751  1.0000
  H   H198      1.0  0.45134  0.15356  0.61734  1.0000
  C   C244      1.0  0.41835  0.15302  0.68457  1.0000
  H   H199      1.0  0.24624  0.17719  0.93279  1.0000
  C   C245      1.0  0.24141  0.00294  0.58501  1.0000
  C   C246      1.0  0.24714  0.16730  0.52692  1.0000
  C   C247      1.0  0.46649  0.14786  0.66256  1.0000
  C   C248      1.0  0.22254  0.00616  0.56393  1.0000
  H   H200      1.0  0.24741  0.18717  0.52482  1.0000
  H   H201      1.0  0.45508  0.06712  0.94943  1.0000
  S   S32       1.0  0.10142  0.31054  0.70497  1.0000
  H   H202      1.0  0.43386  0.00079  0.71126  1.0000
  C   C249      1.0  0.24780  0.12750  0.50309  1.0000
  H   H203      1.0  0.45885  0.21645  0.77352  1.0000
  H   H204      1.0  0.29456  0.30545  0.62204  1.0000
  C   C250      1.0  0.47131  0.20094  0.77386  1.0000
  H   H205      1.0  0.20944  0.99808  0.51905  1.0000
  C   C251      1.0  0.21488  0.30668  0.69547  1.0000
  H   H206      1.0  0.19464  0.31594  0.61824  1.0000
  C   C252      1.0  0.21989  0.05472  0.49551  1.0000
  H   H207      1.0  0.09027  0.30792  0.56293  1.0000
  H   H208      1.0  0.36532  0.10921  0.49414  1.0000
  C   C253      1.0  0.47029  0.18340  0.75087  1.0000
  C   C254      1.0  0.22427  0.99547  0.53493  1.0000
  H   H209      1.0  0.48496  0.14619  0.65348  1.0000
  C   C255      1.0  0.48318  0.10984  0.73868  1.0000
  P   P10       1.0  0.48602  0.14044  0.72149  1.0000
  C   C256      1.0  0.29471  0.32188  0.63567  1.0000
  Fe  Fe19      1.0  0.10933  0.54350  0.19425  1.0000
  S   S33       1.0  0.12585  0.51532  0.16188  1.0000
  S   S34       1.0  0.12708  0.57951  0.20848  1.0000
  Fe  Fe20      1.0  0.06126  0.51661  0.19850  1.0000
  S   S35       1.0  0.07297  0.48727  0.16624  1.0000
  S   S36       1.0  0.02599  0.51380  0.22552  1.0000
  Fe  Fe21      1.0  0.10736  0.48685  0.19373  1.0000
  S   S37       1.0  0.12097  0.44849  0.20827  1.0000
  Fe  Fe22      1.0  0.09007  0.51740  0.13637  1.0000
  S   S38       1.0  0.07989  0.52072  0.08465  1.0000
  S   S39       1.0  0.09445  0.51481  0.22750  1.0000
  S   S40       1.0  0.07489  0.54709  0.16710  1.0000
  Fe  Fe23      1.0  0.10403  0.34907  0.34860  1.0000
  S   S41       1.0  0.10338  0.39055  0.33717  1.0000
  H   H210      1.0  0.05846  0.64117  0.22395  1.0000
  H   H211      1.0  0.01196  0.34401  0.43287  1.0000
  C   C257      1.0  0.04245  0.46644  0.33677  1.0000
  C   C258      1.0  0.09280  0.51884  0.04634  1.0000
  C   C259      1.0  0.11601  0.50890  0.04026  1.0000
  C   C260      1.0  0.07872  0.52684  0.02103  1.0000
  H   H212      1.0  0.12717  0.50267  0.05926  1.0000
  H   H213      1.0  0.06082  0.53470  0.02527  1.0000
  C   C261      1.0  0.12098  0.59654  0.24245  1.0000
  C   C262      1.0  0.13111  0.62015  0.24494  1.0000
  C   C263      1.0  0.12772  0.63384  0.27200  1.0000
  C   C264      1.0  0.11440  0.62391  0.29715  1.0000
  C   C265      1.0  0.10376  0.60053  0.29436  1.0000
  C   C266      1.0  0.10698  0.58695  0.26723  1.0000
  H   H214      1.0  0.14194  0.62779  0.22593  1.0000
  S   S42       1.0  0.06868  0.33291  0.36723  1.0000
  H   H215      1.0  0.09320  0.59276  0.31347  1.0000
  H   H216      1.0  0.09903  0.56889  0.26564  1.0000
  C   C267      1.0  0.11423  0.43233  0.24369  1.0000
  C   C268      1.0  0.10448  0.44414  0.26949  1.0000
  C   C269      1.0  0.10111  0.43102  0.29776  1.0000
  C   C270      1.0  0.10686  0.40583  0.30049  1.0000
  C   C271      1.0  0.11578  0.39381  0.27440  1.0000
  C   C272      1.0  0.11966  0.40705  0.24630  1.0000
  H   H217      1.0  0.10004  0.46349  0.26782  1.0000
  H   H218      1.0  0.09410  0.44050  0.31769  1.0000
  H   H219      1.0  0.12040  0.37448  0.27609  1.0000
  H   H220      1.0  0.12726  0.39771  0.22655  1.0000
  C   C273      1.0  0.00214  0.51697  0.19950  1.0000
  C   C274      1.0  0.04309  0.40318  0.21605  1.0000
  H   H221      1.0  0.02462  0.53370  0.16352  1.0000
  C   C275      1.0  0.10528  0.45986  0.37899  1.0000
  C   C276      1.0  0.12580  0.44468  0.37580  1.0000
  C   C277      1.0  0.14752  0.45419  0.36303  1.0000
  C   C278      1.0  0.14867  0.47879  0.35304  1.0000
  C   C279      1.0  0.12793  0.49400  0.35530  1.0000
  C   C280      1.0  0.10632  0.48446  0.36889  1.0000
  P   P11       1.0  0.12876  0.52490  0.33889  1.0000
  C   C281      1.0  0.14571  0.54564  0.36248  1.0000
  C   C282      1.0  0.14244  0.52383  0.30054  1.0000
  C   C283      1.0  0.14200  0.50197  0.28382  1.0000
  C   C284      1.0  0.15208  0.50126  0.25398  1.0000
  C   C285      1.0  0.16226  0.52242  0.24029  1.0000
  C   C286      1.0  0.16262  0.54424  0.25658  1.0000
  C   C287      1.0  0.15273  0.54501  0.28651  1.0000
  C   C288      1.0  0.14283  0.57119  0.35844  1.0000
  C   C289      1.0  0.15562  0.58742  0.37665  1.0000
  C   C290      1.0  0.17150  0.57831  0.39908  1.0000
  C   C291      1.0  0.17455  0.55294  0.40330  1.0000
  C   C292      1.0  0.16170  0.53663  0.38511  1.0000
  C   C293      1.0  0.09777  0.53605  0.33500  1.0000
  C   C294      1.0  0.08431  0.52987  0.30916  1.0000
  C   C295      1.0  0.06042  0.53851  0.30558  1.0000
  C   C296      1.0  0.04964  0.55322  0.32808  1.0000
  C   C297      1.0  0.06269  0.55900  0.35435  1.0000
  C   C298      1.0  0.08661  0.55027  0.35798  1.0000
  H   H222      1.0  0.08844  0.45228  0.38861  1.0000
  H   H223      1.0  0.12474  0.42539  0.38266  1.0000
  H   H224      1.0  0.16327  0.44225  0.36015  1.0000
  H   H225      1.0  0.16549  0.48571  0.34251  1.0000
  H   H226      1.0  0.09012  0.49576  0.37114  1.0000
  H   H227      1.0  0.13353  0.48549  0.29338  1.0000
  H   H228      1.0  0.15142  0.48441  0.24113  1.0000
  H   H229      1.0  0.16938  0.52209  0.21680  1.0000
  H   H230      1.0  0.16985  0.56085  0.24554  1.0000
  H   H231      1.0  0.15270  0.56236  0.29808  1.0000
  H   H232      1.0  0.13064  0.57872  0.34123  1.0000
  H   H233      1.0  0.15314  0.60711  0.37322  1.0000
  H   H234      1.0  0.18143  0.59095  0.41315  1.0000
  H   H235      1.0  0.18690  0.54590  0.42069  1.0000
  H   H236      1.0  0.16433  0.51709  0.38885  1.0000
  H   H237      1.0  0.09237  0.51844  0.29166  1.0000
  H   H238      1.0  0.05051  0.53393  0.28507  1.0000
  H   H239      1.0  0.03125  0.56026  0.32507  1.0000
  H   H240      1.0  0.05445  0.57057  0.37171  1.0000
  H   H241      1.0  0.09641  0.55490  0.37851  1.0000
  H   H242      1.0  0.04378  0.48936  0.05159  1.0000
  H   H243      1.0  0.00687  0.60377  0.28519  1.0000
  H   H244      1.0  0.04651  0.44266  0.15422  1.0000
  H   H245      1.0  0.02874  0.41601  0.27824  1.0000
  C   C299      1.0  0.04778  0.39339  0.38465  1.0000
  C   C300      1.0  0.04823  0.47013  0.30545  1.0000
  C   C301      1.0  0.18077  0.33639  0.43692  1.0000
  C   C302      1.0  0.00957  0.50217  0.03360  1.0000
  H   H246      1.0  0.07579  0.38885  0.41866  1.0000
  H   H247      1.0  0.05878  0.40596  0.37058  1.0000
  C   C303      1.0  0.02444  0.49172  0.05627  1.0000
  C   C304      1.0  0.00649  0.52770  0.17033  1.0000
  C   C305      1.0  0.04836  0.58010  0.23465  1.0000
  H   H248      1.0  0.13611  0.65171  0.27373  1.0000
  C   C306      1.0  0.04889  0.63962  0.35434  1.0000
  C   C307      1.0  0.08551  0.43833  0.99420  1.0000
  C   C308      1.0  0.03232  0.42992  0.29480  1.0000
  H   H249      1.0  0.05488  0.39314  0.23182  1.0000
  C   C309      1.0  0.07350  0.44982  0.01889  1.0000
  C   C310      1.0  0.02169  0.35819  0.41977  1.0000
  H   H250      1.0  0.00883  0.50898  0.28878  1.0000
  H   H251      1.0  0.14095  0.42875  0.02746  1.0000
  C   C311      1.0  0.12208  0.43452  0.02510  1.0000
  C   C312      1.0  0.11027  0.44674  0.04913  1.0000
  C   C313      1.0  0.08595  0.45417  0.04615  1.0000
  H   H252      1.0  0.00376  0.37561  0.99719  1.0000
  C   C314      1.0  0.03041  0.33647  0.27034  1.0000
  H   H253      1.0  0.17387  0.35345  0.48048  1.0000
  C   C315      1.0  0.03842  0.43122  0.17243  1.0000
  C   C316      1.0  0.01762  0.40150  0.21926  1.0000
  H   H254      1.0  0.02644  0.44205  0.37128  1.0000
  C   C317      1.0  0.03113  0.44461  0.34704  1.0000
  C   C318      1.0  0.02965  0.58084  0.25691  1.0000
  H   H255      1.0  0.02171  0.56382  0.26565  1.0000
  H   H256      1.0  0.05249  0.35799  0.45010  1.0000
  H   H257      1.0  0.02656  0.47849  0.10333  1.0000
  C   C319      1.0  0.00232  0.41490  0.19920  1.0000
  C   C320      1.0  0.04301  0.37036  0.30136  1.0000
  H   H258      1.0  0.05515  0.56257  0.22679  1.0000
  C   C321      1.0  0.02114  0.60343  0.26756  1.0000
  C   C322      1.0  0.04880  0.35174  0.28082  1.0000
  C   C323      1.0  0.01876  0.37394  0.31154  1.0000
  C   C324      1.0  0.00629  0.33968  0.28069  1.0000
  C   C325      1.0  0.04449  0.36614  0.42955  1.0000
  C   C326      1.0  0.05758  0.38364  0.41192  1.0000
  C   C327      1.0  0.05349  0.41813  0.19272  1.0000
  P   P12       1.0  0.01224  0.39750  0.33916  1.0000
  S   S43       1.0  0.12640  0.33269  0.38750  1.0000
  H   H259      1.0  0.12000  0.45066  0.07002  1.0000
  H   H260      1.0  0.07703  0.46375  0.06491  1.0000
  C   C328      1.0  0.04510  0.64114  0.32255  1.0000
  H   H261      1.0  0.06497  0.63027  0.36308  1.0000
  H   H262      1.0  0.05753  0.38176  0.30968  1.0000
  H   H263      1.0  0.05703  0.48686  0.29725  1.0000
  C   C329      1.0  0.03081  0.62550  0.25525  1.0000
  C   C330      1.0  0.02461  0.38595  0.37505  1.0000
  S   S44       1.0  0.11246  0.63872  0.33341  1.0000
  C   C331      1.0  0.01297  0.42989  0.17584  1.0000
  H   H264      1.0  0.99703  0.44085  0.25185  1.0000
  H   H265      1.0  0.18339  0.35363  0.42429  1.0000
  H   H266      1.0  0.07326  0.41974  0.19048  1.0000
  H   H267      1.0  0.00953  0.55483  0.03175  1.0000
  H   H268      1.0  0.00183  0.44074  0.16027  1.0000
  H   H269      1.0  0.05838  0.63271  0.30719  1.0000
  H   H270      1.0  0.04682  0.48048  0.35305  1.0000
  C   C332      1.0  0.05853  0.60194  0.22282  1.0000
  H   H271      1.0  0.05462  0.45556  0.01699  1.0000
  C   C333      1.0  0.10966  0.43000  0.99791  1.0000
  H   H272      1.0  0.00991  0.39004  0.23774  1.0000
  H   H273      1.0  0.01768  0.50695  0.01132  1.0000
  C   C334      1.0  0.04987  0.62459  0.23308  1.0000
  C   C335      1.0  0.02642  0.42596  0.32614  1.0000
  H   H274      1.0  0.11464  0.34400  0.46060  1.0000
  C   C336      1.0  0.99479  0.51814  0.30231  1.0000
  H   H275      1.0  0.04765  0.45481  0.26016  1.0000
  H   H276      1.0  0.07348  0.60125  0.20601  1.0000
  H   H277      1.0  0.99229  0.32706  0.27371  1.0000
  C   C337      1.0  0.04298  0.45197  0.28445  1.0000
  H   H278      1.0  0.06768  0.34872  0.27377  1.0000
  C   C338      1.0  0.01189  0.36782  0.39244  1.0000
  C   C339      1.0  0.17541  0.33625  0.46853  1.0000
  H   H279      1.0  0.14246  0.49839  0.00522  1.0000
  C   C340      1.0  0.00049  0.35799  0.30170  1.0000
  C   C341      1.0  0.00749  0.55731  0.00704  1.0000
  C   C342      1.0  0.12466  0.50649  0.00946  1.0000
  C   C343      1.0  0.01474  0.48577  0.08548  1.0000
  C   C344      1.0  0.10939  0.33601  0.48282  1.0000
  H   H280      1.0  0.00674  0.50278  0.34573  1.0000
  H   H281      1.0  0.04037  0.57891  0.00203  1.0000
  H   H282      1.0  0.03596  0.65042  0.39923  1.0000
  C   C345      1.0  0.03260  0.65101  0.37468  1.0000
  C   C346      1.0  0.02474  0.65384  0.31079  1.0000
  H   H283      1.0  0.99054  0.53977  0.12749  1.0000
  H   H284      1.0  0.99461  0.36080  0.38460  1.0000
  C   C347      1.0  0.99358  0.51455  0.33431  1.0000
  C   C348      1.0  0.98999  0.49002  0.09192  1.0000
  H   H285      1.0  0.98693  0.58354  0.19279  1.0000
  C   C349      1.0  0.98719  0.53113  0.14992  1.0000
  P   P13       1.0  0.01962  0.65445  0.26964  1.0000
  H   H286      1.0  0.98646  0.36543  0.18753  1.0000
  Fe  Fe24      1.0  0.09302  0.48928  0.83624  1.0000
  S   S45       1.0  0.07975  0.52452  0.81407  1.0000
  S   S46       1.0  0.08423  0.45335  0.81124  1.0000
  Fe  Fe25      1.0  0.10678  0.51624  0.89663  1.0000
  S   S47       1.0  0.09533  0.55330  0.87731  1.0000
  S   S48       1.0  0.12231  0.51012  0.94560  1.0000
  Fe  Fe26      1.0  0.06304  0.53282  0.86000  1.0000
  S   S49       1.0  0.02602  0.55057  0.86263  1.0000
  Fe  Fe27      1.0  0.11311  0.54250  0.83238  1.0000
  S   S50       1.0  0.13541  0.56748  0.79912  1.0000
  S   S51       1.0  0.07317  0.49640  0.88151  1.0000
  S   S52       1.0  0.12784  0.50660  0.85256  1.0000
  C   C350      1.0  0.05363  0.46123  0.65406  1.0000
  S   S53       1.0  0.09303  0.35364  0.65136  1.0000
  S   S54       1.0  0.13432  0.37808  0.71665  1.0000
  C   C351      1.0  0.09891  0.43253  0.78537  1.0000
  C   C352      1.0  0.12280  0.43595  0.77394  1.0000
  C   C353      1.0  0.13323  0.41916  0.75300  1.0000
  C   C354      1.0  0.12005  0.39863  0.74317  1.0000
  C   C355      1.0  0.09628  0.39505  0.75488  1.0000
  C   C356      1.0  0.08585  0.41185  0.77583  1.0000
  H   H287      1.0  0.13336  0.45140  0.78134  1.0000
  H   H288      1.0  0.15171  0.42207  0.74440  1.0000
  H   H289      1.0  0.08594  0.37926  0.74792  1.0000
  H   H290      1.0  0.06750  0.40873  0.78477  1.0000
  C   C357      1.0  0.10923  0.63687  0.74512  1.0000
  C   C358      1.0  0.13055  0.62445  0.73613  1.0000
  C   C359      1.0  0.13827  0.60326  0.75285  1.0000
  C   C360      1.0  0.12474  0.59411  0.77859  1.0000
  C   C361      1.0  0.10350  0.60664  0.78762  1.0000
  C   C362      1.0  0.09583  0.62784  0.77100  1.0000
  H   H291      1.0  0.14114  0.63119  0.71639  1.0000
  H   H292      1.0  0.15487  0.59390  0.74582  1.0000
  H   H293      1.0  0.09303  0.60004  0.80754  1.0000
  H   H294      1.0  0.99207  0.59538  0.70404  1.0000
  C   C363      1.0  0.06410  0.57671  0.74945  1.0000
  C   C364      1.0  0.01232  0.33254  0.54196  1.0000
  H   H295      1.0  0.02648  0.49848  0.85091  1.0000
  P   P14       1.0  0.06237  0.49759  0.69693  1.0000
  H   H296      1.0  0.06789  0.34082  0.95925  1.0000
  H   H297      1.0  0.26717  0.33514  0.58468  1.0000
  C   C365      1.0  0.06097  0.59250  0.72393  1.0000
  H   H298      1.0  0.01599  0.46993  0.69593  1.0000
  Fe  Fe28      1.0  0.11983  0.34581  0.68869  1.0000
  C   C366      1.0  0.29606  0.36430  0.67069  1.0000
  H   H299      1.0  0.99775  0.47549  0.62276  1.0000
  H   H300      1.0  0.10845  0.42019  0.67876  1.0000
  H   H301      1.0  0.05121  0.56683  0.79538  1.0000
  C   C367      1.0  0.04030  0.34463  0.58180  1.0000
  H   H302      1.0  0.17791  0.32876  0.56806  1.0000
  C   C368      1.0  0.00783  0.50430  0.85514  1.0000
  C   C369      1.0  0.04791  0.35763  0.52878  1.0000
  H   H303      1.0  0.14808  0.52919  0.75742  1.0000
  C   C370      1.0  0.09323  0.43180  0.67166  1.0000
  C   C371      1.0  0.06884  0.46898  0.67769  1.0000
  H   H304      1.0  0.04640  0.43303  0.62124  1.0000
  H   H305      1.0  0.03307  0.54239  0.70351  1.0000
  C   C372      1.0  0.03928  0.54142  0.67970  1.0000
  C   C373      1.0  0.05343  0.52143  0.66968  1.0000
  H   H306      1.0  0.04009  0.62223  0.70415  1.0000
  H   H307      1.0  0.12379  0.49439  0.77918  1.0000
  H   H308      1.0  0.02346  0.57654  0.66730  1.0000
  H   H309      1.0  0.03254  0.43442  0.75550  1.0000
  C   C374      1.0  0.11826  0.50346  0.75789  1.0000
  C   C375      1.0  0.05038  0.47929  0.95740  1.0000
  C   C376      1.0  0.08764  0.52500  0.99028  1.0000
  H   H310      1.0  0.03830  0.47243  0.64690  1.0000
  C   C377      1.0  0.05669  0.54080  0.61867  1.0000
  H   H311      1.0  0.09807  0.53753  0.68303  1.0000
  H   H312      1.0  0.05269  0.51764  0.75819  1.0000
  C   C378      1.0  0.27287  0.33121  0.64850  1.0000
  H   H313      1.0  0.07393  0.59206  0.70474  1.0000
  C   C379      1.0  0.03383  0.56088  0.65927  1.0000
  C   C380      1.0  0.12498  0.44885  0.89863  1.0000
  H   H314      1.0  0.01882  0.51263  0.79543  1.0000
  H   H315      1.0  0.99815  0.34589  0.74466  1.0000
  C   C381      1.0  0.02939  0.59564  0.77513  1.0000
  P   P15       1.0  0.00094  0.63346  0.74898  1.0000
  C   C382      1.0  0.01287  0.49103  0.93202  1.0000
  C   C383      1.0  0.99806  0.48879  0.76690  1.0000
  H   H316      1.0  0.00289  0.36815  0.68932  1.0000
  H   H317      1.0  0.07946  0.56401  0.75011  1.0000
  C   C384      1.0  0.23218  0.32488  0.60547  1.0000
  C   C385      1.0  0.07805  0.42434  0.64812  1.0000
  C   C386      1.0  0.05821  0.43900  0.63939  1.0000
  C   C387      1.0  0.04250  0.56057  0.62877  1.0000
  H   H318      1.0  0.08671  0.48067  0.75313  1.0000
  H   H319      1.0  0.03680  0.51649  0.95362  1.0000
  C   C388      1.0  0.04145  0.40968  0.71897  1.0000
  H   H320      1.0  0.03867  0.57590  0.61312  1.0000
  C   C389      1.0  0.27376  0.35251  0.66614  1.0000
  H   H321      1.0  0.98626  0.34352  0.65127  1.0000
  H   H322      1.0  0.07671  0.53165  0.97128  1.0000
  C   C390      1.0  0.02308  0.57410  0.95835  1.0000
  C   C391      1.0  0.08861  0.45391  0.68654  1.0000
  C   C392      1.0  0.03349  0.49740  0.94856  1.0000
  H   H323      1.0  0.13473  0.55107  0.70996  1.0000
  C   C393      1.0  0.08957  0.50786  0.71595  1.0000
  C   C394      1.0  0.03744  0.49348  0.72456  1.0000
  C   C395      1.0  0.04189  0.60974  0.72384  1.0000
  C   C396      1.0  0.02583  0.61138  0.74942  1.0000
  C   C397      1.0  0.98764  0.63436  0.71109  1.0000
  H   H324      1.0  0.04557  0.38180  0.68476  1.0000
  C   C398      1.0  0.04835  0.57838  0.77505  1.0000
  C   C399      1.0  0.00266  0.52878  0.86193  1.0000
  C   C400      1.0  0.13189  0.52314  0.74569  1.0000
  H   H325      1.0  0.01777  0.59649  0.79549  1.0000
  C   C401      1.0  0.01690  0.47935  0.71750  1.0000
  C   C402      1.0  0.08958  0.43192  0.92626  1.0000
  H   H326      1.0  0.06390  0.54086  0.59520  1.0000
  C   C403      1.0  0.06230  0.52137  0.63907  1.0000
  C   C404      1.0  0.02503  0.57101  0.99029  1.0000
  H   H327      1.0  0.03687  0.58437  0.94523  1.0000
  H   H328      1.0  0.11376  0.45942  0.94399  1.0000
  H   H329      1.0  0.08164  0.40711  0.63680  1.0000
  H   H330      1.0  0.02237  0.41639  0.98732  1.0000
  C   C405      1.0  0.03765  0.50580  0.75261  1.0000
  C   C406      1.0  0.01827  0.50314  0.77380  1.0000
  C   C407      1.0  0.09715  0.49588  0.74319  1.0000
  H   H331      1.0  0.10060  0.45888  0.70491  1.0000
  H   H332      1.0  0.07413  0.50670  0.63119  1.0000
  H   H333      1.0  0.14032  0.46144  0.89770  1.0000
  C   C408      1.0  0.12435  0.53543  0.71886  1.0000
  C   C409      1.0  0.10336  0.52776  0.70386  1.0000
  C   C410      1.0  0.23804  0.34053  0.55286  1.0000
  S   S55       1.0  0.14566  0.32615  0.65590  1.0000
  C   C411      1.0  0.02177  0.37695  0.98644  1.0000
  H   H334      1.0  0.04575  0.34403  0.60571  1.0000
  C   C412      1.0  0.05550  0.40192  0.96637  1.0000
  C   C413      1.0  0.02607  0.44848  0.93289  1.0000
  H   H335      1.0  0.07933  0.63726  0.77827  1.0000
  C   C414      1.0  0.10986  0.44765  0.92495  1.0000
  H   H336      1.0  0.00793  0.32336  0.59077  1.0000
  C   C415      1.0  0.00873  0.38334  0.70301  1.0000
  H   H337      1.0  0.25741  0.36009  0.67661  1.0000
  C   C416      1.0  0.11978  0.43455  0.87325  1.0000
  H   H338      1.0  0.13101  0.43605  0.85242  1.0000
  C   C417      1.0  0.00126  0.41296  0.74292  1.0000
  H   H339      1.0  0.00326  0.55402  0.76173  1.0000
  H   H340      1.0  0.06039  0.41526  0.71743  1.0000
  C   C418      1.0  0.03306  0.39098  0.70045  1.0000
  C   C419      1.0  0.02566  0.42051  0.74037  1.0000
  H   H341      1.0  0.02341  0.42983  0.92552  1.0000
  H   H342      1.0  0.06789  0.40673  0.90019  1.0000
  H   H343      1.0  0.33371  0.32638  0.63033  1.0000
  Fe  Fe29      1.0  0.11678  0.33132  0.62017  1.0000
  C   C420      1.0  0.05484  0.35696  0.55965  1.0000
  C   C421      1.0  0.04655  0.45464  0.95016  1.0000
  H   H344      1.0  0.98968  0.42129  0.76024  1.0000
  C   C422      1.0  0.12029  0.34420  0.50985  1.0000
  C   C423      1.0  0.31696  0.33371  0.64028  1.0000
  H   H345      1.0  0.07175  0.36556  0.56635  1.0000
  C   C424      1.0  0.11055  0.51437  0.98414  1.0000
  H   H346      1.0  0.13389  0.35857  0.50833  1.0000
  H   H347      1.0  0.25004  0.34734  0.53443  1.0000
  H   H348      1.0  0.20540  0.34436  0.52600  1.0000
  C   C425      1.0  0.98809  0.51138  0.63919  1.0000
  C   C426      1.0  0.09940  0.41910  0.87418  1.0000
  P   P16       1.0  0.06926  0.43164  0.95950  1.0000
  H   H349      1.0  0.33490  0.36407  0.66138  1.0000
  H   H350      1.0  0.21529  0.35989  0.65223  1.0000
  C   C427      1.0  0.11353  0.33413  0.53885  1.0000
  H   H351      1.0  0.08675  0.38145  0.94924  1.0000
  C   C428      1.0  0.22181  0.32345  0.67178  1.0000
  C   C429      1.0  0.03229  0.40004  0.98061  1.0000
  C   C430      1.0  0.08415  0.41799  0.90042  1.0000
  C   C431      1.0  0.00344  0.56373  0.94321  1.0000
  H   H352      1.0  0.09491  0.40879  0.85396  1.0000
  H   H353      1.0  0.29659  0.38071  0.68436  1.0000
  C   C432      1.0  0.02658  0.34573  0.51998  1.0000
  H   H354      1.0  0.02144  0.34662  0.49601  1.0000
  C   C433      1.0  0.99725  0.47713  0.73856  1.0000
  S   S56       1.0  0.12774  0.34514  0.57206  1.0000
  C   C434      1.0  0.19742  0.32998  0.57171  1.0000
  C   C435      1.0  0.00922  0.46660  0.92409  1.0000
  H   H355      1.0  0.06684  0.48455  0.96894  1.0000
  C   C436      1.0  0.20699  0.32289  0.60025  1.0000
  C   C437      1.0  0.18727  0.33694  0.71715  1.0000
  H   H356      1.0  0.17367  0.34208  0.73438  1.0000
  C   C438      1.0  0.24768  0.33362  0.58147  1.0000
  C   C439      1.0  0.31764  0.35493  0.65777  1.0000
  H   H357      1.0  0.00007  0.50510  0.92453  1.0000
  H   H358      1.0  0.99362  0.46187  0.91038  1.0000
  S   S57       1.0  0.03409  0.32665  0.66687  1.0000
  C   C440      1.0  0.21292  0.33879  0.54803  1.0000
  H   H359      1.0  0.00202  0.56615  0.91844  1.0000
  C   C441      1.0  0.98873  0.48738  0.85286  1.0000
  C   C442      1.0  0.99247  0.39442  0.72398  1.0000
  C   C443      1.0  0.05789  0.35736  0.96507  1.0000
  H   H360      1.0  0.99276  0.46853  0.84711  1.0000
  H   H361      1.0  0.18507  0.37152  0.69235  1.0000
  C   C444      1.0  0.21079  0.34684  0.67071  1.0000
  C   C445      1.0  0.19376  0.35357  0.69342  1.0000
  H   H362      1.0  0.00225  0.52074  0.62568  1.0000
  H   H363      1.0  0.05946  0.36685  0.51157  1.0000
  C   C446      1.0  0.06846  0.38042  0.95922  1.0000
  H   H364      1.0  0.02635  0.33774  0.98305  1.0000
  H   H365      1.0  0.11903  0.42024  0.97969  1.0000
  C   C447      1.0  0.03451  0.35562  0.97853  1.0000
  H   H366      1.0  0.99882  0.63631  0.81634  1.0000
  C   C448      1.0  0.01899  0.33267  0.57312  1.0000
  C   C449      1.0  0.98804  0.54619  0.99186  1.0000
  H   H367      1.0  0.42924  0.97236  0.00080  1.0000
  H   H368      1.0  0.03766  0.72764  0.46840  1.0000
  H   H369      1.0  0.21224  0.75835  0.29258  1.0000
  Fe  Fe30      1.0  0.46639  0.90117  0.18852  1.0000
  S   S58       1.0  0.43031  0.91065  0.21432  1.0000
  H   H370      1.0  0.18807  0.77835  0.24278  1.0000
  Fe  Fe31      1.0  0.32221  0.87290  0.34025  1.0000
  S   S59       1.0  0.28936  0.89508  0.32516  1.0000
  S   S60       1.0  0.35355  0.85849  0.30915  1.0000
  Fe  Fe32      1.0  0.30445  0.87223  0.40853  1.0000
  S   S61       1.0  0.27145  0.89517  0.39795  1.0000
  S   S62       1.0  0.30936  0.85584  0.45673  1.0000
  Fe  Fe33      1.0  0.26679  0.87007  0.35763  1.0000
  S   S63       1.0  0.22740  0.85566  0.35142  1.0000
  Fe  Fe34      1.0  0.29656  0.91780  0.36703  1.0000
  S   S64       1.0  0.30569  0.95865  0.36928  1.0000
  S   S65       1.0  0.29908  0.84635  0.36954  1.0000
  S   S66       1.0  0.33021  0.89631  0.38074  1.0000
  Fe  Fe35      1.0  0.10417  0.71371  0.39966  1.0000
  S   S67       1.0  0.10731  0.74797  0.36997  1.0000
  S   S68       1.0  0.08998  0.72139  0.44788  1.0000
  Fe  Fe36      1.0  0.11447  0.67986  0.34441  1.0000
  S   S69       1.0  0.11853  0.71235  0.31153  1.0000
  Fe  Fe37      1.0  0.14052  0.73027  0.34897  1.0000
  S   S70       1.0  0.17866  0.74841  0.34390  1.0000
  Fe  Fe38      1.0  0.08495  0.72731  0.33626  1.0000
  S   S71       1.0  0.05077  0.74274  0.31329  1.0000
  S   S72       1.0  0.13846  0.69648  0.38056  1.0000
  S   S73       1.0  0.08005  0.69427  0.36700  1.0000
  H   H371      1.0  0.48397  0.97633  0.07892  1.0000
  C   C450      1.0  0.04367  0.70520  0.20519  1.0000
  H   H372      1.0  0.42164  0.92951  0.07376  1.0000
  H   H373      1.0  0.12836  0.68487  0.45903  1.0000
  C   C451      1.0  0.27246  0.77968  0.29669  1.0000
  C   C452      1.0  0.30015  0.82175  0.28263  1.0000
  C   C453      1.0  0.02133  0.73590  0.32939  1.0000
  H   H374      1.0  0.15189  0.80244  0.25835  1.0000
  C   C454      1.0  0.28011  0.81604  0.26462  1.0000
  H   H375      1.0  0.03441  0.72533  0.37423  1.0000
  C   C455      1.0  0.21423  0.82546  0.35192  1.0000
  C   C456      1.0  0.18854  0.82300  0.35184  1.0000
  C   C457      1.0  0.17727  0.79966  0.35050  1.0000
  C   C458      1.0  0.19156  0.77832  0.34892  1.0000
  C   C459      1.0  0.21722  0.78075  0.34970  1.0000
  C   C460      1.0  0.22848  0.80406  0.35123  1.0000
  H   H376      1.0  0.17723  0.83933  0.35196  1.0000
  H   H377      1.0  0.15756  0.79828  0.34965  1.0000
  H   H378      1.0  0.22855  0.76444  0.34865  1.0000
  H   H379      1.0  0.24820  0.80551  0.35127  1.0000
  H   H380      1.0  0.06688  0.78247  0.38678  1.0000
  H   H381      1.0  0.25467  0.74415  0.21002  1.0000
  H   H382      1.0  0.25105  0.87891  0.45946  1.0000
  C   C461      1.0  0.23747  0.80889  0.15616  1.0000
  H   H383      1.0  0.31660  0.90827  0.46202  1.0000
  H   H384      1.0  0.07238  0.73199  0.20866  1.0000
  H   H385      1.0  0.15317  0.82759  0.40971  1.0000
  C   C462      1.0  0.21688  0.82799  0.27189  1.0000
  C   C463      1.0  0.41056  0.87098  0.39266  1.0000
  C   C464      1.0  0.16131  0.83492  0.43014  1.0000
  C   C465      1.0  0.45568  0.82901  0.26949  1.0000
  H   H386      1.0  0.28694  0.78404  0.21195  1.0000
  H   H387      1.0  0.16504  0.98385  0.41472  1.0000
  C   C466      1.0  0.40958  0.89577  0.24118  1.0000
  C   C467      1.0  0.41011  0.87043  0.24729  1.0000
  C   C468      1.0  0.39295  0.85947  0.26818  1.0000
  C   C469      1.0  0.37494  0.87360  0.28333  1.0000
  C   C470      1.0  0.37449  0.89902  0.27736  1.0000
  C   C471      1.0  0.39158  0.90991  0.25631  1.0000
  H   H388      1.0  0.42342  0.85922  0.23535  1.0000
  H   H389      1.0  0.39348  0.83980  0.27239  1.0000
  H   H390      1.0  0.36076  0.91024  0.28860  1.0000
  H   H391      1.0  0.39064  0.92942  0.25139  1.0000
  C   C472      1.0  0.46563  0.91929  0.30698  1.0000
  P   P17       1.0  0.12748  0.80653  0.46381  1.0000
  C   C473      1.0  0.29252  0.78550  0.31471  1.0000
  H   H392      1.0  0.18782  0.85637  0.40370  1.0000
  H   H393      1.0  0.02127  0.78076  0.39736  1.0000
  H   H394      1.0  0.44180  0.81486  0.26928  1.0000
  H   H395      1.0  0.19846  0.85933  0.29096  1.0000
  H   H396      1.0  0.27543  0.82825  0.24552  1.0000
  C   C474      1.0  0.27301  0.79117  0.19665  1.0000
  H   H397      1.0  0.26641  0.80975  0.12172  1.0000
  C   C475      1.0  0.21944  0.74586  0.27563  1.0000
  C   C476      1.0  0.14138  0.77652  0.46093  1.0000
  C   C477      1.0  0.18425  0.85288  0.48202  1.0000
  H   H398      1.0  0.21238  0.80610  0.19462  1.0000
  C   C478      1.0  0.08478  0.84106  0.39933  1.0000
  H   H399      1.0  0.47269  0.87111  0.38688  1.0000
  C   C479      1.0  0.42921  0.94792  0.07366  1.0000
  H   H400      1.0  0.45087  0.97646  0.33257  1.0000
  H   H401      1.0  0.32670  0.95810  0.43514  1.0000
  C   C480      1.0  0.19801  0.96356  0.47622  1.0000
  H   H402      1.0  0.28865  0.94171  0.45793  1.0000
  H   H403      1.0  0.40045  0.96211  0.28377  1.0000
  H   H404      1.0  0.99316  0.71846  0.39702  1.0000
  H   H405      1.0  0.39586  0.86657  0.40901  1.0000
  C   C481      1.0  0.40501  0.87908  0.36278  1.0000
  H   H406      1.0  0.46848  0.91022  0.25876  1.0000
  S   S74       1.0  0.47020  0.92068  0.14233  1.0000
  C   C482      1.0  0.05527  0.69126  0.26578  1.0000
  H   H407      1.0  0.08241  0.71978  0.26230  1.0000
  C   C483      1.0  0.21124  0.79568  0.45302  1.0000
  C   C484      1.0  0.48438  0.98341  0.18071  1.0000
  H   H408      1.0  1.00000  0.67302  0.37897  1.0000
  H   H409      1.0  0.08162  0.85970  0.39099  1.0000
  H   H410      1.0  0.43962  0.84647  0.30844  1.0000
  H   H411      1.0  0.01626  0.67709  0.20839  1.0000
  H   H412      1.0  0.14599  0.77875  0.41114  1.0000
  C   C485      1.0  0.26153  0.80553  0.14561  1.0000
  C   C486      1.0  0.48555  0.88205  0.03659  1.0000
  H   H413      1.0  0.45878  0.95186  0.23952  1.0000
  H   H414      1.0  0.44934  0.88414  0.01785  1.0000
  H   H415      1.0  0.15981  0.96165  0.46511  1.0000
  H   H416      1.0  0.43920  0.86174  0.42437  1.0000
  C   C487      1.0  0.44841  0.88162  0.34985  1.0000
  C   C488      1.0  0.31375  0.97049  0.44593  1.0000
  C   C489      1.0  0.46038  0.93821  0.32764  1.0000
  C   C490      1.0  0.43499  0.86823  0.40124  1.0000
  H   H417      1.0  0.26424  0.82815  0.45289  1.0000
  C   C491      1.0  0.00029  0.73936  0.31151  1.0000
  C   C492      1.0  0.24820  0.91665  0.47333  1.0000
  C   C493      1.0  0.45480  0.96703  0.28481  1.0000
  H   H418      1.0  0.41924  0.89022  0.31817  1.0000
  H   H419      1.0  0.03920  0.71060  0.18175  1.0000
  C   C494      1.0  0.19623  0.84183  0.27990  1.0000
  C   C495      1.0  0.23114  0.80349  0.18699  1.0000
  C   C496      1.0  0.23752  0.71297  0.23224  1.0000
  C   C497      1.0  0.07242  0.82156  0.38625  1.0000
  P   P18       1.0  0.24085  0.78714  0.24721  1.0000
  C   C498      1.0  0.21427  0.80492  0.25850  1.0000
  C   C499      1.0  0.36710  0.97274  0.36192  1.0000
  H   H420      1.0  0.25384  0.97005  0.35782  1.0000
  C   C500      1.0  0.46451  0.97463  0.07595  1.0000
  H   H421      1.0  0.24843  0.92386  0.44982  1.0000
  C   C501      1.0  0.10587  0.81229  0.43353  1.0000
  C   C502      1.0  0.19064  0.79601  0.25323  1.0000
  C   C503      1.0  0.17282  0.83265  0.27505  1.0000
  C   C504      1.0  0.07633  0.79756  0.39720  1.0000
  H   H422      1.0  0.46612  0.93493  0.07664  1.0000
  H   H423      1.0  0.31084  0.83815  0.27742  1.0000
  H   H424      1.0  0.05982  0.82499  0.36760  1.0000
  H   H425      1.0  0.19770  0.78921  0.43721  1.0000
  C   C505      1.0  0.30646  0.80642  0.30753  1.0000
  H   H426      1.0  0.20219  0.71441  0.29768  1.0000
  H   H427      1.0  0.16744  0.73902  0.40762  1.0000
  C   C506      1.0  0.03200  0.75413  0.43216  1.0000
  C   C507      1.0  0.26621  0.79482  0.27133  1.0000
  H   H428      1.0  0.32205  0.81098  0.32142  1.0000
  C   C508      1.0  0.15253  0.82802  0.45977  1.0000
  H   H429      1.0  0.24448  0.70017  0.21542  1.0000
  H   H430      1.0  0.23471  0.83530  0.27681  1.0000
  H   H431      1.0  0.22368  0.81567  0.14043  1.0000
  C   C509      1.0  0.40211  0.97167  0.20337  1.0000
  C   C510      1.0  0.27927  0.79663  0.16583  1.0000
  H   H432      1.0  0.26187  0.76348  0.30278  1.0000
  C   C511      1.0  0.39101  0.96542  0.30539  1.0000
  C   C512      1.0  0.41385  0.96846  0.07264  1.0000
  C   C513      1.0  0.17003  0.80973  0.26174  1.0000
  H   H433      1.0  0.11072  0.85180  0.43297  1.0000
  H   H434      1.0  0.23320  0.81313  0.41701  1.0000
  C   C514      1.0  0.24915  0.89121  0.47865  1.0000
  C   C515      1.0  0.23408  0.75467  0.25089  1.0000
  C   C516      1.0  0.22272  0.70444  0.25684  1.0000
  C   C517      1.0  0.14924  0.76804  0.43206  1.0000
  C   C518      1.0  0.21373  0.72090  0.27855  1.0000
  H   H435      1.0  0.00228  0.74561  0.28772  1.0000
  C   C519      1.0  0.24895  0.79487  0.20757  1.0000
  C   C520      1.0  0.23127  0.80914  0.44157  1.0000
  C   C521      1.0  0.00059  0.74218  0.46981  1.0000
  C   C522      1.0  0.38183  0.95199  0.35796  1.0000
  H   H436      1.0  0.15688  0.84312  0.28210  1.0000
  H   H437      1.0  0.46014  0.93446  0.35229  1.0000
  C   C523      1.0  0.16156  0.74557  0.42995  1.0000
  C   C524      1.0  0.24323  0.73799  0.22925  1.0000
  H   H438      1.0  0.29792  0.79392  0.15763  1.0000
  C   C525      1.0  0.10330  0.70941  0.48173  1.0000
  C   C526      1.0  0.18069  0.98048  0.42924  1.0000
  H   H439      1.0  0.29720  0.77389  0.33438  1.0000
  C   C527      1.0  0.01848  0.72797  0.36012  1.0000
  C   C528      1.0  0.10136  0.83648  0.42301  1.0000
  C   C529      1.0  0.09275  0.79292  0.42106  1.0000
  H   H440      1.0  0.47551  0.81513  0.23013  1.0000
  C   C530      1.0  0.06241  0.71718  0.22025  1.0000
  C   C531      1.0  0.01246  0.66390  0.36322  1.0000
  C   C532      1.0  0.03066  0.68630  0.22041  1.0000
  C   C533      1.0  0.99200  0.77314  0.43005  1.0000
  H   H441      1.0  0.05032  0.75175  0.42272  1.0000
  H   H442      1.0  0.40516  0.93233  0.32645  1.0000
  C   C534      1.0  0.29195  0.96119  0.45878  1.0000
  C   C535      1.0  0.19231  0.86025  0.45248  1.0000
  C   C536      1.0  0.45964  0.94823  0.26420  1.0000
  C   C537      1.0  0.47203  0.86607  0.29164  1.0000
  H   H443      1.0  0.38342  0.93839  0.37651  1.0000
  C   C538      1.0  0.45445  0.95103  0.07530  1.0000
  C   C539      1.0  0.45513  0.96200  0.31657  1.0000
  C   C540      1.0  0.39396  0.94850  0.32978  1.0000
  C   C541      1.0  0.01571  0.77050  0.41801  1.0000
  P   P19       1.0  0.24716  0.96559  0.49096  1.0000
  C   C542      1.0  0.45442  0.84729  0.29160  1.0000
  H   H444      1.0  0.21815  0.68510  0.25909  1.0000
  H   H445      1.0  0.09538  0.77420  0.42950  1.0000
  C   C543      1.0  0.22420  0.98396  0.43789  1.0000
  H   H446      1.0  0.32339  0.98243  0.29530  1.0000
  C   C544      1.0  0.46519  0.92451  0.27520  1.0000
  C   C545      1.0  0.06821  0.71017  0.25044  1.0000
  C   C546      1.0  0.03632  0.67926  0.25086  1.0000
  C   C547      1.0  0.31360  0.90051  0.48496  1.0000
  C   C548      1.0  0.02458  0.74012  0.45805  1.0000
  C   C549      1.0  0.22132  0.97177  0.46667  1.0000
  C   C550      1.0  0.35965  0.95935  0.20522  1.0000
  C   C551      1.0  0.45391  0.87352  0.37991  1.0000
  C   C552      1.0  0.98773  0.65945  0.26058  1.0000
  C   C553      1.0  0.17776  0.96801  0.45762  1.0000
  P   P20       1.0  0.47222  0.88862  0.32169  1.0000
  C   C554      1.0  0.27484  0.97701  0.47239  1.0000
  C   C555      1.0  0.16457  0.83661  0.48569  1.0000
  C   C556      1.0  0.00859  0.66549  0.33142  1.0000
  C   C557      1.0  0.42384  0.88445  0.34149  1.0000
  C   C558      1.0  0.24871  0.81766  0.46183  1.0000
  C   C559      1.0  0.16616  0.73144  0.45653  1.0000
  H   H447      1.0  0.02233  0.68414  0.48055  1.0000
  H   H448      1.0  0.33712  0.97540  0.24027  1.0000
  C   C560      1.0  0.18100  0.85112  0.42658  1.0000
  H   H449      1.0  0.38607  0.88077  0.35589  1.0000
  C   C561      1.0  0.30998  0.87522  0.48883  1.0000
  C   C562      1.0  0.12186  0.69167  0.48095  1.0000
  C   C563      1.0  0.20862  0.79080  0.48476  1.0000
  H   H450      1.0  0.20760  0.87270  0.44946  1.0000
  C   C564      1.0  0.47460  0.82917  0.24743  1.0000
  H   H451      1.0  0.17515  0.71374  0.45471  1.0000
  C   C565      1.0  0.28831  0.98620  0.36906  1.0000
  H   H452      1.0  0.39421  0.96605  0.07199  1.0000
  C   C566      1.0  0.37541  0.98578  0.30874  1.0000
  C   C567      1.0  0.99496  0.72408  0.37302  1.0000
  C   C568      1.0  0.46871  0.88355  0.01236  1.0000
  S   S75       1.0  0.47418  0.87959  0.07560  1.0000
  H   H453      1.0  0.05998  0.68637  0.28931  1.0000
  C   C569      1.0  0.14676  0.76253  0.48767  1.0000
  H   H454      1.0  0.42038  0.96965  0.19360  1.0000
  H   H455      1.0  0.34504  0.94805  0.19682  1.0000
  C   C570      1.0  0.35524  0.97496  0.22991  1.0000
  H   H456      1.0  0.47684  0.96535  0.17753  1.0000
  C   C571      1.0  0.38310  0.95759  0.19211  1.0000
  C   C572      1.0  0.15882  0.73996  0.48539  1.0000
  H   H457      1.0  0.38677  0.94478  0.17380  1.0000
  C   C573      1.0  0.26340  0.98693  0.36233  1.0000
  H   H458      1.0  0.35715  0.97514  0.38350  1.0000
  H   H459      1.0  0.45050  0.98537  0.27610  1.0000
  S   S76       1.0  0.48311  0.86622  0.17008  1.0000
  H   H460      1.0  0.99301  0.67584  0.32339  1.0000
  H   H461      1.0  0.47261  0.98447  0.00490  1.0000
  C   C574      1.0  0.39779  0.98736  0.22799  1.0000
  H   H462      1.0  0.98731  0.69697  0.27614  1.0000
  C   C575      1.0  0.20389  0.98838  0.41939  1.0000
  C   C576      1.0  0.20447  0.75616  0.58621  1.0000
  C   C577      1.0  0.99112  0.72310  0.69080  1.0000
  Fe  Fe39      1.0  0.46171  0.88788  0.83117  1.0000
  H   H463      1.0  0.22210  0.74669  0.51149  1.0000
  S   S77       1.0  0.42056  0.88476  0.82249  1.0000
  H   H464      1.0  0.45945  0.90478  0.73589  1.0000
  C   C578      1.0  0.15554  0.82096  0.57354  1.0000
  H   H465      1.0  0.99783  0.74764  0.60678  1.0000
  C   C579      1.0  0.41422  0.97058  0.65684  1.0000
  Fe  Fe40      1.0  0.30074  0.91189  0.62096  1.0000
  S   S78       1.0  0.26420  0.92037  0.64251  1.0000
  S   S79       1.0  0.30939  0.92575  0.57221  1.0000
  Fe  Fe41      1.0  0.32112  0.89095  0.68182  1.0000
  S   S80       1.0  0.28520  0.89705  0.70729  1.0000
  S   S81       1.0  0.35881  0.87753  0.69863  1.0000
  Fe  Fe42      1.0  0.26670  0.88242  0.66487  1.0000
  S   S82       1.0  0.23001  0.86179  0.65926  1.0000
  Fe  Fe43      1.0  0.28516  0.93416  0.68254  1.0000
  S   S83       1.0  0.27819  0.96922  0.70933  1.0000
  S   S84       1.0  0.30276  0.87353  0.64101  1.0000
  S   S85       1.0  0.32154  0.92855  0.65934  1.0000
  Fe  Fe44      1.0  0.13779  0.73638  0.66160  1.0000
  S   S86       1.0  0.14556  0.69563  0.65868  1.0000
  S   S87       1.0  0.17275  0.75865  0.67147  1.0000
  Fe  Fe45      1.0  0.08310  0.72825  0.64562  1.0000
  S   S88       1.0  0.08810  0.68763  0.64065  1.0000
  S   S89       1.0  0.04635  0.74495  0.63132  1.0000
  Fe  Fe46      1.0  0.10989  0.68895  0.68426  1.0000
  Fe  Fe47      1.0  0.12311  0.69774  0.61569  1.0000
  S   S90       1.0  0.13651  0.68013  0.57169  1.0000
  S   S91       1.0  0.10326  0.72959  0.69054  1.0000
  S   S92       1.0  0.11701  0.73841  0.61730  1.0000
  C   C580      1.0  0.01729  0.73643  0.64752  1.0000
  C   C581      1.0  0.35705  0.82775  0.82654  1.0000
  H   H466      1.0  0.13731  0.81394  0.57840  1.0000
  H   H467      1.0  0.03070  0.72460  0.69181  1.0000
  C   C582      1.0  0.12373  0.69164  0.53720  1.0000
  C   C583      1.0  0.10520  0.70937  0.53786  1.0000
  C   C584      1.0  0.09484  0.71799  0.51026  1.0000
  H   H468      1.0  0.09840  0.71602  0.55970  1.0000
  C   C585      1.0  0.21472  0.83273  0.66253  1.0000
  C   C586      1.0  0.22554  0.81172  0.67575  1.0000
  C   C587      1.0  0.21242  0.78936  0.67815  1.0000
  C   C588      1.0  0.18841  0.78745  0.66713  1.0000
  C   C589      1.0  0.17777  0.80833  0.65335  1.0000
  C   C590      1.0  0.19077  0.83078  0.65133  1.0000
  H   H469      1.0  0.24389  0.81275  0.68448  1.0000
  H   H470      1.0  0.22094  0.77338  0.68877  1.0000
  H   H471      1.0  0.15948  0.80727  0.64448  1.0000
  H   H472      1.0  0.18216  0.84683  0.64111  1.0000
  H   H473      1.0  0.19280  0.78080  0.49334  1.0000
  H   H474      1.0  0.41457  0.76933  0.89246  1.0000
  C   C591      1.0  0.01175  0.66392  0.75719  1.0000
  C   C592      1.0  0.40333  0.94482  0.77875  1.0000
  H   H475      1.0  0.04558  0.70213  0.58784  1.0000
  H   H476      1.0  0.27348  0.77975  0.53521  1.0000
  H   H477      1.0  0.33187  0.92994  0.73248  1.0000
  C   C593      1.0  0.24697  0.92274  0.52849  1.0000
  H   H478      1.0  0.33875  0.83925  0.78491  1.0000
  C   C594      1.0  0.45402  0.93567  0.94607  1.0000
  C   C595      1.0  0.40410  0.88412  0.78733  1.0000
  C   C596      1.0  0.37889  0.88959  0.78780  1.0000
  C   C597      1.0  0.36493  0.88871  0.76072  1.0000
  C   C598      1.0  0.37588  0.88163  0.73287  1.0000
  C   C599      1.0  0.40107  0.87598  0.73247  1.0000
  C   C600      1.0  0.41514  0.87747  0.75937  1.0000
  H   H479      1.0  0.37003  0.89441  0.80934  1.0000
  H   H480      1.0  0.34552  0.89255  0.76171  1.0000
  H   H481      1.0  0.40968  0.86994  0.71130  1.0000
  H   H482      1.0  0.43431  0.87261  0.75874  1.0000
  C   C601      1.0  0.30653  0.88034  0.54463  1.0000
  C   C602      1.0  0.30987  0.90572  0.54067  1.0000
  C   C603      1.0  0.08117  0.81054  0.55366  1.0000
  H   H483      1.0  0.30372  0.87246  0.56755  1.0000
  C   C604      1.0  0.24492  0.98138  0.52700  1.0000
  H   H484      1.0  0.44879  0.92185  0.92992  1.0000
  C   C605      1.0  0.02114  0.71111  0.55075  1.0000
  C   C606      1.0  0.24625  0.81262  0.49353  1.0000
  H   H485      1.0  0.14176  0.76889  0.51037  1.0000
  C   C607      1.0  0.99610  0.74029  0.63005  1.0000
  H   H486      1.0  0.07201  0.77280  0.54530  1.0000
  C   C608      1.0  0.46764  0.78142  0.80528  1.0000
  C   C609      1.0  0.45151  0.80129  0.80945  1.0000
  C   C610      1.0  0.45749  0.82435  0.79633  1.0000
  P   P21       1.0  0.42574  0.79873  0.83583  1.0000
  C   C611      1.0  0.41734  0.76702  0.84262  1.0000
  C   C612      1.0  0.43618  0.81258  0.87062  1.0000
  C   C613      1.0  0.45508  0.80115  0.88722  1.0000
  C   C614      1.0  0.46481  0.81239  0.91291  1.0000
  C   C615      1.0  0.45597  0.83525  0.92201  1.0000
  C   C616      1.0  0.43737  0.84690  0.90542  1.0000
  C   C617      1.0  0.42756  0.83568  0.87972  1.0000
  C   C618      1.0  0.41286  0.75771  0.87269  1.0000
  S   S93       1.0  0.09833  0.66369  0.72520  1.0000
  C   C619      1.0  0.40660  0.72730  0.82232  1.0000
  C   C620      1.0  0.41378  0.75176  0.81745  1.0000
  C   C621      1.0  0.39873  0.81284  0.81977  1.0000
  C   C622      1.0  0.39668  0.81639  0.78771  1.0000
  C   C623      1.0  0.37504  0.82572  0.77527  1.0000
  C   C624      1.0  0.04353  0.69503  0.75357  1.0000
  C   C625      1.0  0.24868  0.88159  0.50877  1.0000
  C   C626      1.0  0.37857  0.81813  0.83904  1.0000
  C   C627      1.0  0.40804  0.92757  0.67041  1.0000
  C   C628      1.0  0.01452  0.70640  0.52028  1.0000
  C   C629      1.0  0.46757  0.97086  0.98837  1.0000
  H   H487      1.0  0.46410  0.76373  0.81635  1.0000
  H   H488      1.0  0.44589  0.84015  0.80057  1.0000
  H   H489      1.0  0.46263  0.78376  0.87994  1.0000
  H   H490      1.0  0.46396  0.84409  0.94153  1.0000
  C   C630      1.0  0.47908  0.82745  0.77893  1.0000
  H   H491      1.0  0.43096  0.86493  0.91198  1.0000
  H   H492      1.0  0.41385  0.84546  0.86657  1.0000
  C   C631      1.0  0.40264  0.71802  0.85233  1.0000
  H   H493      1.0  0.41646  0.75883  0.79405  1.0000
  H   H494      1.0  0.41164  0.81188  0.77217  1.0000
  C   C632      1.0  0.44497  0.95113  0.79458  1.0000
  C   C633      1.0  0.47660  0.88381  0.98108  1.0000
  H   H495      1.0  0.10577  0.69788  0.78258  1.0000
  C   C634      1.0  0.35530  0.83157  0.79467  1.0000
  C   C635      1.0  0.08999  0.82439  0.82062  1.0000
  C   C636      1.0  0.09502  0.81207  0.84846  1.0000
  C   C637      1.0  0.11012  0.79128  0.84861  1.0000
  C   C638      1.0  0.12002  0.78267  0.82091  1.0000
  C   C639      1.0  0.11445  0.79454  0.79278  1.0000
  C   C640      1.0  0.09985  0.81581  0.79288  1.0000
  P   P22       1.0  0.12797  0.78417  0.75715  1.0000
  C   C641      1.0  0.10664  0.78781  0.72603  1.0000
  C   C642      1.0  0.15534  0.80231  0.75088  1.0000
  C   C643      1.0  0.15465  0.82426  0.73316  1.0000
  C   C644      1.0  0.17587  0.83822  0.72834  1.0000
  C   C645      1.0  0.19780  0.83067  0.74163  1.0000
  C   C646      1.0  0.19845  0.80937  0.76024  1.0000
  C   C647      1.0  0.17724  0.79539  0.76519  1.0000
  C   C648      1.0  0.11527  0.79130  0.69556  1.0000
  C   C649      1.0  0.09889  0.79279  0.67119  1.0000
  C   C650      1.0  0.07379  0.79036  0.67702  1.0000
  C   C651      1.0  0.06506  0.78627  0.70718  1.0000
  C   C652      1.0  0.08140  0.78492  0.73164  1.0000
  C   C653      1.0  0.13380  0.75148  0.75964  1.0000
  C   C654      1.0  0.11599  0.73564  0.77275  1.0000
  C   C655      1.0  0.11970  0.71018  0.77310  1.0000
  C   C656      1.0  0.14100  0.70034  0.76000  1.0000
  C   C657      1.0  0.15860  0.71593  0.74650  1.0000
  C   C658      1.0  0.15502  0.74138  0.74631  1.0000
  H   H496      1.0  0.07856  0.84071  0.82055  1.0000
  H   H497      1.0  0.08740  0.81875  0.86996  1.0000
  H   H498      1.0  0.11429  0.78191  0.87023  1.0000
  H   H499      1.0  0.13206  0.76681  0.82151  1.0000
  H   H500      1.0  0.09614  0.82577  0.77153  1.0000
  H   H501      1.0  0.13784  0.83058  0.72282  1.0000
  H   H502      1.0  0.17552  0.85469  0.71377  1.0000
  H   H503      1.0  0.21433  0.84124  0.73715  1.0000
  H   H504      1.0  0.21548  0.80355  0.77054  1.0000
  H   H505      1.0  0.17803  0.77906  0.77990  1.0000
  H   H506      1.0  0.13469  0.79211  0.69053  1.0000
  H   H507      1.0  0.10574  0.79493  0.64768  1.0000
  H   H508      1.0  0.06113  0.79084  0.65805  1.0000
  H   H509      1.0  0.04564  0.78349  0.71139  1.0000
  H   H510      1.0  0.07437  0.78102  0.75472  1.0000
  H   H511      1.0  0.09904  0.74288  0.78211  1.0000
  C   C659      1.0  0.22631  0.79882  0.50527  1.0000
  H   H512      1.0  0.25019  0.86200  0.51286  1.0000
  H   H513      1.0  0.17473  0.70827  0.73541  1.0000
  H   H514      1.0  0.16860  0.75300  0.73499  1.0000
  H   H515      1.0  0.30947  0.81275  0.61104  1.0000
  C   C660      1.0  0.29389  0.79533  0.57178  1.0000
  C   C661      1.0  0.29283  0.80856  0.59902  1.0000
  C   C662      1.0  0.24876  0.81107  0.59542  1.0000
  C   C663      1.0  0.24975  0.79890  0.56723  1.0000
  C   C664      1.0  0.27239  0.79018  0.55617  1.0000
  H   H516      1.0  0.07999  0.73113  0.51108  1.0000
  H   H517      1.0  0.06190  0.70040  0.74641  1.0000
  S   S94       1.0  0.47206  0.91461  0.86786  1.0000
  C   C665      1.0  0.27023  0.81616  0.61100  1.0000
  C   C666      1.0  0.21458  0.74315  0.53441  1.0000
  C   C667      1.0  0.42103  0.94951  0.67408  1.0000
  C   C668      1.0  0.16076  0.84575  0.57789  1.0000
  C   C669      1.0  0.18439  0.85463  0.57196  1.0000
  C   C670      1.0  0.20285  0.83869  0.56194  1.0000
  C   C671      1.0  0.20595  0.71955  0.54208  1.0000
  H   H518      1.0  0.31139  0.78914  0.56270  1.0000
  H   H519      1.0  0.23147  0.81672  0.60550  1.0000
  C   C672      1.0  0.19578  0.73260  0.59372  1.0000
  C   C673      1.0  0.02774  0.71203  0.76718  1.0000
  H   H520      1.0  0.26928  0.82608  0.63240  1.0000
  C   C674      1.0  0.13200  0.68275  0.50868  1.0000
  H   H521      1.0  0.14662  0.85799  0.58633  1.0000
  H   H522      1.0  0.18861  0.87373  0.57592  1.0000
  H   H523      1.0  0.22115  0.84579  0.55789  1.0000
  C   C675      1.0  0.98771  0.76461  0.53831  1.0000
  H   H524      1.0  0.40391  0.71560  0.80280  1.0000
  H   H525      1.0  0.06841  0.67068  0.55837  1.0000
  H   H526      1.0  0.39789  0.94133  0.73039  1.0000
  C   C676      1.0  0.41117  0.94470  0.74788  1.0000
  C   C677      1.0  0.01466  0.72744  0.67792  1.0000
  H   H527      1.0  0.36146  0.95094  0.69729  1.0000
  H   H528      1.0  0.37946  0.81479  0.86371  1.0000
  C   C678      1.0  0.17394  0.80500  0.56343  1.0000
  H   H529      1.0  0.45813  0.95317  0.81271  1.0000
  H   H530      1.0  0.39696  0.69910  0.85608  1.0000
  C   C679      1.0  0.19627  0.71437  0.57158  1.0000
  H   H531      1.0  0.20378  0.77008  0.60370  1.0000
  H   H532      1.0  0.16937  0.78592  0.56007  1.0000
  C   C680      1.0  0.10779  0.83041  0.51529  1.0000
  H   H533      1.0  0.31149  0.95285  0.77440  1.0000
  C   C681      1.0  0.46738  0.90369  0.71292  1.0000
  C   C682      1.0  0.47824  0.98318  0.86082  1.0000
  C   C683      1.0  0.19790  0.81366  0.55818  1.0000
  H   H534      1.0  0.14349  0.68056  0.75953  1.0000
  P   P23       1.0  0.22213  0.79303  0.54637  1.0000
  C   C684      1.0  0.45278  0.95173  0.76370  1.0000
  H   H535      1.0  0.40229  0.72612  0.90073  1.0000
  H   H536      1.0  0.20650  0.70525  0.52511  1.0000
  H   H537      1.0  0.47203  0.95447  0.75834  1.0000
  C   C685      1.0  0.00396  0.70508  0.77582  1.0000
  C   C686      1.0  0.46410  0.97766  0.69689  1.0000
  H   H538      1.0  0.18842  0.72854  0.61670  1.0000
  C   C687      1.0  0.21325  0.76182  0.55621  1.0000
  C   C688      1.0  0.08202  0.78891  0.53697  1.0000
  H   H539      1.0  0.01166  0.72474  0.56415  1.0000
  P   P24       1.0  0.44638  0.94971  0.70039  1.0000
  C   C689      1.0  0.43591  0.94840  0.74011  1.0000
  H   H540      1.0  0.18910  0.69622  0.57735  1.0000
  H   H541      1.0  0.11705  0.84682  0.50678  1.0000
  C   C690      1.0  0.04036  0.69811  0.56446  1.0000
  H   H542      1.0  0.03383  0.73067  0.77055  1.0000
  H   H543      1.0  0.41279  0.91108  0.68347  1.0000
  H   H544      1.0  0.24632  0.93428  0.54839  1.0000
  C   C691      1.0  0.46459  0.92304  0.69127  1.0000
  H   H545      1.0  0.00591  0.76864  0.52929  1.0000
  C   C692      1.0  0.42025  0.94775  0.80212  1.0000
  C   C693      1.0  0.04652  0.67530  0.51773  1.0000
  C   C694      1.0  0.10949  0.80843  0.49906  1.0000
  C   C695      1.0  0.31364  0.91567  0.51079  1.0000
  H   H546      1.0  0.36658  0.94698  0.61744  1.0000
  H   H547      1.0  0.24776  0.88988  0.55711  1.0000
  C   C696      1.0  0.24740  0.89732  0.53368  1.0000
  H   H548      1.0  0.46329  0.88467  0.96299  1.0000
  C   C697      1.0  0.38184  0.94774  0.63309  1.0000
  H   H549      1.0  0.47960  0.80369  0.92544  1.0000
  H   H550      1.0  0.41429  0.94679  0.82611  1.0000
  H   H551      1.0  0.38420  0.94180  0.78462  1.0000
  C   C698      1.0  0.09574  0.78800  0.50949  1.0000
  C   C699      1.0  0.30676  0.86512  0.51878  1.0000
  C   C700      1.0  0.33651  0.94901  0.73600  1.0000
  C   C701      1.0  0.38862  0.92669  0.64994  1.0000
  C   C702      1.0  0.03556  0.67108  0.74859  1.0000
  C   C703      1.0  0.09380  0.83138  0.54263  1.0000
  H   H552      1.0  0.30413  0.84553  0.52196  1.0000
  H   H553      1.0  0.37855  0.90970  0.64748  1.0000
  H   H554      1.0  0.28326  0.98722  0.64591  1.0000
  C   C704      1.0  0.40569  0.73324  0.87748  1.0000
  C   C705      1.0  0.35312  0.96094  0.71601  1.0000
  H   H555      1.0  0.48415  0.84549  0.77003  1.0000
  H   H556      1.0  0.37363  0.82878  0.75055  1.0000
  H   H557      1.0  0.34170  0.83225  0.84153  1.0000
  H   H558      1.0  0.31656  0.93522  0.50768  1.0000
  H   H559      1.0  0.05683  0.66190  0.50470  1.0000
  H   H560      1.0  0.41723  0.94135  0.96302  1.0000
  C   C706      1.0  0.47866  0.94197  0.94874  1.0000
  C   C707      1.0  0.47447  0.92064  0.66136  1.0000
  H   H561      1.0  0.09266  0.84830  0.55525  1.0000
  C   C708      1.0  0.39459  0.96968  0.63660  1.0000
  H   H562      1.0  0.07046  0.81116  0.57494  1.0000
  H   H563      1.0  0.48214  0.86748  0.72161  1.0000
  H   H564      1.0  0.28039  0.96843  0.54206  1.0000
  C   C709      1.0  0.32515  0.96192  0.75975  1.0000
  C   C710      1.0  0.99592  0.68116  0.77072  1.0000
  H   H565      1.0  0.47191  0.93509  0.64408  1.0000
  C   C711      1.0  0.43624  0.94663  0.96480  1.0000
  H   H566      1.0  0.47386  0.96439  0.86652  1.0000
  C   C712      1.0  0.24782  0.93269  0.49821  1.0000
  H   H567      1.0  0.25996  0.81971  0.50858  1.0000
  H   H568      1.0  0.42400  0.98766  0.65855  1.0000
  H   H569      1.0  0.14629  0.66896  0.50806  1.0000
  C   C713      1.0  0.48013  0.88240  0.70486  1.0000
  H   H570      1.0  0.16203  0.72884  0.50601  1.0000
  C   C714      1.0  0.05309  0.68026  0.54795  1.0000
  H   H571      1.0  0.15903  0.83051  0.50862  1.0000
  H   H572      1.0  0.19556  0.95368  0.49805  1.0000
  C   C715      1.0  0.26422  0.97916  0.54780  1.0000
  C   C716      1.0  0.48558  0.95964  0.96993  1.0000
  H   H573      1.0  0.04797  0.65837  0.73763  1.0000
  H   H574      1.0  0.38921  0.98596  0.62350  1.0000
  H   H575      1.0  0.99151  0.71839  0.78575  1.0000
  P   P25       1.0  0.98988  0.72318  0.50196  1.0000
  H   H576      1.0  0.09576  0.77126  0.49642  1.0000
  C   C717      1.0  0.44301  0.96416  0.98601  1.0000
  H   H577      1.0  0.98927  0.71703  0.71461  1.0000
  C   C718      1.0  0.33032  0.98681  0.76351  1.0000
  C   C719      1.0  0.35859  0.98573  0.71986  1.0000
  H   H578      1.0  0.27702  0.98707  0.59295  1.0000
  H   H579      1.0  0.19350  0.85957  0.50200  1.0000
  C   C720      1.0  0.02713  0.68809  0.50405  1.0000
  H   H580      1.0  0.98699  0.79594  0.56783  1.0000
  C   C721      1.0  0.88230  0.28812  0.24368  1.0000
  S   S95       1.0  0.55646  0.11850  0.21351  1.0000
  H   H581      1.0  0.51174  0.04776  0.19369  1.0000
  Fe  Fe48      1.0  0.69635  0.10403  0.36595  1.0000
  S   S96       1.0  0.66209  0.12217  0.38413  1.0000
  S   S97       1.0  0.69453  0.06270  0.37764  1.0000
  Fe  Fe49      1.0  0.71949  0.15452  0.34750  1.0000
  S   S98       1.0  0.68598  0.17508  0.36322  1.0000
  S   S99       1.0  0.75661  0.17185  0.33249  1.0000
  Fe  Fe50      1.0  0.68668  0.14976  0.40497  1.0000
  S   S100      1.0  0.68259  0.16760  0.45161  1.0000
  Fe  Fe51      1.0  0.66362  0.14559  0.34078  1.0000
  S   S101      1.0  0.62590  0.15509  0.32058  1.0000
  S   S102      1.0  0.72091  0.13021  0.39031  1.0000
  S   S103      1.0  0.69717  0.12650  0.32134  1.0000
  Fe  Fe52      1.0  0.84795  0.29487  0.35101  1.0000
  H   H582      1.0  0.59015  0.23006  0.25715  1.0000
  S   S104      1.0  0.80991  0.27663  0.34665  1.0000
  Fe  Fe53      1.0  0.90322  0.30184  0.33548  1.0000
  S   S105      1.0  0.93346  0.28801  0.30360  1.0000
  H   H583      1.0  0.82488  0.23960  0.39935  1.0000
  C   C722      1.0  0.83675  0.25804  0.43975  1.0000
  S   S106      1.0  0.88229  0.27752  0.36932  1.0000
  P   P26       1.0  0.55926  0.21428  0.20707  1.0000
  C   C723      1.0  0.78815  0.30796  0.22958  1.0000
  C   C724      1.0  0.51023  0.20477  0.22133  1.0000
  C   C725      1.0  0.59885  0.21433  0.24666  1.0000
  H   H584      1.0  0.94839  0.29359  0.43207  1.0000
  C   C726      1.0  0.96563  0.28633  0.30867  1.0000
  H   H585      1.0  0.51462  0.12986  0.07385  1.0000
  C   C727      1.0  0.54106  0.26224  0.21169  1.0000
  H   H586      1.0  0.58134  0.04114  0.39249  1.0000
  H   H587      1.0  0.63040  0.15745  0.21114  1.0000
  C   C728      1.0  0.55537  0.21641  0.14255  1.0000
  C   C729      1.0  0.77116  0.20095  0.33830  1.0000
  C   C730      1.0  0.75799  0.22228  0.34545  1.0000
  C   C731      1.0  0.77019  0.24505  0.34808  1.0000
  C   C732      1.0  0.79579  0.24697  0.34409  1.0000
  C   C733      1.0  0.80903  0.22555  0.33760  1.0000
  C   C734      1.0  0.79678  0.20285  0.33444  1.0000
  H   H588      1.0  0.73832  0.22136  0.34827  1.0000
  H   H589      1.0  0.75965  0.26138  0.35308  1.0000
  H   H590      1.0  0.82867  0.22649  0.33457  1.0000
  H   H591      1.0  0.80725  0.18661  0.32883  1.0000
  H   H592      1.0  0.69083  0.05598  0.47882  1.0000
  H   H593      1.0  0.72711  0.31206  0.24640  1.0000
  C   C735      1.0  0.83987  0.30186  0.24464  1.0000
  H   H594      1.0  0.67612  0.11571  0.46637  1.0000
  H   H595      1.0  0.59156  0.17240  0.19027  1.0000
  H   H596      1.0  0.81539  0.27880  0.27272  1.0000
  C   C736      1.0  0.57476  0.12694  0.24523  1.0000
  C   C737      1.0  0.59907  0.11838  0.24683  1.0000
  C   C738      1.0  0.61470  0.12589  0.27045  1.0000
  C   C739      1.0  0.60635  0.14254  0.29242  1.0000
  C   C740      1.0  0.58185  0.15055  0.29126  1.0000
  C   C741      1.0  0.56608  0.14259  0.26808  1.0000
  H   H597      1.0  0.60602  0.10624  0.22934  1.0000
  H   H598      1.0  0.63348  0.11962  0.27096  1.0000
  H   H599      1.0  0.57512  0.16333  0.30819  1.0000
  H   H600      1.0  0.54738  0.14903  0.26737  1.0000
  C   C742      1.0  0.71586  0.03318  0.33239  1.0000
  C   C743      1.0  0.70086  0.03461  0.35882  1.0000
  C   C744      1.0  0.69130  0.01276  0.37203  1.0000
  H   H601      1.0  0.72359  0.04977  0.32210  1.0000
  H   H602      1.0  0.67983  0.01357  0.39255  1.0000
  H   H603      1.0  0.55603  0.20035  0.27358  1.0000
  H   H604      1.0  0.68379  0.07447  0.31112  1.0000
  C   C745      1.0  0.69710  0.98972  0.35964  1.0000
  C   C746      1.0  0.72899  0.20801  0.46998  1.0000
  C   C747      1.0  0.57045  0.05194  0.30543  1.0000
  H   H605      1.0  0.55581  0.06065  0.20603  1.0000
  C   C748      1.0  0.55853  0.03145  0.29364  1.0000
  C   C749      1.0  0.50698  0.98982  0.16725  1.0000
  C   C750      1.0  0.82186  0.24205  0.42387  1.0000
  C   C751      1.0  0.49260  0.13210  0.99990  1.0000
  H   H606      1.0  0.73974  0.05221  0.45795  1.0000
  C   C752      1.0  0.73157  0.09092  0.45643  1.0000
  C   C753      1.0  0.53414  0.20539  0.23265  1.0000
  S   S107      1.0  0.48754  0.10890  0.24169  1.0000
  H   H607      1.0  0.57810  0.06933  0.43591  1.0000
  C   C754      1.0  0.54245  0.18206  0.11221  1.0000
  C   C755      1.0  0.54288  0.28786  0.20924  1.0000
  H   H608      1.0  0.52387  0.25421  0.21939  1.0000
  C   C756      1.0  0.50384  0.03008  0.18952  1.0000
  H   H609      1.0  0.59898  0.24736  0.18803  1.0000
  H   H610      1.0  0.71809  0.22151  0.48202  1.0000
  H   H611      1.0  0.50672  0.20915  0.19731  1.0000
  H   H612      1.0  0.76596  0.15855  0.42598  1.0000
  C   C757      1.0  0.58323  0.25850  0.19413  1.0000
  H   H613      1.0  0.71248  0.01951  0.43643  1.0000
  H   H614      1.0  0.72768  0.27131  0.22188  1.0000
  H   H615      1.0  0.64141  0.01528  0.32901  1.0000
  C   C758      1.0  0.58463  0.07606  0.41354  1.0000
  C   C759      1.0  0.51694  0.01295  0.17217  1.0000
  Fe  Fe54      1.0  0.51497  0.12152  0.20568  1.0000
  H   H616      1.0  0.53494  0.14837  0.13771  1.0000
  C   C760      1.0  0.67603  0.12554  0.48769  1.0000
  H   H617      1.0  0.66609  0.99570  0.28347  1.0000
  C   C761      1.0  0.81371  0.24912  0.48720  1.0000
  C   C762      1.0  0.58788  0.20261  0.22191  1.0000
  C   C763      1.0  0.87619  0.26813  0.26308  1.0000
  Fe  Fe55      1.0  0.88428  0.31001  0.40049  1.0000
  H   H618      1.0  0.53119  0.06073  0.12757  1.0000
  C   C764      1.0  0.51824  0.19319  0.28349  1.0000
  H   H619      1.0  0.56499  0.01158  0.35607  1.0000
  H   H620      1.0  0.52873  0.13289  0.01892  1.0000
  C   C765      1.0  0.58289  0.00321  0.35352  1.0000
  C   C766      1.0  0.72164  0.01004  0.31992  1.0000
  H   H621      1.0  0.59026  0.11305  0.42884  1.0000
  H   H622      1.0  0.84417  0.27461  0.48286  1.0000
  H   H623      1.0  0.59303  0.07909  0.18243  1.0000
  H   H624      1.0  0.51145  0.06019  0.25710  1.0000
  C   C767      1.0  0.66241  0.06041  0.44604  1.0000
  C   C768      1.0  0.57195  0.02462  0.21223  1.0000
  C   C769      1.0  0.51125  0.01543  0.06516  1.0000
  C   C770      1.0  0.59145  0.10068  0.40963  1.0000
  C   C771      1.0  0.60258  0.01685  0.34079  1.0000
  H   H625      1.0  0.71484  0.08877  0.44370  1.0000
  C   C772      1.0  0.76650  0.27195  0.21243  1.0000
  C   C773      1.0  0.63231  0.18511  0.24561  1.0000
  C   C774      1.0  0.62176  0.17358  0.22070  1.0000
  H   H626      1.0  0.64898  0.17782  0.25554  1.0000
  H   H627      1.0  0.52724  0.29924  0.21507  1.0000
  C   C775      1.0  0.56129  0.07555  0.29855  1.0000
  P   P27       1.0  0.59815  0.04841  0.32741  1.0000
  C   C776      1.0  0.62412  0.05804  0.30387  1.0000
  C   C777      1.0  0.59558  0.06862  0.35989  1.0000
  C   C778      1.0  0.60223  0.09345  0.35621  1.0000
  C   C779      1.0  0.60005  0.10939  0.38090  1.0000
  C   C780      1.0  0.58657  0.06008  0.38876  1.0000
  C   C781      1.0  0.64630  0.06353  0.31795  1.0000
  C   C782      1.0  0.66671  0.07049  0.30003  1.0000
  C   C783      1.0  0.66509  0.07244  0.26800  1.0000
  C   C784      1.0  0.64303  0.06724  0.25380  1.0000
  C   C785      1.0  0.62258  0.05993  0.27160  1.0000
  H   H628      1.0  0.57068  0.09180  0.30599  1.0000
  H   H629      1.0  0.60925  0.10065  0.33430  1.0000
  H   H630      1.0  0.60538  0.12850  0.37774  1.0000
  H   H631      1.0  0.64796  0.06224  0.34283  1.0000
  H   H632      1.0  0.62876  0.21388  0.27850  1.0000
  H   H633      1.0  0.68090  0.07823  0.25428  1.0000
  H   H634      1.0  0.64172  0.06933  0.22904  1.0000
  H   H635      1.0  0.60564  0.05610  0.26014  1.0000
  C   C786      1.0  0.53599  0.01770  0.07225  1.0000
  C   C787      1.0  0.54318  0.03394  0.09480  1.0000
  C   C788      1.0  0.52564  0.04798  0.11023  1.0000
  H   H636      1.0  0.79111  0.21753  0.42685  1.0000
  H   H637      1.0  0.53349  0.09681  0.27554  1.0000
  C   C789      1.0  0.96524  0.29557  0.44464  1.0000
  C   C790      1.0  0.83269  0.26165  0.47121  1.0000
  H   H638      1.0  0.54450  0.16566  0.18821  1.0000
  C   C791      1.0  0.50141  0.13000  0.05559  1.0000
  H   H639      1.0  0.85130  0.26798  0.42761  1.0000
  H   H640      1.0  0.63039  0.05352  0.17491  1.0000
  C   C792      1.0  0.76116  0.11745  0.48013  1.0000
  C   C793      1.0  0.53793  0.19996  0.26405  1.0000
  C   C794      1.0  0.79867  0.23319  0.47099  1.0000
  C   C795      1.0  0.50937  0.13176  0.02429  1.0000
  S   S108      1.0  0.89502  0.29922  0.44940  1.0000
  H   H641      1.0  0.62972  0.00747  0.25353  1.0000
  C   C796      1.0  0.74068  0.18914  0.48656  1.0000
  H   H642      1.0  0.54962  0.00684  0.06038  1.0000
  H   H643      1.0  0.52763  0.01856  0.26828  1.0000
  C   C797      1.0  0.67594  0.04693  0.46764  1.0000
  C   C798      1.0  0.78826  0.28508  0.21524  1.0000
  C   C799      1.0  0.97812  0.29738  0.33283  1.0000
  H   H644      1.0  0.89038  0.25567  0.27108  1.0000
  H   H645      1.0  0.55101  0.21795  0.09316  1.0000
  C   C800      1.0  0.74561  0.07033  0.46442  1.0000
  H   H646      1.0  0.56231  0.03566  0.10038  1.0000
  H   H647      1.0  0.73995  0.99926  0.39940  1.0000
  C   C801      1.0  0.76589  0.31776  0.24041  1.0000
  H   H648      1.0  0.66690  0.07944  0.44078  1.0000
  C   C802      1.0  0.54010  0.07849  0.28125  1.0000
  C   C803      1.0  0.62564  0.00546  0.33816  1.0000
  H   H649      1.0  0.96787  0.30724  0.35019  1.0000
  C   C804      1.0  0.85197  0.26475  0.27303  1.0000
  C   C805      1.0  0.54619  0.17718  0.16757  1.0000
  H   H650      1.0  0.80522  0.27723  0.20663  1.0000
  H   H651      1.0  0.53483  0.01750  0.16273  1.0000
  H   H652      1.0  0.60200  0.29259  0.18399  1.0000
  C   C806      1.0  0.80282  0.22964  0.43944  1.0000
  C   C807      1.0  0.56483  0.29879  0.19931  1.0000
  C   C808      1.0  0.53697  0.03442  0.27702  1.0000
  C   C809      1.0  0.52780  0.05793  0.27070  1.0000
  S   S109      1.0  0.48989  0.15152  0.18685  1.0000
  C   C810      1.0  0.63892  0.02421  0.43517  1.0000
  C   C811      1.0  0.64417  0.04903  0.42953  1.0000
  H   H653      1.0  0.56079  0.23547  0.14335  1.0000
  S   S110      1.0  0.86872  0.31686  0.31402  1.0000
  C   C812      1.0  0.54077  0.16734  0.13899  1.0000
  C   C813      1.0  0.50084  0.04521  0.10393  1.0000
  S   S111      1.0  0.50280  0.09454  0.17029  1.0000
  C   C814      1.0  0.75410  0.17112  0.47094  1.0000
  C   C815      1.0  0.55352  0.20175  0.16962  1.0000
  C   C816      1.0  0.56127  0.24738  0.20424  1.0000
  H   H654      1.0  0.55519  0.01695  0.22162  1.0000
  H   H655      1.0  0.50607  0.00341  0.04688  1.0000
  C   C817      1.0  0.62083  0.20544  0.25863  1.0000
  H   H656      1.0  0.63485  0.05936  0.41163  1.0000
  C   C818      1.0  0.73048  0.20888  0.43774  1.0000
  C   C819      1.0  0.74376  0.19094  0.42208  1.0000
  C   C820      1.0  0.75572  0.17226  0.43858  1.0000
  H   H657      1.0  0.73365  0.00910  0.29987  1.0000
  H   H658      1.0  0.79788  0.29713  0.48555  1.0000
  C   C821      1.0  0.74416  0.30459  0.23752  1.0000
  H   H659      1.0  0.53782  0.17450  0.09013  1.0000
  H   H660      1.0  0.56591  0.01323  0.29693  1.0000
  H   H661      1.0  0.72758  0.13003  0.45894  1.0000
  C   C822      1.0  0.74447  0.28166  0.22368  1.0000
  C   C823      1.0  0.73911  0.11438  0.46462  1.0000
  H   H662      1.0  0.72080  0.22302  0.42481  1.0000
  H   H663      1.0  0.74446  0.19122  0.39709  1.0000
  H   H664      1.0  0.78360  0.22366  0.48242  1.0000
  C   C824      1.0  0.59955  0.18213  0.20901  1.0000
  C   C825      1.0  0.57209  0.04942  0.20299  1.0000
  C   C826      1.0  0.96435  0.30350  0.47510  1.0000
  H   H665      1.0  0.48769  0.05634  0.11638  1.0000
  C   C827      1.0  0.80235  0.15359  0.48123  1.0000
  C   C828      1.0  0.88563  0.31426  0.48332  1.0000
  C   C829      1.0  0.83389  0.28150  0.26392  1.0000
  H   H666      1.0  0.84726  0.24958  0.28864  1.0000
  H   H667      1.0  0.62515  0.01525  0.42181  1.0000
  H   H668      1.0  0.49034  0.09091  0.32292  1.0000
  C   C830      1.0  0.71970  0.00150  0.44238  1.0000
  C   C831      1.0  0.58499  0.28411  0.19173  1.0000
  C   C832      1.0  0.54983  0.20655  0.11397  1.0000
  H   H669      1.0  0.96984  0.26526  0.26756  1.0000
  H   H670      1.0  0.52138  0.18849  0.30752  1.0000
  C   C833      1.0  0.97918  0.27385  0.28625  1.0000
  H   H671      1.0  0.94412  0.31737  0.24743  1.0000
  C   C834      1.0  0.65233  0.01064  0.45692  1.0000
  H   H672      1.0  0.54595  0.05291  0.99364  1.0000
  H   H673      1.0  0.63071  0.00994  0.19238  1.0000
  C   C835      1.0  0.59310  0.01010  0.20893  1.0000
  C   C836      1.0  0.61423  0.02079  0.19548  1.0000
  C   C837      1.0  0.61413  0.04546  0.18556  1.0000
  C   C838      1.0  0.59313  0.05984  0.18963  1.0000
  H   H674      1.0  0.76677  0.25408  0.20192  1.0000
  C   C839      1.0  0.67112  0.02183  0.47323  1.0000
  H   H675      1.0  0.94666  0.30725  0.48573  1.0000
  H   H676      1.0  0.54407  0.00848  0.00412  1.0000
  H   H677      1.0  0.64860  0.99128  0.45990  1.0000
  C   C840      1.0  0.49461  0.19212  0.27185  1.0000
  C   C841      1.0  0.49337  0.02853  0.08169  1.0000
  C   C842      1.0  0.49060  0.19810  0.24087  1.0000
  H   H678      1.0  0.90122  0.29097  0.23668  1.0000
  C   C843      1.0  0.86425  0.30490  0.23439  1.0000
  H   H679      1.0  0.81117  0.31595  0.30127  1.0000
  H   H680      1.0  0.56621  0.31864  0.19745  1.0000
  C   C844      1.0  0.83797  0.14636  0.44825  1.0000
  C   C845      1.0  0.83731  0.18110  0.48207  1.0000
  H   H681      1.0  0.86750  0.17225  0.45165  1.0000
  C   C846      1.0  0.67918  0.15100  0.48688  1.0000
  H   H682      1.0  0.84593  0.19745  0.49059  1.0000
  C   C847      1.0  0.84942  0.16696  0.46004  1.0000
  H   H683      1.0  0.84712  0.13578  0.43056  1.0000
  H   H684      1.0  0.80549  0.12443  0.44812  1.0000
  C   C848      1.0  0.81442  0.13981  0.45855  1.0000
  H   H685      1.0  0.86963  0.32040  0.21988  1.0000
  C   C849      1.0  0.73536  0.99008  0.42123  1.0000
  C   C850      1.0  0.76717  0.07315  0.48078  1.0000
  C   C851      1.0  0.98605  0.30648  0.49150  1.0000
  C   C852      1.0  0.71303  0.98941  0.47029  1.0000
  H   H686      1.0  0.77788  0.05713  0.48729  1.0000
  C   C853      1.0  0.77490  0.09662  0.48872  1.0000
  C   C854      1.0  0.81378  0.17458  0.49240  1.0000
  P   P28       1.0  0.77078  0.14753  0.49160  1.0000
  H   H687      1.0  0.89298  0.22850  0.54971  1.0000
  S   S112      1.0  0.54320  0.10607  0.81282  1.0000
  Fe  Fe56      1.0  0.67397  0.12136  0.62693  1.0000
  S   S113      1.0  0.71052  0.10974  0.64536  1.0000
  S   S114      1.0  0.66501  0.10930  0.57863  1.0000
  Fe  Fe57      1.0  0.65450  0.13727  0.69044  1.0000
  S   S115      1.0  0.69014  0.12692  0.71267  1.0000
  S   S116      1.0  0.62250  0.15432  0.71821  1.0000
  Fe  Fe58      1.0  0.70924  0.14529  0.67145  1.0000
  S   S117      1.0  0.74530  0.16649  0.67930  1.0000
  Fe  Fe59      1.0  0.68870  0.09269  0.68446  1.0000
  S   S118      1.0  0.69401  0.05453  0.70607  1.0000
  S   S119      1.0  0.67357  0.15794  0.65055  1.0000
  S   S120      1.0  0.65212  0.10206  0.66481  1.0000
  Fe  Fe60      1.0  0.83883  0.28903  0.65555  1.0000
  C   C855      1.0  0.58713  0.03288  0.72358  1.0000
  S   S121      1.0  0.80255  0.26791  0.64877  1.0000
  Fe  Fe61      1.0  0.89560  0.29326  0.65566  1.0000
  S   S122      1.0  0.93151  0.27174  0.65734  1.0000
  C   C856      1.0  0.88504  0.31495  0.53961  1.0000
  C   C857      1.0  0.52140  0.05206  0.95557  1.0000
  C   C858      1.0  0.60581  0.03063  0.70138  1.0000
  S   S123      1.0  0.86669  0.29066  0.69351  1.0000
  S   S124      1.0  0.86809  0.28824  0.61818  1.0000
  C   C859      1.0  0.96036  0.28681  0.65764  1.0000
  C   C860      1.0  0.73290  0.01891  0.52808  1.0000
  P   P29       1.0  0.80795  0.25494  0.52762  1.0000
  C   C861      1.0  0.74929  0.31012  0.66470  1.0000
  C   C862      1.0  0.69312  0.03206  0.83691  1.0000
  H   H688      1.0  0.84229  0.22557  0.62660  1.0000
  C   C863      1.0  0.67059  0.04328  0.83078  1.0000
  C   C864      1.0  0.89164  0.30351  0.51195  1.0000
  P   P30       1.0  0.74345  0.30532  0.70561  1.0000
  H   H689      1.0  0.80266  0.15123  0.54628  1.0000
  C   C865      1.0  0.69890  0.00931  0.82429  1.0000
  H   H690      1.0  0.52222  0.07177  0.95115  1.0000
  C   C866      1.0  0.76159  0.19412  0.66857  1.0000
  C   C867      1.0  0.78477  0.19824  0.68126  1.0000
  C   C868      1.0  0.79779  0.22035  0.67511  1.0000
  C   C869      1.0  0.78786  0.23878  0.65598  1.0000
  C   C870      1.0  0.76514  0.23423  0.64232  1.0000
  C   C871      1.0  0.75202  0.21223  0.64867  1.0000
  H   H691      1.0  0.79251  0.18441  0.69658  1.0000
  H   H692      1.0  0.81524  0.22331  0.68573  1.0000
  H   H693      1.0  0.75755  0.24785  0.62672  1.0000
  H   H694      1.0  0.73438  0.20943  0.63849  1.0000
  C   C872      1.0  0.56443  0.12028  0.78598  1.0000
  C   C873      1.0  0.56870  0.14563  0.78466  1.0000
  C   C874      1.0  0.58632  0.15566  0.76367  1.0000
  C   C875      1.0  0.60010  0.14057  0.74381  1.0000
  C   C876      1.0  0.59543  0.11527  0.74467  1.0000
  C   C877      1.0  0.57777  0.10528  0.76559  1.0000
  H   H695      1.0  0.55881  0.15748  0.80020  1.0000
  H   H696      1.0  0.58960  0.17526  0.76315  1.0000
  H   H697      1.0  0.60562  0.10338  0.72943  1.0000
  H   H698      1.0  0.57450  0.08576  0.76600  1.0000
  C   C878      1.0  0.69661  0.00467  0.69783  1.0000
  C   C879      1.0  0.69811  0.02806  0.68343  1.0000
  C   C880      1.0  0.70290  0.02981  0.65163  1.0000
  H   H699      1.0  0.69298  0.00316  0.72240  1.0000
  H   H700      1.0  0.70413  0.04770  0.64028  1.0000
  H   H701      1.0  0.92148  0.30263  0.71994  1.0000
  C   C881      1.0  0.67169  0.12573  0.54388  1.0000
  C   C882      1.0  0.67544  0.15115  0.54316  1.0000
  H   H702      1.0  0.51211  0.10606  0.68157  1.0000
  H   H703      1.0  0.67493  0.16116  0.56442  1.0000
  H   H704      1.0  0.54351  0.05233  0.85263  1.0000
  H   H705      1.0  0.66918  0.09333  0.51646  1.0000
  C   C883      1.0  0.50382  0.09807  0.75112  1.0000
  H   H706      1.0  0.58208  0.14080  0.66807  1.0000
  H   H707      1.0  0.49559  0.04576  0.91978  1.0000
  H   H708      1.0  0.50200  0.03815  0.69522  1.0000
  H   H709      1.0  0.75096  0.19488  0.57780  1.0000
  H   H710      1.0  0.58635  0.98896  0.87846  1.0000
  H   H711      1.0  0.55422  0.10584  0.65948  1.0000
  Fe  Fe62      1.0  0.51067  0.11633  0.84485  1.0000
  H   H712      1.0  0.61974  0.00303  0.84345  1.0000
  C   C884      1.0  0.73576  0.14227  0.57541  1.0000
  H   H713      1.0  0.79152  0.09857  0.50165  1.0000
  H   H714      1.0  0.72852  0.27856  0.65070  1.0000
  C   C885      1.0  0.56270  0.01958  0.86765  1.0000
  H   H715      1.0  0.51248  0.00197  0.60413  1.0000
  C   C886      1.0  0.85579  0.23869  0.53961  1.0000
  C   C887      1.0  0.97906  0.29008  0.55489  1.0000
  C   C888      1.0  0.51565  0.14171  0.70211  1.0000
  C   C889      1.0  0.52388  0.12172  0.68475  1.0000
  C   C890      1.0  0.54767  0.12149  0.67224  1.0000
  C   C891      1.0  0.56335  0.14122  0.67686  1.0000
  C   C892      1.0  0.55514  0.16140  0.69346  1.0000
  C   C893      1.0  0.53136  0.16177  0.70592  1.0000
  C   C894      1.0  0.87453  0.23046  0.55889  1.0000
  H   H716      1.0  0.98047  0.25342  0.66721  1.0000
  S   S125      1.0  0.50397  0.13416  0.96064  1.0000
  C   C895      1.0  0.95494  0.28226  0.56085  1.0000
  C   C896      1.0  0.98175  0.27309  0.66346  1.0000
  H   H717      1.0  0.75076  0.14373  0.62096  1.0000
  H   H718      1.0  0.95871  0.27891  0.73315  1.0000
  C   C897      1.0  0.67213  0.11297  0.51607  1.0000
  H   H719      1.0  0.49380  0.05136  0.84152  1.0000
  C   C898      1.0  0.80748  0.28778  0.53283  1.0000
  C   C899      1.0  0.50272  0.16036  0.77565  1.0000
  H   H720      1.0  0.56758  0.17644  0.69745  1.0000
  H   H721      1.0  0.52565  0.17747  0.71912  1.0000
  H   H722      1.0  0.68139  0.99495  0.56376  1.0000
  C   C900      1.0  0.74312  0.29857  0.61157  1.0000
  C   C901      1.0  0.49731  0.98883  0.84001  1.0000
  H   H723      1.0  0.52145  0.10710  0.75059  1.0000
  C   C902      1.0  0.75267  0.21211  0.56495  1.0000
  C   C903      1.0  0.75696  0.31870  0.60110  1.0000
  H   H724      1.0  0.70328  0.27045  0.69852  1.0000
  C   C904      1.0  0.50641  0.03742  0.93791  1.0000
  C   C905      1.0  0.74062  0.27269  0.71421  1.0000
  C   C906      1.0  0.76010  0.25920  0.72688  1.0000
  C   C907      1.0  0.75749  0.23409  0.73376  1.0000
  C   C908      1.0  0.73557  0.22218  0.72777  1.0000
  C   C909      1.0  0.71611  0.23539  0.71508  1.0000
  C   C910      1.0  0.71854  0.26055  0.70847  1.0000
  H   H725      1.0  0.64678  0.99968  0.78519  1.0000
  C   C911      1.0  0.51877  0.00108  0.96752  1.0000
  H   H726      1.0  0.51782  0.01795  0.81717  1.0000
  H   H727      1.0  0.79671  0.30161  0.70003  1.0000
  H   H728      1.0  0.67583  0.04373  0.53649  1.0000
  C   C912      1.0  0.77816  0.24316  0.53922  1.0000
  C   C913      1.0  0.70762  0.05517  0.56048  1.0000
  C   C914      1.0  0.79237  0.31384  0.71875  1.0000
  H   H729      1.0  0.73894  0.18856  0.51138  1.0000
  S   S126      1.0  0.49677  0.15086  0.86748  1.0000
  C   C915      1.0  0.70789  0.02276  0.52282  1.0000
  C   C916      1.0  0.74518  0.03331  0.54915  1.0000
  C   C917      1.0  0.74083  0.14357  0.54371  1.0000
  H   H730      1.0  0.71404  0.21976  0.56703  1.0000
  H   H731      1.0  0.74292  0.00464  0.51627  1.0000
  H   H732      1.0  0.70634  0.04131  0.85087  1.0000
  H   H733      1.0  0.77748  0.26772  0.73113  1.0000
  H   H734      1.0  0.77277  0.22365  0.74285  1.0000
  H   H735      1.0  0.73391  0.20253  0.73214  1.0000
  H   H736      1.0  0.69930  0.22594  0.70995  1.0000
  C   C918      1.0  0.48948  0.03235  0.84700  1.0000
  H   H737      1.0  0.89021  0.30667  0.56141  1.0000
  H   H738      1.0  0.74195  0.06251  0.58183  1.0000
  C   C919      1.0  0.53356  0.01604  0.98544  1.0000
  H   H739      1.0  0.51806  0.17688  0.81548  1.0000
  C   C920      1.0  0.96981  0.24892  0.59345  1.0000
  C   C921      1.0  0.75465  0.14474  0.59637  1.0000
  C   C922      1.0  0.77568  0.22022  0.55452  1.0000
  C   C923      1.0  0.50304  0.01346  0.83323  1.0000
  H   H740      1.0  0.56821  0.03135  0.71701  1.0000
  H   H741      1.0  0.68152  0.18346  0.51416  1.0000
  S   S127      1.0  0.50624  0.09439  0.88940  1.0000
  C   C924      1.0  0.86965  0.22545  0.59015  1.0000
  H   H742      1.0  0.67008  0.31811  0.77156  1.0000
  H   H743      1.0  0.71079  0.00987  0.61010  1.0000
  C   C925      1.0  0.82733  0.23703  0.58299  1.0000
  H   H744      1.0  0.80429  0.18622  0.50864  1.0000
  C   C926      1.0  0.62399  0.11764  0.83299  1.0000
  C   C927      1.0  0.63669  0.13049  0.80953  1.0000
  C   C928      1.0  0.64645  0.11789  0.78447  1.0000
  C   C929      1.0  0.64289  0.09257  0.78225  1.0000
  C   C930      1.0  0.62939  0.07961  0.80519  1.0000
  C   C931      1.0  0.62074  0.09224  0.83116  1.0000
  P   P31       1.0  0.62517  0.04677  0.80230  1.0000
  C   C932      1.0  0.61733  0.04018  0.76291  1.0000
  C   C933      1.0  0.65370  0.03179  0.81188  1.0000
  H   H745      1.0  0.86033  0.24297  0.51576  1.0000
  C   C934      1.0  0.83189  0.24186  0.55143  1.0000
  C   C935      1.0  0.84603  0.22869  0.60216  1.0000
  H   H746      1.0  0.80944  0.24039  0.59313  1.0000
  C   C936      1.0  0.73255  0.05148  0.56527  1.0000
  C   C937      1.0  0.59283  0.03762  0.75422  1.0000
  C   C938      1.0  0.73185  0.22625  0.55907  1.0000
  C   C939      1.0  0.63017  0.03320  0.70980  1.0000
  C   C940      1.0  0.63590  0.03796  0.74036  1.0000
  C   C941      1.0  0.60080  0.03598  0.82800  1.0000
  C   C942      1.0  0.57902  0.04954  0.83073  1.0000
  C   C943      1.0  0.56012  0.04146  0.85054  1.0000
  H   H747      1.0  0.79323  0.14997  0.60209  1.0000
  C   C944      1.0  0.50485  0.01215  0.94404  1.0000
  C   C945      1.0  0.60325  0.01394  0.84521  1.0000
  H   H748      1.0  0.61640  0.12744  0.85242  1.0000
  H   H749      1.0  0.63878  0.15025  0.81051  1.0000
  H   H750      1.0  0.65608  0.12798  0.76617  1.0000
  H   H751      1.0  0.65046  0.08337  0.76236  1.0000
  H   H752      1.0  0.61125  0.08273  0.84997  1.0000
  C   C946      1.0  0.58428  0.00583  0.86502  1.0000
  Fe  Fe63      1.0  0.48962  0.12783  0.91135  1.0000
  H   H753      1.0  0.88428  0.21965  0.60527  1.0000
  H   H754      1.0  0.66666  0.06111  0.84031  1.0000
  C   C947      1.0  0.70670  0.00834  0.63458  1.0000
  H   H755      1.0  0.64473  0.03205  0.69256  1.0000
  H   H756      1.0  0.65491  0.04023  0.74624  1.0000
  H   H757      1.0  0.57669  0.06655  0.81767  1.0000
  H   H758      1.0  0.71783  0.25950  0.53798  1.0000
  C   C948      1.0  0.48838  0.19849  0.79730  1.0000
  H   H759      1.0  0.51785  0.06620  0.77535  1.0000
  H   H760      1.0  0.51518  0.14491  0.77671  1.0000
  C   C949      1.0  0.75708  0.25713  0.53302  1.0000
  C   C950      1.0  0.78382  0.14941  0.55390  1.0000
  C   C951      1.0  0.76482  0.14753  0.53268  1.0000
  C   C952      1.0  0.69526  0.04080  0.53951  1.0000
  H   H761      1.0  0.54795  0.01340  0.88293  1.0000
  C   C953      1.0  0.63890  0.99303  0.64188  1.0000
  C   C954      1.0  0.96235  0.31222  0.65277  1.0000
  C   C955      1.0  0.53477  0.04140  0.97954  1.0000
  H   H762      1.0  0.57802  0.03950  0.77082  1.0000
  C   C956      1.0  0.71477  0.31992  0.71558  1.0000
  C   C957      1.0  0.77865  0.14831  0.58564  1.0000
  H   H763      1.0  0.72607  0.14117  0.52771  1.0000
  C   C958      1.0  0.81219  0.29744  0.56184  1.0000
  H   H764      1.0  0.49276  0.00130  0.93032  1.0000
  H   H765      1.0  0.71657  0.00090  0.82847  1.0000
  H   H766      1.0  0.60153  0.02730  0.67755  1.0000
  C   C959      1.0  0.76793  0.31885  0.72693  1.0000
  H   H767      1.0  0.81602  0.28559  0.58155  1.0000
  H   H768      1.0  0.75843  0.27463  0.52071  1.0000
  C   C960      1.0  0.73402  0.24864  0.54281  1.0000
  H   H769      1.0  0.93959  0.29217  0.55108  1.0000
  C   C961      1.0  0.50192  0.07464  0.76491  1.0000
  C   C962      1.0  0.95036  0.26196  0.58042  1.0000
  H   H770      1.0  0.71718  0.13910  0.58373  1.0000
  H   H771      1.0  0.65509  0.00446  0.64032  1.0000
  H   H772      1.0  0.79147  0.20873  0.55902  1.0000
  H   H773      1.0  0.76441  0.03014  0.55337  1.0000
  C   C963      1.0  0.49146  0.02129  0.69555  1.0000
  H   H774      1.0  0.69780  0.06905  0.57333  1.0000
  P   P32       1.0  0.69156  0.00343  0.49685  1.0000
  H   H775      1.0  0.73575  0.28597  0.59519  1.0000
  C   C964      1.0  0.80206  0.30398  0.50808  1.0000
  C   C965      1.0  0.93810  0.31220  0.72566  1.0000
  C   C966      1.0  0.67909  0.16374  0.51470  1.0000
  H   H776      1.0  0.90156  0.28627  0.51275  1.0000
  C   C967      1.0  0.95907  0.29882  0.73327  1.0000
  H   H777      1.0  0.54807  0.98977  0.63538  1.0000
  C   C968      1.0  0.70188  0.31242  0.74249  1.0000
  C   C969      1.0  0.50439  0.17847  0.79778  1.0000
  H   H778      1.0  0.93169  0.25682  0.58638  1.0000
  H   H779      1.0  0.70881  0.29760  0.75706  1.0000
  C   C970      1.0  0.50282  0.99894  0.68892  1.0000
  P   P33       1.0  0.98481  0.31699  0.53077  1.0000
  C   C971      1.0  0.73916  0.29435  0.64321  1.0000
  H   H780      1.0  0.62378  0.00784  0.59993  1.0000
  H   H781      1.0  0.83023  0.32060  0.72840  1.0000
  C   C972      1.0  0.65947  0.00873  0.79985  1.0000
  C   C973      1.0  0.68202  0.99759  0.80587  1.0000
  C   C974      1.0  0.62115  0.99497  0.61918  1.0000
  H   H782      1.0  0.96615  0.23377  0.60953  1.0000
  H   H783      1.0  0.48917  0.21207  0.81512  1.0000
  C   C975      1.0  0.98061  0.31113  0.74008  1.0000
  H   H784      1.0  0.52224  0.99842  0.68370  1.0000
  H   H785      1.0  0.76016  0.32180  0.57659  1.0000
  Fe  Fe64      1.0  0.86013  0.53650  0.19305  1.0000
  S   S128      1.0  0.89220  0.51155  0.20265  1.0000
  S   S129      1.0  0.84845  0.56162  0.23296  1.0000
  Fe  Fe65      1.0  0.85235  0.51350  0.12850  1.0000
  S   S130      1.0  0.88331  0.48710  0.13508  1.0000
  S   S131      1.0  0.83103  0.51591  0.08317  1.0000
  Fe  Fe66      1.0  0.86970  0.48091  0.18424  1.0000
  S   S132      1.0  0.87254  0.44089  0.20252  1.0000
  Fe  Fe67      1.0  0.90278  0.51956  0.15321  1.0000
  S   S133      1.0  0.93970  0.52866  0.13303  1.0000
  S   S134      1.0  0.83657  0.50516  0.17666  1.0000
  S   S135      1.0  0.87261  0.54668  0.14462  1.0000
  H   H786      1.0  0.97259  0.58929  0.32710  1.0000
  H   H787      1.0  0.77136  0.60449  0.26736  1.0000
  Fe  Fe68      1.0  0.87203  0.34691  0.34806  1.0000
  S   S136      1.0  0.86634  0.38792  0.33622  1.0000
  C   C976      1.0  0.91027  0.56865  0.07074  1.0000
  H   H788      1.0  0.97325  0.40355  0.29388  1.0000
  C   C977      1.0  0.94854  0.33578  0.23894  1.0000
  C   C978      1.0  0.83584  0.51358  0.04216  1.0000
  C   C979      1.0  0.85764  0.50531  0.02785  1.0000
  C   C980      1.0  0.81626  0.52019  0.02322  1.0000
  H   H789      1.0  0.87276  0.49955  0.04200  1.0000
  H   H790      1.0  0.79929  0.52643  0.03367  1.0000
  C   C981      1.0  0.96361  0.52352  0.15854  1.0000
  C   C982      1.0  0.95942  0.51213  0.18737  1.0000
  C   C983      1.0  0.83668  0.36934  0.14613  1.0000
  H   H791      1.0  0.97989  0.40720  0.39274  1.0000
  C   C984      1.0  0.94018  0.41074  0.31961  1.0000
  H   H792      1.0  0.94148  0.50554  0.19376  1.0000
  H   H793      1.0  0.85259  0.36258  0.22121  1.0000
  C   C985      1.0  0.87139  0.42705  0.24027  1.0000
  C   C986      1.0  0.87846  0.40227  0.24396  1.0000
  C   C987      1.0  0.87677  0.38997  0.27297  1.0000
  C   C988      1.0  0.86856  0.40251  0.29898  1.0000
  C   C989      1.0  0.86212  0.42751  0.29551  1.0000
  C   C990      1.0  0.86335  0.43968  0.26633  1.0000
  H   H794      1.0  0.88521  0.39246  0.22414  1.0000
  H   H795      1.0  0.88168  0.37076  0.27522  1.0000
  H   H796      1.0  0.85572  0.43742  0.31544  1.0000
  H   H797      1.0  0.85768  0.45867  0.26391  1.0000
  C   C991      1.0  0.85671  0.59202  0.24369  1.0000
  C   C992      1.0  0.86847  0.60864  0.22324  1.0000
  C   C993      1.0  0.87236  0.63323  0.23185  1.0000
  C   C994      1.0  0.86508  0.64145  0.26121  1.0000
  C   C995      1.0  0.85451  0.62452  0.28218  1.0000
  C   C996      1.0  0.85001  0.60013  0.27331  1.0000
  H   H798      1.0  0.87364  0.60285  0.20033  1.0000
  H   H799      1.0  0.96030  0.35291  0.48971  1.0000
  H   H800      1.0  0.95631  0.50517  0.07562  1.0000
  H   H801      1.0  0.84090  0.58753  0.28933  1.0000
  H   H802      1.0  0.86239  0.38790  0.17452  1.0000
  H   H803      1.0  0.93893  0.63159  0.22806  1.0000
  C   C997      1.0  0.80885  0.61267  0.20474  1.0000
  H   H804      1.0  0.69471  0.63458  0.24160  1.0000
  C   C998      1.0  0.95943  0.54520  0.30472  1.0000
  H   H805      1.0  0.93839  0.47424  0.12825  1.0000
  P   P34       1.0  0.93711  0.56521  0.28681  1.0000
  C   C999      1.0  0.90813  0.55035  0.29445  1.0000
  C   C1000     1.0  0.93853  0.59540  0.30303  1.0000
  C   C1001     1.0  0.95794  0.60202  0.32194  1.0000
  C   C1002     1.0  0.80740  0.35125  0.32135  1.0000
  C   C1003     1.0  0.96641  0.33927  0.21581  1.0000
  C   C1004     1.0  0.96905  0.40783  0.37212  1.0000
  C   C1005     1.0  0.92043  0.61285  0.29594  1.0000
  C   C1006     1.0  0.89093  0.55998  0.31541  1.0000
  C   C1007     1.0  0.86863  0.54797  0.32093  1.0000
  C   C1008     1.0  0.86345  0.52628  0.30574  1.0000
  C   C1009     1.0  0.88073  0.51631  0.28545  1.0000
  C   C1010     1.0  0.90309  0.52818  0.28001  1.0000
  C   C1011     1.0  0.94170  0.56998  0.24571  1.0000
  C   C1012     1.0  0.96496  0.57592  0.23372  1.0000
  C   C1013     1.0  0.96869  0.58001  0.20204  1.0000
  C   C1014     1.0  0.94894  0.57896  0.18215  1.0000
  C   C1015     1.0  0.92553  0.57389  0.19399  1.0000
  C   C1016     1.0  0.92186  0.56947  0.22563  1.0000
  C   C1017     1.0  0.96529  0.40597  0.31664  1.0000
  H   H806      1.0  0.88765  0.53660  0.06757  1.0000
  H   H807      1.0  0.67430  0.62741  0.29260  1.0000
  H   H808      1.0  0.94374  0.54973  0.35044  1.0000
  H   H809      1.0  0.80936  0.34799  0.12382  1.0000
  C   C1018     1.0  0.81027  0.33550  0.29656  1.0000
  H   H810      1.0  0.98194  0.35906  0.31070  1.0000
  C   C1019     1.0  0.97800  0.44586  0.25402  1.0000
  H   H811      1.0  0.97576  0.32351  0.20627  1.0000
  H   H812      1.0  0.90569  0.60834  0.28072  1.0000
  H   H813      1.0  0.89448  0.57678  0.32736  1.0000
  H   H814      1.0  0.85515  0.55573  0.33653  1.0000
  H   H815      1.0  0.84591  0.51735  0.30932  1.0000
  H   H816      1.0  0.87652  0.49972  0.27333  1.0000
  H   H817      1.0  0.91624  0.52038  0.26397  1.0000
  C   C1020     1.0  0.81251  0.62056  0.35427  1.0000
  C   C1021     1.0  0.94392  0.41240  0.37498  1.0000
  H   H818      1.0  0.95183  0.58146  0.15746  1.0000
  C   C1022     1.0  0.78318  0.61401  0.25074  1.0000
  H   H819      1.0  0.90350  0.56569  0.23416  1.0000
  H   H820      1.0  0.97394  0.52287  0.37633  1.0000
  C   C1023     1.0  0.98499  0.50782  0.04041  1.0000
  H   H821      1.0  0.92275  0.35320  0.26945  1.0000
  C   C1024     1.0  0.80742  0.38625  0.28595  1.0000
  H   H822      1.0  0.91028  0.57297  0.17851  1.0000
  C   C1025     1.0  0.94039  0.64263  0.32761  1.0000
  P   P35       1.0  0.96948  0.41429  0.20537  1.0000
  C   C1026     1.0  0.96072  0.43640  0.23402  1.0000
  C   C1027     1.0  0.95383  0.42289  0.17036  1.0000
  C   C1028     1.0  0.84887  0.37337  0.17357  1.0000
  H   H823      1.0  0.80220  0.61246  0.30825  1.0000
  C   C1029     1.0  0.92774  0.43735  0.11773  1.0000
  C   C1030     1.0  0.92892  0.41253  0.12669  1.0000
  H   H824      1.0  0.98253  0.48581  0.11473  1.0000
  C   C1031     1.0  0.93631  0.44430  0.23647  1.0000
  C   C1032     1.0  0.92920  0.46090  0.25908  1.0000
  C   C1033     1.0  0.94639  0.46964  0.27957  1.0000
  C   C1034     1.0  0.80394  0.65082  0.23193  1.0000
  H   H825      1.0  0.96134  0.46173  0.17442  1.0000
  C   C1035     1.0  0.96065  0.38357  0.21801  1.0000
  C   C1036     1.0  0.81175  0.63764  0.37784  1.0000
  H   H826      1.0  0.79020  0.58130  0.22473  1.0000
  C   C1037     1.0  0.93963  0.45494  0.13490  1.0000
  C   C1038     1.0  0.93652  0.35603  0.25139  1.0000
  C   C1039     1.0  0.94233  0.37982  0.24076  1.0000
  H   H827      1.0  0.94083  0.48236  0.29724  1.0000
  H   H828      1.0  0.90992  0.41690  0.35098  1.0000
  C   C1040     1.0  0.93269  0.57951  0.06269  1.0000
  C   C1041     1.0  0.92127  0.63628  0.30844  1.0000
  C   C1042     1.0  0.95256  0.44778  0.16113  1.0000
  C   C1043     1.0  0.79351  0.60085  0.22644  1.0000
  H   H829      1.0  0.93550  0.41470  0.39755  1.0000
  H   H830      1.0  0.91729  0.44306  0.09777  1.0000
  H   H831      1.0  0.91940  0.39897  0.11355  1.0000
  H   H832      1.0  0.92006  0.65349  0.46258  1.0000
  H   H833      1.0  0.92274  0.43756  0.22090  1.0000
  H   H834      1.0  0.91028  0.46681  0.26066  1.0000
  C   C1044     1.0  0.94192  0.40527  0.15291  1.0000
  C   C1045     1.0  0.95868  0.62545  0.33440  1.0000
  H   H835      1.0  0.81025  0.37852  0.23802  1.0000
  C   C1046     1.0  0.94984  0.56678  0.04476  1.0000
  H   H836      1.0  0.90722  0.64967  0.30295  1.0000
  C   C1047     1.0  0.81220  0.34498  0.26623  1.0000
  H   H837      1.0  0.82103  0.63390  0.39937  1.0000
  H   H838      1.0  0.93246  0.39514  0.25035  1.0000
  C   C1048     1.0  0.97078  0.46204  0.27707  1.0000
  C   C1049     1.0  0.90493  0.54508  0.06084  1.0000
  H   H839      1.0  0.91776  0.51380  0.03611  1.0000
  C   C1050     1.0  0.94464  0.54307  0.03467  1.0000
  H   H840      1.0  0.93691  0.59766  0.07076  1.0000
  H   H841      1.0  0.84925  0.63046  0.30495  1.0000
  H   H842      1.0  0.81738  0.60223  0.18643  1.0000
  C   C1051     1.0  0.97511  0.52590  0.35155  1.0000
  H   H843      1.0  0.84091  0.38058  0.12576  1.0000
  H   H844      1.0  0.86829  0.34508  0.46055  1.0000
  C   C1052     1.0  0.92948  0.41371  0.34875  1.0000
  H   H845      1.0  0.92879  0.41200  0.29946  1.0000
  S   S137      1.0  0.90763  0.33303  0.36763  1.0000
  C   C1053     1.0  0.80106  0.62582  0.32624  1.0000
  H   H846      1.0  0.80513  0.38886  0.33543  1.0000
  C   C1054     1.0  0.84320  0.35914  0.20000  1.0000
  C   C1055     1.0  0.72944  0.64388  0.26087  1.0000
  C   C1056     1.0  0.78841  0.63911  0.25383  1.0000
  C   C1057     1.0  0.92204  0.53228  0.04293  1.0000
  C   C1058     1.0  0.80994  0.37051  0.26106  1.0000
  C   C1059     1.0  0.80635  0.37663  0.31610  1.0000
  H   H847      1.0  0.94224  0.38602  0.15967  1.0000
  H   H848      1.0  0.89711  0.57830  0.08503  1.0000
  C   C1060     1.0  0.97760  0.53313  0.28749  1.0000
  C   C1061     1.0  0.97515  0.50111  0.06956  1.0000
  C   C1062     1.0  0.95804  0.54108  0.33681  1.0000
  H   H849      1.0  0.96720  0.57540  0.03926  1.0000
  H   H850      1.0  0.80680  0.40597  0.28191  1.0000
  H   H851      1.0  0.79876  0.32323  0.17044  1.0000
  H   H852      1.0  0.98419  0.46871  0.29283  1.0000
  C   C1063     1.0  0.70484  0.63692  0.26258  1.0000
  C   C1064     1.0  0.81402  0.63764  0.20745  1.0000
  H   H853      1.0  0.97538  0.49996  0.23007  1.0000
  C   C1065     1.0  0.78898  0.64837  0.32150  1.0000
  H   H854      1.0  0.82647  0.64659  0.19108  1.0000
  H   H855      1.0  0.97340  0.63030  0.34940  1.0000
  H   H856      1.0  0.82231  0.60340  0.35753  1.0000
  H   H857      1.0  0.73809  0.64700  0.23843  1.0000
  C   C1066     1.0  0.97984  0.40394  0.34296  1.0000
  C   C1067     1.0  0.85960  0.50403  0.99504  1.0000
  C   C1068     1.0  0.81884  0.35104  0.14512  1.0000
  H   H858      1.0  0.80644  0.34370  0.34469  1.0000
  C   C1069     1.0  0.97867  0.50889  0.20789  1.0000
  P   P36       1.0  0.96729  0.52585  0.01312  1.0000
  C   C1070     1.0  0.94951  0.64572  0.23889  1.0000
  C   C1071     1.0  0.73105  0.64279  0.31674  1.0000
  H   H859      1.0  0.88061  0.64608  0.21537  1.0000
  C   C1072     1.0  0.74276  0.64675  0.28794  1.0000
  C   C1073     1.0  0.87294  0.33663  0.48251  1.0000
  H   H860      1.0  0.97857  0.53495  0.26266  1.0000
  C   C1074     1.0  0.82485  0.34117  0.19947  1.0000
  H   H861      1.0  0.69752  0.63270  0.34062  1.0000
  H   H862      1.0  0.98026  0.57716  0.24885  1.0000
  C   C1075     1.0  0.97400  0.64136  0.24619  1.0000
  S   S138      1.0  0.84895  0.32638  0.38414  1.0000
  C   C1076     1.0  0.81289  0.33700  0.17168  1.0000
  C   C1077     1.0  0.97246  0.36305  0.20536  1.0000
  C   C1078     1.0  0.69335  0.63288  0.29131  1.0000
  H   H863      1.0  0.76528  0.33541  0.25143  1.0000
  P   P37       1.0  0.81651  0.32421  0.23453  1.0000
  C   C1079     1.0  0.70644  0.63584  0.31835  1.0000
  H   H864      1.0  0.74079  0.64496  0.33799  1.0000
  H   H865      1.0  0.98213  0.62406  0.24007  1.0000
  Fe  Fe69      1.0  0.85760  0.50475  0.88650  1.0000
  S   S139      1.0  0.89106  0.52618  0.87213  1.0000
  S   S140      1.0  0.84003  0.50994  0.93483  1.0000
  Fe  Fe70      1.0  0.85505  0.48082  0.82196  1.0000
  S   S141      1.0  0.88874  0.50050  0.80448  1.0000
  S   S142      1.0  0.83500  0.45748  0.78704  1.0000
  Fe  Fe71      1.0  0.90355  0.49095  0.85102  1.0000
  S   S143      1.0  0.94083  0.47365  0.85384  1.0000
  Fe  Fe72      1.0  0.87315  0.53416  0.82638  1.0000
  S   S144      1.0  0.87849  0.57334  0.80620  1.0000
  S   S145      1.0  0.87110  0.46878  0.86741  1.0000
  S   S146      1.0  0.83827  0.51528  0.84211  1.0000
  C   C1080     1.0  0.79993  0.60575  0.75708  1.0000
  S   S147      1.0  0.87057  0.35497  0.73157  1.0000
  S   S148      1.0  0.85810  0.63320  0.67975  1.0000
  C   C1081     1.0  0.96449  0.49488  0.85765  1.0000
  C   C1082     1.0  0.95944  0.51922  0.86513  1.0000
  H   H866      1.0  0.87530  0.64819  0.74032  1.0000
  H   H867      1.0  0.93445  0.54813  0.81053  1.0000
  C   C1083     1.0  0.83369  0.56952  0.90042  1.0000
  H   H868      1.0  0.94090  0.52510  0.86913  1.0000
  H   H869      1.0  0.95905  0.45117  0.95111  1.0000
  C   C1084     1.0  0.87269  0.58930  0.77054  1.0000
  C   C1085     1.0  0.87627  0.61493  0.76880  1.0000
  C   C1086     1.0  0.87250  0.62851  0.74113  1.0000
  C   C1087     1.0  0.86447  0.61673  0.71486  1.0000
  C   C1088     1.0  0.86092  0.59107  0.71652  1.0000
  C   C1089     1.0  0.86532  0.57737  0.74401  1.0000
  H   H870      1.0  0.88204  0.62441  0.78906  1.0000
  H   H871      1.0  0.68878  0.61263  0.83885  1.0000
  H   H872      1.0  0.85488  0.58172  0.69631  1.0000
  H   H873      1.0  0.86290  0.55766  0.74468  1.0000
  C   C1090     1.0  0.86088  0.38410  0.74535  1.0000
  C   C1091     1.0  0.84173  0.39759  0.73213  1.0000
  C   C1092     1.0  0.83410  0.42004  0.74506  1.0000
  C   C1093     1.0  0.84572  0.42946  0.77100  1.0000
  C   C1094     1.0  0.86519  0.41622  0.78373  1.0000
  C   C1095     1.0  0.87255  0.39362  0.77114  1.0000
  H   H874      1.0  0.83245  0.39047  0.71244  1.0000
  H   H875      1.0  0.81895  0.43006  0.73506  1.0000
  H   H876      1.0  0.87417  0.42308  0.80378  1.0000
  H   H877      1.0  0.88730  0.38333  0.78165  1.0000
  H   H878      1.0  0.91422  0.53723  0.76258  1.0000
  H   H879      1.0  0.92220  0.59706  0.78364  1.0000
  C   C1096     1.0  0.83973  0.51083  0.97630  1.0000
  C   C1097     1.0  0.88398  0.47912  0.73255  1.0000
  C   C1098     1.0  0.91653  0.60306  0.68078  1.0000
  H   H880      1.0  0.75330  0.54218  0.80866  1.0000
  C   C1099     1.0  0.91424  0.40187  0.64281  1.0000
  C   C1100     1.0  0.84308  0.58402  0.87598  1.0000
  H   H881      1.0  0.80318  0.54809  0.91754  1.0000
  C   C1101     1.0  0.86655  0.34823  0.51027  1.0000
  C   C1102     1.0  0.80632  0.34082  0.75839  1.0000
  S   S149      1.0  0.86468  0.35250  0.57350  1.0000
  H   H882      1.0  0.84430  0.51308  0.68954  1.0000
  H   H883      1.0  0.83684  0.59958  0.83102  1.0000
  H   H884      1.0  0.85693  0.36562  0.50954  1.0000
  C   C1103     1.0  0.96470  0.62004  0.83113  1.0000
  C   C1104     1.0  0.95603  0.61364  0.76845  1.0000
  C   C1105     1.0  0.82878  0.58922  0.85021  1.0000
  C   C1106     1.0  0.77313  0.51476  0.78372  1.0000
  C   C1107     1.0  0.91506  0.58189  0.63243  1.0000
  C   C1108     1.0  0.86211  0.48628  0.71881  1.0000
  H   H885      1.0  0.86178  0.59050  0.87645  1.0000
  H   H886      1.0  0.91970  0.42520  0.83635  1.0000
  C   C1109     1.0  0.95138  0.48723  0.67376  1.0000
  H   H887      1.0  0.90481  0.50716  0.93618  1.0000
  P   P38       1.0  0.93273  0.53067  0.69917  1.0000
  H   H888      1.0  0.82754  0.56022  0.78223  1.0000
  C   C1110     1.0  0.95221  0.35409  0.51260  1.0000
  C   C1111     1.0  0.96678  0.63553  0.65236  1.0000
  C   C1112     1.0  0.67098  0.34350  0.73264  1.0000
  H   H889      1.0  0.92271  0.46675  0.92331  1.0000
  H   H890      1.0  0.77100  0.34301  0.66994  1.0000
  H   H891      1.0  0.80349  0.63396  0.82624  1.0000
  C   C1113     1.0  0.95135  0.46889  0.95676  1.0000
  C   C1114     1.0  0.91239  0.60343  0.64910  1.0000
  C   C1115     1.0  0.97784  0.62468  0.77740  1.0000
  H   H892      1.0  0.88427  0.46309  0.74791  1.0000
  H   H893      1.0  0.97409  0.54464  0.65854  1.0000
  C   C1116     1.0  0.93083  0.47761  0.94110  1.0000
  H   H894      1.0  0.84562  0.47568  0.72341  1.0000
  P   P39       1.0  0.78731  0.58394  0.81418  1.0000
  H   H895      1.0  0.88390  0.40279  0.67529  1.0000
  C   C1117     1.0  0.90483  0.51378  0.70743  1.0000
  C   C1118     1.0  0.92278  0.58107  0.69604  1.0000
  C   C1119     1.0  0.95354  0.51293  0.67535  1.0000
  C   C1120     1.0  0.95219  0.50619  0.98645  1.0000
  H   H896      1.0  0.93261  0.38145  0.83693  1.0000
  C   C1121     1.0  0.77031  0.53787  0.79684  1.0000
  H   H897      1.0  0.84498  0.56487  0.92005  1.0000
  C   C1122     1.0  0.86140  0.50732  0.69974  1.0000
  C   C1123     1.0  0.73854  0.59119  0.79940  1.0000
  C   C1124     1.0  0.81482  0.52483  0.76877  1.0000
  H   H898      1.0  0.90284  0.40461  0.62279  1.0000
  H   H899      1.0  0.92314  0.54325  0.63443  1.0000
  C   C1125     1.0  0.68391  0.35134  0.70610  1.0000
  H   H900      1.0  0.74370  0.58485  0.77667  1.0000
  C   C1126     1.0  0.94762  0.53778  0.73468  1.0000
  C   C1127     1.0  0.92583  0.55940  0.67942  1.0000
  C   C1128     1.0  0.97020  0.55180  0.78912  1.0000
  H   H901      1.0  0.92961  0.60263  0.83905  1.0000
  H   H902      1.0  0.95221  0.61088  0.74444  1.0000
  H   H903      1.0  0.94147  0.43248  0.74104  1.0000
  C   C1129     1.0  0.78207  0.34604  0.76661  1.0000
  H   H904      1.0  0.96815  0.62227  0.85543  1.0000
  H   H905      1.0  0.75834  0.50157  0.78518  1.0000
  H   H906      1.0  0.91405  0.61977  0.69365  1.0000
  H   H907      1.0  0.92457  0.58106  0.72085  1.0000
  C   C1130     1.0  0.70752  0.60702  0.83431  1.0000
  C   C1131     1.0  0.93384  0.53999  0.76216  1.0000
  H   H908      1.0  0.77820  0.35871  0.78499  1.0000
  H   H909      1.0  0.92186  0.48752  0.73877  1.0000
  C   C1132     1.0  0.93875  0.33787  0.72431  1.0000
  C   C1133     1.0  0.93876  0.60592  0.79069  1.0000
  C   C1134     1.0  0.88266  0.52102  0.69397  1.0000
  H   H910      1.0  0.90650  0.62036  0.63772  1.0000
  H   H911      1.0  0.88156  0.53730  0.67922  1.0000
  H   H912      1.0  0.95858  0.63611  0.62979  1.0000
  C   C1135     1.0  0.81204  0.54793  0.78182  1.0000
  C   C1136     1.0  0.96740  0.47382  0.65504  1.0000
  H   H913      1.0  0.79776  0.49010  0.76030  1.0000
  C   C1137     1.0  0.94521  0.54653  0.78937  1.0000
  C   C1138     1.0  0.80486  0.58008  0.84880  1.0000
  C   C1139     1.0  0.79876  0.60850  0.78922  1.0000
  C   C1140     1.0  0.93946  0.39839  0.63910  1.0000
  C   C1141     1.0  0.90519  0.49301  0.72730  1.0000
  C   C1142     1.0  0.80484  0.63125  0.80161  1.0000
  C   C1143     1.0  0.91803  0.39640  0.69808  1.0000
  C   C1144     1.0  0.94340  0.39287  0.69468  1.0000
  C   C1145     1.0  0.95397  0.39376  0.66488  1.0000
  P   P40       1.0  0.96119  0.38363  0.72785  1.0000
  C   C1146     1.0  0.94725  0.39645  0.76203  1.0000
  C   C1147     1.0  0.96043  0.35042  0.73062  1.0000
  H   H914      1.0  0.76250  0.60372  0.86939  1.0000
  C   C1148     1.0  0.79535  0.50827  0.76964  1.0000
  C   C1149     1.0  0.95020  0.34159  0.56664  1.0000
  C   C1150     1.0  0.81440  0.64759  0.75034  1.0000
  H   H915      1.0  0.65404  0.35255  0.73917  1.0000
  C   C1151     1.0  0.94468  0.38219  0.78930  1.0000
  C   C1152     1.0  0.93468  0.39252  0.81596  1.0000
  C   C1153     1.0  0.92733  0.41715  0.81563  1.0000
  C   C1154     1.0  0.92978  0.43146  0.78858  1.0000
  C   C1155     1.0  0.93961  0.42116  0.76180  1.0000
  C   C1156     1.0  0.92087  0.50050  0.94815  1.0000
  C   C1157     1.0  0.90356  0.40093  0.67232  1.0000
  H   H916      1.0  0.92407  0.45056  0.78865  1.0000
  C   C1158     1.0  0.96061  0.33908  0.53701  1.0000
  H   H917      1.0  0.94764  0.39849  0.61615  1.0000
  H   H918      1.0  0.95663  0.33051  0.58598  1.0000
  C   C1159     1.0  0.71434  0.59833  0.80531  1.0000
  C   C1160     1.0  0.92175  0.55992  0.64751  1.0000
  H   H919      1.0  0.91135  0.58220  0.60796  1.0000
  H   H920      1.0  0.90917  0.39465  0.72055  1.0000
  C   C1161     1.0  0.93279  0.37043  0.51745  1.0000
  H   H921      1.0  0.92233  0.34776  0.71805  1.0000
  H   H922      1.0  0.92377  0.53270  0.97533  1.0000
  C   C1162     1.0  0.81003  0.56008  0.89901  1.0000
  C   C1163     1.0  0.94306  0.60898  0.82199  1.0000
  H   H923      1.0  0.93726  0.47734  0.68651  1.0000
  H   H924      1.0  0.95039  0.36312  0.79010  1.0000
  H   H925      1.0  0.77791  0.55666  0.87185  1.0000
  H   H926      1.0  0.80878  0.35849  0.54382  1.0000
  H   H927      1.0  0.80263  0.52406  0.97707  1.0000
  C   C1164     1.0  0.92204  0.37227  0.54679  1.0000
  C   C1165     1.0  0.74918  0.60166  0.85148  1.0000
  C   C1166     1.0  0.93153  0.51481  0.97061  1.0000
  C   C1167     1.0  0.97275  0.54300  0.73471  1.0000
  H   H928      1.0  0.83237  0.51939  0.75910  1.0000
  H   H929      1.0  0.71975  0.61581  0.87970  1.0000
  S   S150      1.0  0.89504  0.33437  0.65244  1.0000
  H   H930      1.0  0.79488  0.58865  0.74676  1.0000
  H   H931      1.0  0.98385  0.54176  0.71398  1.0000
  C   C1168     1.0  0.79577  0.56505  0.87315  1.0000
  C   C1169     1.0  0.75602  0.59237  0.82262  1.0000
  S   S151      1.0  0.83510  0.33061  0.65310  1.0000
  C   C1170     1.0  0.72495  0.60876  0.85734  1.0000
  H   H932      1.0  0.70092  0.59731  0.78730  1.0000
  C   C1171     1.0  0.87245  0.33735  0.53893  1.0000
  C   C1172     1.0  0.97559  0.61337  0.66488  1.0000
  H   H933      1.0  0.90641  0.38425  0.55031  1.0000
  C   C1173     1.0  0.78969  0.55476  0.79552  1.0000
  H   H934      1.0  0.87629  0.49746  0.98438  1.0000
  C   C1174     1.0  0.76694  0.33463  0.62229  1.0000
  C   C1175     1.0  0.80766  0.33881  0.54086  1.0000
  H   H935      1.0  0.97441  0.55507  0.87270  1.0000
  H   H936      1.0  0.80913  0.62295  0.71304  1.0000
  H   H937      1.0  0.67702  0.36652  0.69211  1.0000
  H   H938      1.0  0.92191  0.35882  0.59389  1.0000
  C   C1176     1.0  0.97848  0.53615  0.86735  1.0000
  Fe  Fe73      1.0  0.86485  0.33219  0.68832  1.0000
  C   C1177     1.0  0.93078  0.35791  0.57138  1.0000
  C   C1178     1.0  0.97207  0.52487  0.65786  1.0000
  C   C1179     1.0  0.80771  0.62525  0.73779  1.0000
  H   H939      1.0  0.82124  0.34939  0.77027  1.0000
  H   H940      1.0  0.77792  0.35011  0.61421  1.0000
  C   C1180     1.0  0.70580  0.33970  0.69765  1.0000
  H   H941      1.0  0.96542  0.45404  0.65380  1.0000
  H   H942      1.0  0.92562  0.38119  0.49831  1.0000
  H   H943      1.0  0.71566  0.34621  0.67719  1.0000
  C   C1181     1.0  0.98519  0.32384  0.65474  1.0000
  H   H944      1.0  0.81676  0.33011  0.58793  1.0000
  C   C1182     1.0  0.81292  0.65062  0.78224  1.0000
  H   H945      1.0  0.97838  0.47637  0.99054  1.0000
  C   C1183     1.0  0.68000  0.32409  0.75086  1.0000
  C   C1184     1.0  0.98389  0.55015  0.76178  1.0000
  C   C1185     1.0  0.81816  0.51884  0.99090  1.0000
  H   H946      1.0  0.97323  0.39023  0.66125  1.0000
  C   C1186     1.0  0.81142  0.32463  0.73462  1.0000
  Fe  Fe74      1.0  0.86571  0.32935  0.61767  1.0000
  H   H947      1.0  0.97894  0.55748  0.80999  1.0000
  H   H948      1.0  0.97131  0.54156  0.94729  1.0000
  C   C1187     1.0  0.96214  0.48317  0.97922  1.0000
  C   C1188     1.0  0.98200  0.62797  0.80892  1.0000
  C   C1189     1.0  0.80238  0.32939  0.51207  1.0000
  H   H949      1.0  0.74432  0.33949  0.75781  1.0000
  C   C1190     1.0  0.98599  0.54980  0.95980  1.0000
  H   H950      1.0  0.97401  0.59667  0.65202  1.0000
  H   H951      1.0  0.98152  0.46612  0.73314  1.0000
  H   H952      1.0  0.98301  0.48693  0.78347  1.0000
  H   H953      1.0  0.93495  0.65186  0.51632  1.0000
  C   C1191     1.0  0.76291  0.33506  0.75105  1.0000
  C   C1192     1.0  0.98126  0.33683  0.73915  1.0000
  C   C1193     1.0  0.76311  0.33041  0.65395  1.0000
  H   H954      1.0  0.94622  0.32303  0.64805  1.0000
  C   C1194     1.0  0.98566  0.48589  0.63766  1.0000
  C   C1195     1.0  0.98584  0.61272  0.69425  1.0000
  C   C1196     1.0  0.81231  0.32282  0.56573  1.0000
  H   H955      1.0  0.79909  0.34179  0.49266  1.0000
  Fe  Fe75      1.0  0.51974  0.88240  0.18424  1.0000
  H   H956      1.0  0.60061  0.84947  0.22867  1.0000
  S   S152      1.0  0.55279  0.86424  0.20824  1.0000
  H   H957      1.0  0.77638  0.80110  0.43061  1.0000
  C   C1197     1.0  0.81248  0.74248  0.42199  1.0000
  S   S153      1.0  0.52644  0.89933  0.13671  1.0000
  Fe  Fe76      1.0  0.70498  0.92318  0.33743  1.0000
  S   S154      1.0  0.67053  0.92418  0.36567  1.0000
  S   S155      1.0  0.72126  0.95922  0.31835  1.0000
  Fe  Fe77      1.0  0.70917  0.86645  0.34461  1.0000
  S   S156      1.0  0.67407  0.86460  0.37329  1.0000
  S   S157      1.0  0.72868  0.82916  0.33750  1.0000
  Fe  Fe78      1.0  0.65828  0.89180  0.33827  1.0000
  S   S158      1.0  0.61836  0.89701  0.32215  1.0000
  Fe  Fe79      1.0  0.68925  0.89722  0.39737  1.0000
  S   S159      1.0  0.69616  0.90694  0.44694  1.0000
  S   S160      1.0  0.69238  0.89187  0.30814  1.0000
  S   S161      1.0  0.72471  0.89784  0.37044  1.0000
  Fe  Fe80      1.0  0.85859  0.69865  0.38511  1.0000
  S   S162      1.0  0.87610  0.73549  0.38600  1.0000
  C   C1198     1.0  0.62645  0.94515  0.24756  1.0000
  Fe  Fe81      1.0  0.86831  0.69393  0.31568  1.0000
  S   S163      1.0  0.88633  0.73147  0.31264  1.0000
  Fe  Fe82      1.0  0.90573  0.71946  0.35588  1.0000
  S   S164      1.0  0.94485  0.72251  0.37349  1.0000
  Fe  Fe83      1.0  0.85494  0.74449  0.34324  1.0000
  S   S165      1.0  0.83730  0.78320  0.34130  1.0000
  S   S166      1.0  0.88921  0.68157  0.35761  1.0000
  S   S167      1.0  0.83584  0.70796  0.34347  1.0000
  C   C1199     1.0  0.85589  0.69040  0.46454  1.0000
  C   C1200     1.0  0.87912  0.70103  0.46436  1.0000
  H   H958      1.0  0.90907  0.71303  0.49184  1.0000
  H   H959      1.0  0.88836  0.70539  0.44268  1.0000
  C   C1201     1.0  0.77656  0.68875  0.27914  1.0000
  Fe  Fe84      1.0  0.48880  0.88701  0.12417  1.0000
  H   H960      1.0  0.57695  0.90011  0.16883  1.0000
  H   H961      1.0  0.54183  0.97256  0.20722  1.0000
  H   H962      1.0  0.96066  0.73765  0.31030  1.0000
  C   C1202     1.0  0.95222  0.68654  0.25942  1.0000
  C   C1203     1.0  0.75897  0.81670  0.34047  1.0000
  C   C1204     1.0  0.76247  0.79114  0.33772  1.0000
  C   C1205     1.0  0.78608  0.78042  0.33908  1.0000
  C   C1206     1.0  0.80671  0.79518  0.34260  1.0000
  C   C1207     1.0  0.80317  0.82069  0.34577  1.0000
  C   C1208     1.0  0.77954  0.83138  0.34488  1.0000
  H   H963      1.0  0.74676  0.77952  0.33450  1.0000
  H   H964      1.0  0.78834  0.76078  0.33691  1.0000
  H   H965      1.0  0.81893  0.83237  0.34838  1.0000
  H   H966      1.0  0.77730  0.85102  0.34704  1.0000
  C   C1209     1.0  0.52113  0.93894  0.06219  1.0000
  H   H967      1.0  0.80770  0.85224  0.40056  1.0000
  C   C1210     1.0  0.60894  0.96728  0.35910  1.0000
  C   C1211     1.0  0.66088  0.95691  0.27809  1.0000
  H   H968      1.0  0.50537  0.87970  0.26950  1.0000
  C   C1212     1.0  0.62870  0.98082  0.34713  1.0000
  C   C1213     1.0  0.52804  0.95852  0.01179  1.0000
  H   H969      1.0  0.92350  0.74829  0.43175  1.0000
  Fe  Fe85      1.0  0.50737  0.93165  0.15666  1.0000
  C   C1214     1.0  0.65496  0.98168  0.27326  1.0000
  C   C1215     1.0  0.74438  0.96650  0.42763  1.0000
  H   H970      1.0  0.50515  0.96443  0.23940  1.0000
  C   C1216     1.0  0.66889  0.87312  0.48187  1.0000
  H   H971      1.0  0.74081  0.74006  0.27202  1.0000
  C   C1217     1.0  0.59918  0.96743  0.15818  1.0000
  C   C1218     1.0  0.57134  0.87477  0.23898  1.0000
  C   C1219     1.0  0.56355  0.89312  0.25912  1.0000
  C   C1220     1.0  0.57834  0.89981  0.28401  1.0000
  C   C1221     1.0  0.60125  0.88861  0.28910  1.0000
  C   C1222     1.0  0.60930  0.87071  0.26855  1.0000
  C   C1223     1.0  0.59436  0.86373  0.24391  1.0000
  H   H972      1.0  0.54599  0.90190  0.25583  1.0000
  H   H973      1.0  0.57188  0.91363  0.29965  1.0000
  H   H974      1.0  0.62674  0.86177  0.27208  1.0000
  H   H975      1.0  0.50890  0.95667  0.29578  1.0000
  C   C1224     1.0  0.59158  0.95872  0.18759  1.0000
  H   H976      1.0  0.81596  0.68947  0.28332  1.0000
  C   C1225     1.0  0.53984  0.90652  0.35433  1.0000
  H   H977      1.0  0.61540  0.93058  0.23866  1.0000
  C   C1226     1.0  0.72914  0.83915  0.44915  1.0000
  H   H978      1.0  0.71520  0.85053  0.43837  1.0000
  C   C1227     1.0  0.81237  0.84754  0.42416  1.0000
  C   C1228     1.0  0.56676  0.97098  0.24517  1.0000
  C   C1229     1.0  0.72292  0.96608  0.47704  1.0000
  C   C1230     1.0  0.79860  0.73954  0.47526  1.0000
  C   C1231     1.0  0.71252  0.98814  0.33367  1.0000
  C   C1232     1.0  0.52504  0.96067  0.28178  1.0000
  C   C1233     1.0  0.55255  0.96246  0.01954  1.0000
  H   H979      1.0  0.66091  0.86737  0.46058  1.0000
  C   C1234     1.0  0.97667  0.73485  0.32425  1.0000
  H   H980      1.0  0.91944  0.67145  0.24062  1.0000
  H   H981      1.0  0.49420  0.94087  0.02714  1.0000
  H   H982      1.0  0.74463  0.82726  0.40594  1.0000
  C   C1235     1.0  0.63452  0.98824  0.25588  1.0000
  H   H983      1.0  0.55011  0.92291  0.35905  1.0000
  H   H984      1.0  0.87690  0.82657  0.42387  1.0000
  C   C1236     1.0  0.94295  0.68409  0.44876  1.0000
  C   C1237     1.0  0.73033  0.83743  0.48132  1.0000
  C   C1238     1.0  0.79943  0.70032  0.28033  1.0000
  C   C1239     1.0  0.92099  0.78401  0.40956  1.0000
  C   C1240     1.0  0.62037  0.96999  0.24232  1.0000
  C   C1241     1.0  0.87827  0.79027  0.44555  1.0000
  H   H985      1.0  0.96627  0.71506  0.44156  1.0000
  H   H986      1.0  0.69027  0.97316  0.37092  1.0000
  C   C1242     1.0  0.75718  0.72893  0.27404  1.0000
  C   C1243     1.0  0.82857  0.76123  0.42941  1.0000
  H   H987      1.0  0.50728  0.84729  0.23084  1.0000
  H   H988      1.0  0.54981  0.95762  0.31969  1.0000
  H   H989      1.0  0.88608  0.75369  0.46352  1.0000
  H   H990      1.0  0.83397  0.81626  0.41144  1.0000
  P   P41       1.0  0.85088  0.79328  0.46912  1.0000
  H   H991      1.0  0.93614  0.68510  0.42541  1.0000
  H   H992      1.0  0.64649  0.97214  0.34458  1.0000
  C   C1244     1.0  0.93855  0.66822  0.24578  1.0000
  H   H993      1.0  0.65082  0.91947  0.26987  1.0000
  C   C1245     1.0  0.64658  0.93869  0.26540  1.0000
  H   H994      1.0  0.78593  0.71626  0.43936  1.0000
  S   S168      1.0  0.52355  0.96850  0.14589  1.0000
  C   C1246     1.0  0.77999  0.74026  0.27572  1.0000
  H   H995      1.0  0.93690  0.78107  0.39479  1.0000
  H   H996      1.0  0.79884  0.67310  0.39184  1.0000
  H   H997      1.0  0.57088  0.96811  0.37235  1.0000
  C   C1247     1.0  0.51263  0.94588  0.03302  1.0000
  H   H998      1.0  0.58657  0.96670  0.28795  1.0000
  C   C1248     1.0  0.50252  0.88692  0.33777  1.0000
  C   C1249     1.0  0.56091  0.95565  0.04884  1.0000
  H   H999      1.0  0.57037  0.88235  0.36339  1.0000
  C   C1250     1.0  0.58609  0.97857  0.36266  1.0000
  C   C1251     1.0  0.54805  0.96131  0.29523  1.0000
  H   H1000     1.0  0.59032  0.91566  0.11717  1.0000
  C   C1252     1.0  0.58336  0.93437  0.19105  1.0000
  C   C1253     1.0  0.51399  0.86389  0.34140  1.0000
  C   C1254     1.0  0.53829  0.86229  0.35078  1.0000
  C   C1255     1.0  0.52288  0.96496  0.25008  1.0000
  S   S169      1.0  0.50258  0.91592  0.20453  1.0000
  H   H1001     1.0  0.94108  0.66091  0.33704  1.0000
  C   C1256     1.0  0.89208  0.76853  0.44816  1.0000
  H   H1002     1.0  0.50742  0.92622  0.34182  1.0000
  C   C1257     1.0  0.74574  0.82608  0.43089  1.0000
  C   C1258     1.0  0.96846  0.70063  0.48868  1.0000
  H   H1003     1.0  0.61145  0.94804  0.36557  1.0000
  C   C1259     1.0  0.49242  0.84745  0.24767  1.0000
  H   H1004     1.0  0.60435  0.95886  0.11023  1.0000
  H   H1005     1.0  0.67634  0.95176  0.29204  1.0000
  C   C1260     1.0  0.82310  0.83455  0.48519  1.0000
  H   H1006     1.0  0.57706  0.92720  0.21326  1.0000
  C   C1261     1.0  0.51559  0.90825  0.34459  1.0000
  C   C1262     1.0  0.49118  0.86585  0.26959  1.0000
  H   H1007     1.0  0.54729  0.84454  0.35250  1.0000
  C   C1263     1.0  0.88661  0.80930  0.42563  1.0000
  H   H1008     1.0  0.83977  0.76967  0.41125  1.0000
  H   H1009     1.0  0.91369  0.82037  0.39129  1.0000
  H   H1010     1.0  0.50923  0.92917  0.07852  1.0000
  C   C1264     1.0  0.97390  0.72737  0.35524  1.0000
  H   H1011     1.0  0.94375  0.70404  0.26463  1.0000
  C   C1265     1.0  0.80809  0.85484  0.47880  1.0000
  H   H1012     1.0  0.96589  0.76104  0.46472  1.0000
  H   H1013     1.0  0.73750  0.69499  0.27509  1.0000
  C   C1266     1.0  0.90774  0.80600  0.40740  1.0000
  P   P42       1.0  0.77450  0.65581  0.28526  1.0000
  C   C1267     1.0  0.75649  0.90147  0.28777  1.0000
  C   C1268     1.0  0.76084  0.92091  0.26682  1.0000
  C   C1269     1.0  0.76436  0.91622  0.23550  1.0000
  C   C1270     1.0  0.76331  0.89211  0.22506  1.0000
  C   C1271     1.0  0.75855  0.87248  0.24597  1.0000
  C   C1272     1.0  0.75529  0.87737  0.27744  1.0000
  P   P43       1.0  0.75614  0.84125  0.23296  1.0000
  C   C1273     1.0  0.75272  0.84136  0.19154  1.0000
  C   C1274     1.0  0.78328  0.82360  0.24201  1.0000
  C   C1275     1.0  0.78851  0.80197  0.22598  1.0000
  C   C1276     1.0  0.80956  0.78825  0.23252  1.0000
  C   C1277     1.0  0.82545  0.79592  0.25522  1.0000
  C   C1278     1.0  0.82049  0.81746  0.27104  1.0000
  C   C1279     1.0  0.79944  0.83122  0.26465  1.0000
  C   C1280     1.0  0.77344  0.84430  0.17217  1.0000
  C   C1281     1.0  0.77114  0.84430  0.14009  1.0000
  C   C1282     1.0  0.74816  0.84141  0.12711  1.0000
  C   C1283     1.0  0.72744  0.83855  0.14620  1.0000
  C   C1284     1.0  0.72966  0.83852  0.17830  1.0000
  C   C1285     1.0  0.72933  0.82772  0.25141  1.0000
  C   C1286     1.0  0.72955  0.80327  0.26255  1.0000
  C   C1287     1.0  0.70864  0.79316  0.27692  1.0000
  C   C1288     1.0  0.68745  0.80736  0.28030  1.0000
  C   C1289     1.0  0.68708  0.83167  0.26924  1.0000
  C   C1290     1.0  0.70793  0.84185  0.25490  1.0000
  H   H1014     1.0  0.75372  0.90522  0.31201  1.0000
  H   H1015     1.0  0.76127  0.93961  0.27494  1.0000
  H   H1016     1.0  0.76772  0.93137  0.21932  1.0000
  H   H1017     1.0  0.76590  0.88903  0.20070  1.0000
  H   H1018     1.0  0.75159  0.86256  0.29397  1.0000
  H   H1019     1.0  0.77623  0.79563  0.20856  1.0000
  H   H1020     1.0  0.81344  0.77150  0.22030  1.0000
  H   H1021     1.0  0.84153  0.78509  0.26090  1.0000
  H   H1022     1.0  0.83278  0.82319  0.28884  1.0000
  H   H1023     1.0  0.79586  0.84757  0.27768  1.0000
  H   H1024     1.0  0.79138  0.84665  0.18189  1.0000
  H   H1025     1.0  0.78721  0.84654  0.12529  1.0000
  H   H1026     1.0  0.74639  0.84138  0.10224  1.0000
  H   H1027     1.0  0.70961  0.83630  0.13613  1.0000
  H   H1028     1.0  0.71334  0.83623  0.19252  1.0000
  H   H1029     1.0  0.74592  0.79218  0.26102  1.0000
  H   H1030     1.0  0.70909  0.77460  0.28644  1.0000
  H   H1031     1.0  0.67151  0.79974  0.29221  1.0000
  H   H1032     1.0  0.67081  0.84281  0.27246  1.0000
  H   H1033     1.0  0.70742  0.86084  0.24686  1.0000
  C   C1291     1.0  0.56891  0.96640  0.27703  1.0000
  C   C1292     1.0  0.54505  0.94428  0.07034  1.0000
  C   C1293     1.0  0.76511  0.80994  0.47704  1.0000
  H   H1034     1.0  0.55124  0.93934  0.09328  1.0000
  H   H1035     1.0  0.56518  0.97079  0.00288  1.0000
  C   C1294     1.0  0.83339  0.82090  0.46104  1.0000
  C   C1295     1.0  0.79776  0.73137  0.44499  1.0000
  H   H1036     1.0  0.78127  0.76013  0.27545  1.0000
  C   C1296     1.0  0.51053  0.88119  0.02894  1.0000
  C   C1297     1.0  0.83019  0.76890  0.45996  1.0000
  P   P44       1.0  0.59322  0.97793  0.22104  1.0000
  C   C1298     1.0  0.96005  0.70128  0.45819  1.0000
  C   C1299     1.0  0.76361  0.81134  0.44484  1.0000
  C   C1300     1.0  0.58318  0.91891  0.16580  1.0000
  C   C1301     1.0  0.55127  0.88359  0.35703  1.0000
  H   H1037     1.0  0.81181  0.73624  0.39849  1.0000
  C   C1302     1.0  0.59079  0.92769  0.13670  1.0000
  S   S170      1.0  0.86838  0.67323  0.26989  1.0000
  H   H1038     1.0  0.75575  0.95732  0.41069  1.0000
  C   C1303     1.0  0.89089  0.70525  0.49231  1.0000
  H   H1039     1.0  0.77856  0.68268  0.34269  1.0000
  C   C1304     1.0  0.59868  0.95198  0.13285  1.0000
  C   C1305     1.0  0.80276  0.86137  0.44829  1.0000
  C   C1306     1.0  0.75542  0.70328  0.27574  1.0000
  H   H1040     1.0  0.81882  0.73475  0.28024  1.0000
  C   C1307     1.0  0.54368  0.96974  0.23183  1.0000
  S   S171      1.0  0.84155  0.68316  0.42955  1.0000
  C   C1308     1.0  0.91341  0.76548  0.43037  1.0000
  H   H1041     1.0  0.57967  0.95916  0.05494  1.0000
  C   C1309     1.0  0.82741  0.82725  0.43046  1.0000
  H   H1042     1.0  0.79071  0.87678  0.44336  1.0000
  H   H1043     1.0  0.60529  0.98611  0.15448  1.0000
  C   C1310     1.0  0.80113  0.72596  0.27858  1.0000
  C   C1311     1.0  0.73831  0.95460  0.45563  1.0000
  C   C1312     1.0  0.81450  0.75849  0.48265  1.0000
  C   C1313     1.0  0.79924  0.65983  0.37357  1.0000
  C   C1314     1.0  0.51839  0.88098  0.99764  1.0000
  H   H1044     1.0  0.52377  0.87982  0.04714  1.0000
  C   C1315     1.0  0.68689  0.89134  0.48119  1.0000
  H   H1045     1.0  0.74485  0.93609  0.46034  1.0000
  H   H1046     1.0  0.66871  0.95707  0.47895  1.0000
  H   H1047     1.0  0.77915  0.79853  0.48728  1.0000
  C   C1316     1.0  0.93403  0.66617  0.46962  1.0000
  C   C1317     1.0  0.97679  0.68233  0.26633  1.0000
  H   H1048     1.0  0.97931  0.78564  0.41890  1.0000
  C   C1318     1.0  0.78790  0.66522  0.34557  1.0000
  H   H1049     1.0  0.80866  0.66998  0.23364  1.0000
  C   C1319     1.0  0.98448  0.75914  0.45596  1.0000
  H   H1050     1.0  0.50440  0.84717  0.33606  1.0000
  S   S172      1.0  0.52912  0.90056  0.85192  1.0000
  Fe  Fe86      1.0  0.51520  0.87508  0.81674  1.0000
  S   S173      1.0  0.54105  0.85290  0.78624  1.0000
  Fe  Fe87      1.0  0.69935  0.91982  0.64295  1.0000
  S   S174      1.0  0.66022  0.90902  0.63764  1.0000
  S   S175      1.0  0.71004  0.95848  0.62659  1.0000
  Fe  Fe88      1.0  0.71451  0.86727  0.66511  1.0000
  S   S176      1.0  0.67553  0.85342  0.66262  1.0000
  S   S177      1.0  0.74924  0.84635  0.68104  1.0000
  Fe  Fe89      1.0  0.67508  0.87457  0.61706  1.0000
  S   S178      1.0  0.65842  0.85961  0.57382  1.0000
  Fe  Fe90      1.0  0.66370  0.88937  0.68359  1.0000
  S   S179      1.0  0.63432  0.90170  0.71851  1.0000
  S   S180      1.0  0.71414  0.88658  0.61869  1.0000
  S   S181      1.0  0.70266  0.90192  0.68979  1.0000
  Fe  Fe91      1.0  0.85012  0.72712  0.65264  1.0000
  S   S182      1.0  0.84665  0.69206  0.62586  1.0000
  S   S183      1.0  0.81480  0.75087  0.64827  1.0000
  Fe  Fe92      1.0  0.90463  0.71465  0.66661  1.0000
  S   S184      1.0  0.90378  0.67977  0.64028  1.0000
  S   S185      1.0  0.94064  0.72190  0.69112  1.0000
  Fe  Fe93      1.0  0.88311  0.70175  0.60470  1.0000
  S   S186      1.0  0.89663  0.70238  0.55474  1.0000
  H   H1051     1.0  0.76859  0.83231  0.59798  1.0000
  S   S187      1.0  0.88623  0.73740  0.62957  1.0000
  S   S188      1.0  0.86876  0.70706  0.69259  1.0000
  C   C1320     1.0  0.96994  0.72671  0.67323  1.0000
  C   C1321     1.0  0.97262  0.73499  0.64255  1.0000
  C   C1322     1.0  0.69677  0.95521  0.89016  1.0000
  C   C1323     1.0  0.56400  0.92057  0.93063  1.0000
  H   H1052     1.0  0.87292  0.74849  0.56520  1.0000
  H   H1053     1.0  0.95654  0.73804  0.62879  1.0000
  C   C1324     1.0  0.95980  0.68219  0.50927  1.0000
  C   C1325     1.0  0.80952  0.78296  0.56859  1.0000
  C   C1326     1.0  0.87966  0.69889  0.52074  1.0000
  C   C1327     1.0  0.85605  0.68902  0.52107  1.0000
  H   H1054     1.0  0.88673  0.82616  0.56360  1.0000
  H   H1055     1.0  0.97871  0.67327  0.71124  1.0000
  C   C1328     1.0  0.76728  0.81991  0.67072  1.0000
  C   C1329     1.0  0.79057  0.81663  0.68374  1.0000
  C   C1330     1.0  0.80538  0.79592  0.67699  1.0000
  C   C1331     1.0  0.79713  0.77789  0.65715  1.0000
  C   C1332     1.0  0.77388  0.78123  0.64398  1.0000
  C   C1333     1.0  0.75908  0.80195  0.65071  1.0000
  H   H1056     1.0  0.79721  0.83018  0.69937  1.0000
  H   H1057     1.0  0.82309  0.79379  0.68745  1.0000
  H   H1058     1.0  0.76711  0.76748  0.62871  1.0000
  H   H1059     1.0  0.74115  0.80375  0.64088  1.0000
  H   H1060     1.0  0.64436  0.96377  0.85051  1.0000
  C   C1334     1.0  0.48908  0.78452  0.78751  1.0000
  H   H1061     1.0  0.61396  0.94706  0.68646  1.0000
  H   H1062     1.0  0.69905  0.96530  0.69204  1.0000
  C   C1335     1.0  0.52986  0.92236  0.72344  1.0000
  C   C1336     1.0  0.56667  0.86649  0.76674  1.0000
  C   C1337     1.0  0.58409  0.85152  0.75190  1.0000
  C   C1338     1.0  0.60488  0.86187  0.73680  1.0000
  C   C1339     1.0  0.60835  0.88733  0.73630  1.0000
  C   C1340     1.0  0.59062  0.90224  0.75059  1.0000
  C   C1341     1.0  0.57001  0.89193  0.76587  1.0000
  H   H1063     1.0  0.58166  0.83179  0.75241  1.0000
  H   H1064     1.0  0.61834  0.85014  0.72591  1.0000
  H   H1065     1.0  0.59278  0.92194  0.74983  1.0000
  H   H1066     1.0  0.55691  0.90364  0.77740  1.0000
  C   C1342     1.0  0.66068  0.86292  0.51040  1.0000
  C   C1343     1.0  0.67041  0.87092  0.53821  1.0000
  C   C1344     1.0  0.79424  0.80161  0.55730  1.0000
  H   H1067     1.0  0.64643  0.84917  0.51099  1.0000
  C   C1345     1.0  0.76688  0.84929  0.58464  1.0000
  C   C1346     1.0  0.94121  0.75418  0.56297  1.0000
  H   H1068     1.0  0.70898  0.96502  0.90493  1.0000
  Fe  Fe94      1.0  0.50116  0.92689  0.83373  1.0000
  H   H1069     1.0  0.50163  0.76927  0.78460  1.0000
  C   C1347     1.0  0.50152  0.88214  0.97340  1.0000
  H   H1070     1.0  0.49217  0.93274  0.93453  1.0000
  C   C1348     1.0  0.87994  0.80999  0.55247  1.0000
  H   H1071     1.0  0.67206  0.98583  0.88428  1.0000
  H   H1072     1.0  0.65565  0.79076  0.58385  1.0000
  H   H1073     1.0  0.49862  0.96005  0.68508  1.0000
  H   H1074     1.0  0.58751  0.98094  0.60233  1.0000
  C   C1349     1.0  0.95177  0.73873  0.54113  1.0000
  C   C1350     1.0  0.66264  0.96066  0.56794  1.0000
  H   H1075     1.0  0.80099  0.82026  0.55632  1.0000
  H   H1076     1.0  0.92333  0.74979  0.57278  1.0000
  H   H1077     1.0  0.74808  0.87278  0.51534  1.0000
  H   H1078     1.0  0.96581  0.68149  0.53297  1.0000
  C   C1351     1.0  0.53201  0.94249  0.74253  1.0000
  H   H1079     1.0  0.81309  0.74434  0.57974  1.0000
  C   C1352     1.0  0.66915  0.85822  0.77014  1.0000
  C   C1353     1.0  0.69206  0.86663  0.75986  1.0000
  C   C1354     1.0  0.70082  0.88911  0.76984  1.0000
  C   C1355     1.0  0.68669  0.90321  0.79005  1.0000
  C   C1356     1.0  0.66379  0.89471  0.80098  1.0000
  C   C1357     1.0  0.65504  0.87217  0.79056  1.0000
  P   P45       1.0  0.64537  0.91355  0.82642  1.0000
  C   C1358     1.0  0.66539  0.92992  0.85146  1.0000
  C   C1359     1.0  0.62802  0.93561  0.80383  1.0000
  C   C1360     1.0  0.60568  0.94486  0.81532  1.0000
  C   C1361     1.0  0.59275  0.96270  0.79844  1.0000
  C   C1362     1.0  0.54662  0.96241  0.73328  1.0000
  C   C1363     1.0  0.62421  0.96234  0.75845  1.0000
  C   C1364     1.0  0.63720  0.94456  0.77530  1.0000
  C   C1365     1.0  0.68618  0.91820  0.86350  1.0000
  C   C1366     1.0  0.70184  0.93085  0.88269  1.0000
  H   H1080     1.0  0.64824  0.92386  0.50877  1.0000
  H   H1081     1.0  0.94154  0.72294  0.53419  1.0000
  C   C1367     1.0  0.66029  0.95433  0.85931  1.0000
  C   C1368     1.0  0.62461  0.89468  0.84974  1.0000
  C   C1369     1.0  0.60388  0.88469  0.83628  1.0000
  C   C1370     1.0  0.58737  0.87039  0.85384  1.0000
  C   C1371     1.0  0.59124  0.86618  0.88527  1.0000
  C   C1372     1.0  0.61185  0.87602  0.89900  1.0000
  C   C1373     1.0  0.62852  0.89022  0.88135  1.0000
  H   H1082     1.0  0.66211  0.84109  0.76176  1.0000
  H   H1083     1.0  0.70287  0.85597  0.74369  1.0000
  H   H1084     1.0  0.71839  0.89580  0.76127  1.0000
  H   H1085     1.0  0.69357  0.92089  0.79676  1.0000
  H   H1086     1.0  0.63722  0.86535  0.79755  1.0000
  H   H1087     1.0  0.59824  0.93835  0.83729  1.0000
  C   C1374     1.0  0.54943  0.93206  0.95286  1.0000
  H   H1088     1.0  0.68430  0.81217  0.61757  1.0000
  H   H1089     1.0  0.63135  0.96890  0.73631  1.0000
  H   H1090     1.0  0.65416  0.93758  0.76560  1.0000
  H   H1091     1.0  0.69031  0.89928  0.85801  1.0000
  C   C1375     1.0  0.55125  0.95070  0.89227  1.0000
  C   C1376     1.0  0.53894  0.97610  0.62200  1.0000
  Fe  Fe95      1.0  0.49927  0.88640  0.88437  1.0000
  C   C1377     1.0  0.97521  0.74365  0.52887  1.0000
  H   H1092     1.0  0.60065  0.88781  0.81204  1.0000
  H   H1093     1.0  0.57154  0.86255  0.84300  1.0000
  H   H1094     1.0  0.57823  0.85529  0.89891  1.0000
  H   H1095     1.0  0.61491  0.87258  0.92335  1.0000
  H   H1096     1.0  0.64430  0.89759  0.89253  1.0000
  C   C1378     1.0  0.53667  0.96228  0.91446  1.0000
  C   C1379     1.0  0.95384  0.77482  0.57256  1.0000
  C   C1380     1.0  0.51431  0.94107  0.58822  1.0000
  C   C1381     1.0  0.53448  0.93407  0.60582  1.0000
  C   C1382     1.0  0.54724  0.95166  0.62235  1.0000
  H   H1097     1.0  0.71832  0.95646  0.49849  1.0000
  P   P46       1.0  0.57152  0.94242  0.64776  1.0000
  C   C1383     1.0  0.55735  0.94184  0.68569  1.0000
  C   C1384     1.0  0.58428  0.91318  0.63695  1.0000
  C   C1385     1.0  0.58891  0.89477  0.65928  1.0000
  C   C1386     1.0  0.59994  0.87266  0.65086  1.0000
  C   C1387     1.0  0.60665  0.86887  0.62012  1.0000
  C   C1388     1.0  0.60259  0.88731  0.59780  1.0000
  C   C1389     1.0  0.59159  0.90948  0.60618  1.0000
  C   C1390     1.0  0.55942  0.96208  0.70502  1.0000
  P   P47       1.0  0.51722  0.96809  0.97409  1.0000
  H   H1098     1.0  0.55116  0.95731  0.86849  1.0000
  C   C1391     1.0  0.54210  0.92220  0.69488  1.0000
  C   C1392     1.0  0.59726  0.96304  0.64568  1.0000
  C   C1393     1.0  0.67362  0.98007  0.55111  1.0000
  H   H1099     1.0  0.59222  0.98531  0.75700  1.0000
  C   C1394     1.0  0.49484  0.80755  0.77444  1.0000
  C   C1395     1.0  0.69717  0.89861  0.50890  1.0000
  C   C1396     1.0  0.61544  0.96084  0.66802  1.0000
  P   P48       1.0  0.74934  0.82054  0.53727  1.0000
  H   H1100     1.0  0.80014  0.86520  0.49755  1.0000
  H   H1101     1.0  0.50470  0.92746  0.57521  1.0000
  H   H1102     1.0  0.53990  0.91491  0.60668  1.0000
  H   H1103     1.0  0.81813  0.66797  0.79189  1.0000
  H   H1104     1.0  0.58473  0.89764  0.68334  1.0000
  H   H1105     1.0  0.60395  0.85874  0.66835  1.0000
  H   H1106     1.0  0.61571  0.85193  0.61373  1.0000
  H   H1107     1.0  0.60872  0.88457  0.57419  1.0000
  H   H1108     1.0  0.58925  0.92386  0.58878  1.0000
  H   H1109     1.0  0.97717  0.67636  0.77663  1.0000
  H   H1110     1.0  0.71797  0.92176  0.89169  1.0000
  H   H1111     1.0  0.53988  0.90659  0.68017  1.0000
  H   H1112     1.0  0.51190  0.81020  0.76165  1.0000
  C   C1397     1.0  0.65321  0.94058  0.55268  1.0000
  H   H1113     1.0  0.57584  0.92061  0.88309  1.0000
  H   H1114     1.0  0.66231  0.96077  0.59296  1.0000
  H   H1115     1.0  0.87131  0.82949  0.51043  1.0000
  H   H1116     1.0  0.50006  0.86370  0.66907  1.0000
  C   C1398     1.0  0.60213  0.97153  0.77011  1.0000
  C   C1399     1.0  0.50644  0.96554  0.58752  1.0000
  C   C1400     1.0  0.71227  0.81645  0.58232  1.0000
  H   H1117     1.0  0.68658  0.98010  0.79576  1.0000
  C   C1401     1.0  0.77016  0.89363  0.58235  1.0000
  C   C1402     1.0  0.68961  0.80840  0.59397  1.0000
  H   H1118     1.0  0.66757  0.78258  0.52956  1.0000
  C   C1403     1.0  0.76226  0.77169  0.55007  1.0000
  S   S189      1.0  0.48715  0.85836  0.85004  1.0000
  C   C1404     1.0  0.71923  0.81198  0.55163  1.0000
  C   C1405     1.0  0.60049  0.97984  0.62083  1.0000
  C   C1406     1.0  0.63613  0.97584  0.66612  1.0000
  H   H1119     1.0  0.77907  0.87105  0.62219  1.0000
  C   C1407     1.0  0.87224  0.76625  0.55343  1.0000
  H   H1120     1.0  0.88731  0.78573  0.59129  1.0000
  C   C1408     1.0  0.53599  0.95331  0.94513  1.0000
  C   C1409     1.0  0.67347  0.79629  0.57495  1.0000
  C   C1410     1.0  0.56512  0.93002  0.90044  1.0000
  H   H1121     1.0  0.77413  0.91075  0.59351  1.0000
  H   H1122     1.0  0.69639  0.89507  0.55839  1.0000
  C   C1411     1.0  0.88042  0.78722  0.56803  1.0000
  H   H1123     1.0  0.77145  0.73419  0.56258  1.0000
  Fe  Fe96      1.0  0.86752  0.67292  0.66424  1.0000
  C   C1412     1.0  0.86324  0.76802  0.52354  1.0000
  C   C1413     1.0  0.68892  0.88855  0.53726  1.0000
  C   C1414     1.0  0.65477  0.93986  0.52053  1.0000
  S   S190      1.0  0.51379  0.96545  0.82167  1.0000
  H   H1124     1.0  0.52260  0.94245  0.76472  1.0000
  C   C1415     1.0  0.75820  0.84926  0.55429  1.0000
  C   C1416     1.0  0.77299  0.87130  0.59847  1.0000
  C   C1417     1.0  0.70302  0.79941  0.53278  1.0000
  C   C1418     1.0  0.76123  0.89391  0.55235  1.0000
  H   H1125     1.0  0.82746  0.78736  0.57701  1.0000
  H   H1126     1.0  0.71109  0.91266  0.50858  1.0000
  H   H1127     1.0  0.94579  0.78646  0.58997  1.0000
  C   C1419     1.0  0.66620  0.95894  0.50364  1.0000
  C   C1420     1.0  0.94245  0.66523  0.49986  1.0000
  H   H1128     1.0  0.96082  0.67416  0.65987  1.0000
  C   C1421     1.0  0.80136  0.75867  0.57029  1.0000
  H   H1129     1.0  0.57359  0.90374  0.93662  1.0000
  H   H1130     1.0  0.57537  0.96954  0.80724  1.0000
  H   H1131     1.0  0.52553  0.97774  0.90731  1.0000
  C   C1422     1.0  0.77021  0.79623  0.54876  1.0000
  C   C1423     1.0  0.68016  0.79182  0.54435  1.0000
  H   H1132     1.0  0.74390  0.76699  0.54350  1.0000
  C   C1424     1.0  0.87090  0.81184  0.52251  1.0000
  C   C1425     1.0  0.77783  0.75301  0.56074  1.0000
  C   C1426     1.0  0.67596  0.96691  0.87856  1.0000
  C   C1427     1.0  0.97704  0.78013  0.56009  1.0000
  H   H1133     1.0  0.84720  0.68404  0.54285  1.0000
  H   H1134     1.0  0.72415  0.82618  0.59743  1.0000
  H   H1135     1.0  0.51916  0.90662  0.73120  1.0000
  C   C1428     1.0  0.75526  0.87186  0.53835  1.0000
  H   H1136     1.0  0.64554  0.92514  0.56583  1.0000
  C   C1429     1.0  0.70005  0.98320  0.68069  1.0000
  H   H1137     1.0  0.65035  0.97369  0.68303  1.0000
  H   H1138     1.0  0.75834  0.91129  0.54023  1.0000
  C   C1430     1.0  0.70521  0.98495  0.64898  1.0000
  H   H1139     1.0  0.82104  0.66242  0.73526  1.0000
  H   H1140     1.0  0.54815  0.92381  0.97578  1.0000
  H   H1141     1.0  0.49482  0.89750  0.63031  1.0000
  H   H1142     1.0  0.54804  0.97796  0.74828  1.0000
  H   H1143     1.0  0.57068  0.97767  0.69821  1.0000
  H   H1144     1.0  0.85785  0.75130  0.51244  1.0000
  S   S191      1.0  0.51265  0.88025  0.93430  1.0000
  C   C1431     1.0  0.67547  0.97943  0.51871  1.0000
  C   C1432     1.0  0.49023  0.88028  0.67522  1.0000
  H   H1145     1.0  0.49079  0.97091  0.57388  1.0000
  H   H1146     1.0  0.82602  0.82923  0.50900  1.0000
  C   C1433     1.0  0.86166  0.79101  0.50823  1.0000
  C   C1434     1.0  0.48738  0.89939  0.65345  1.0000
  H   H1147     1.0  0.81466  0.76483  0.50606  1.0000
  H   H1148     1.0  0.70798  0.79532  0.50917  1.0000
  C   C1435     1.0  0.48925  0.97716  0.68957  1.0000
  S   S192      1.0  0.48901  0.90241  0.79602  1.0000
  C   C1436     1.0  0.51870  0.98303  0.60449  1.0000
  H   H1149     1.0  0.78717  0.73095  0.49309  1.0000
  C   C1437     1.0  0.74854  0.82311  0.49557  1.0000
  H   H1150     1.0  0.71689  0.84716  0.49514  1.0000
  C   C1438     1.0  0.97831  0.65643  0.69854  1.0000
  C   C1439     1.0  0.96801  0.65699  0.66928  1.0000
  H   H1151     1.0  0.82627  0.67647  0.49338  1.0000
  C   C1440     1.0  0.84426  0.68468  0.49302  1.0000
  H   H1152     1.0  0.53770  0.87943  0.99220  1.0000
