data_image0
_chemical_formula_structural       HC2HC2H2CH3CH2C2HFeS2CPHSHSHFeSCFeS2HC6HC4HC2HC5H3SH2C2H2CHC2HC2H3C6PC14HSC2H6SCH8CH3C2H2CH3PHC2HCHCFeC3H2C2HCH2C2H2C3PHC7H3CH2CH3CH2C2H2CHSHCHCH2C3HC4HC3PCFeH2CH2CH2C5HC2HC3FeHCSH5CHC4H4CFeSC2SH2CSC4FeSHFeS2FeSFeCS2FeSCFeSCFeSFeSH2C3SC7H5CH3CSCSC2HCH2PC10HC3H2C2H3CHCH4C2PC3H2CHCHC2H5CH3C12HC2H5CHCH2C2H2C4HC2HC5HCPC2H3CH3CHC2HC3HCHC3H2CH2CHCH3C2HC3H2CHC2H2CH2C2HCHSC4HCPCH2C2HC3H5CPSCH3C2H2CH3CH2C4HC2SC3H2C4FeCFeS2FeSFeCHSFeS2FeS2HFeH2SHCHCH2CSC2H2C2HCHC8H2CH4C3HCH2C2H2C5H2CHCHC3HSHC4HC2H2CHC4HC7PHSCHC7HC2SHCSH8CH3CHCH2C2HCH5CH2CH2CHC3HCHCHPCH2CHC4HC3H2CHPH2C5SH2PC2H2CHC3H2FeSHFeS2FeSFeS3FeSPFeS2FeSFeSHSHCH4C7H2C7H7C3HCHC2HCH2C3H3C3H6C3H3C2HCHC2HCHC6H2C2HCH2C2SHCHC3HCHC5HCHC2HCH3CHC4H3C2H4C2HCHCH2PCPCHC2HC5H3CHCHCHC5H2CSHC4HPCHC3H2C4S2CFeSCFeCHFeH2S2C4FeSCFeSC2SHC4HCSHCHC2HCHFeHC4PC3H4C3PCHCSH2PHC4HCHCHC8H2C3H3CH2FeH2CH6CHFeH3CH2C2HC4HC2HC2H3CSCH5CHC2PCH4C2HC2HC4HC3HC2HCHCH2CHCHCHC4HC3HCH4CHCSHC3H2CSC3H2CHCSCH2FeHSFeSH2CHCSFeC2FeSHFeSC2SH3CHCHC8H3CHC4H3C2HC3PC18HCH10C2H8CHCSPCHC6H2C2SH2CSH2CH2CSH3C5FeC4H3CSFeC3HC2H4SHCHC6HSCSHCHFeS2HC6H3FeHCH2CFeCH2CSC2HCH2C3H2C7PC3HC9HC2H12SC2HC4FeH2CHC2H3C3SC2H3CHC2H2CH2C2HC4SHPCHC3HCSHCHC3HCH2CHCHC2HSCH8PHC3HCHC3HC3HC2HSHCHC2HC5HSFeSCFeS2FeSFeCSFeHSFeS2FeHFeS3HC3HCH2C3HCHC2HC3H2CHC6H4C4HSCH2C2H5CHCHCHC3PC2H3C2HCH2C3HC4HCHC2SC4H2C2HC4PC3HCHC12H3C2HCH6C3HC2HPHC7HC3PHCH4CH7CH2CH3CH6CHCHSCHSHC2H2CH3C3HC3HC3HCH2C3H2C2H2C2HC3H2CHCHCHFeS3FeCFeHCHFeSFeCHFeSHS2H2CHS2HCH2FeCH2C4HC2H4C8HC6H2C2HC7PH2CH2CH3CHC3HCHSC6HC2HPH2CHC2H6CHC4SH4CHC3HC4HC2H3CH3C2HC2FeHCHC2SCHC2S2C3HPHC2HCHCH2C2SC5H2C2H4SC2HC3H4C5HC3HCHC3HCH2CSH2FeH4SCH2CFeHCHSC2HC3H2C3HC2H4C8SC3H3CHC2HCHCHC4HCH2CHCH2SH2CHCHPCSCH2CHCH2C3HC4H2C5PSH3C3FeH2PHC6HCHC3HC4H2CHCHCH2CH2C2HCHSC2H3CHSH2C2H2CHCSH5CFeSCFeCFeSFeS2HFeSHCSFeSFeSHSC2H3C8H3CHC2SC2H2CH5C2H2SHSCHC5PC11H5CH9CH3C3PC4H3CH2CH2CHC3HCHC3SC2HCH2C6HC4HSCHC2H2C2HCH3CFeHC2HCH2CHCH3S2C2HC4HC2HC2HCH2CH3CHSCFeS2FeSFeSFeS3FeS2FeCSFeH2S2C3HC3H3C8H3CH2C8PC9H2C2HC2H2CHCHCH2C3H5CH6C2HCHC2H2CH2C4H2C2H3C4H3CH2CHCHC2H2CHCPC2H4CHFeCH3CHCHCHCH3C4HC3H2C2HCH2CHCH3C2HFeSHFeS2FeCFeSHSFeS2FeSHFeSFeCS2C2HC2HSCH2C5HC2HC3H2C6H4C2HCPHCH2SH4C2HCHC6PC8SC3H2CH3PC2H4CH2C2HSH2CH2C2PH4C2H5CH4C2H2CH2CHC2SC3HC2HCPC4H2C6HC2H2CH8C2H2C6HC2HCHC4FeS3HFeCFeS3FeS2FeSCHFeC2SC5HC4SH4C2H3C2HCHC2HC6PC4HCHC9SH8CH5C2H2C4H4C2SHC3SH6C2H5CHC5H2C2H2CFeH4C6H4C2HC3SH2C3FeCH2C3H3CH3SH3CHCH2C4H2SPH2CSFeS2HCFeSCS2CSC4HCFeHSC5HC3H3CHC3HC5H2C4HSC2H3C2HC2FeCHCSC6HC3H2CFeCHPH3S3H4CH2CHC2HC3FeCHCH2SHSH2C2HFeC2H2C2H2PH3C7PC10HC3FeHC2HCH10CH3C2H7CH2C3HCH2CHCH2SH4CH2C3HPHC2H2CFeC2H8C7HFeSH2CSC2FeS2H3FeSFeCHSFeS2FeSHFeSFeS3HCHCHSC6HC3H2C4FeCH2C3PHCH2C2HCHCHCHCHC3HC3H2C3HC2H3C2H3C2H3C4HC2H2CHC3PC4HC3HCH2CHC2H3CSCH2CH2C3HC4H2CH2C4HCH5CHC3HC2H3FeS3C2FeS2HCSH3FeHSCH2C2HCHCHC2H2CH2CHCH2C2H2CH4CHCH2CH2C2HC5HCH2C3H2Fe2C4H2C3H2CHC4H2SCHCH2CHC4HC2H2C2H2C2HCSH5SCH2C5H2C4H2C3H2C5H2CHC3HCH2CH2CHC3PCHCHC11HC2PH3C4H5FeHCH2C4HPCHC4HCH3CH3C2H2SH3CPSH4FeS2FeS2FeSHFeC2FeCSC3HSC2H3CH3PHCSH5C3SH2CHCH2C2H2SHSC2PCHCH2C2H2CHCPSH3PHCHC4HCH2C2SC4HC6H4CH3CPHCH3C3HCHC2HC3HFeC4HC3HC9HC9HCH2C5H2C4H2C3HCHC2HCH2C5H2CHCH2C4H2CHC3HC2H2C2H3C3SC3HCH3CSC2HC2FeSH2C6HC4HCH3CH2C5HC3PCHC3HCHC4HPCHSC4H2CSHCH2CH4C2HS2HCHCSC3SHCHCHC2PH3CHCH3C2HCHCHC3H2CHC3HCH4C2HC4H2CH2CHCHC2H2CFeCH2CH2FeSCHFeC3FeS2CHCFeSCSCSH3CHSC5H4C2HC5H2C2HSC2HC2HC3H5CHFeHC2HS2CSHCH2CHC2HCSC2H2CSC3HC3H3CFeH3C3HCFeH4CHC2H3C2HC4HCFeH3C3PC3H5CH3C2HC4HCHCH5C2SCSHCHC2FeHCPHCH2CHCH2C2H3SC4H2C11HCHSHC6FeS2FeS2FeHFeS2HFeS2FeSCFeSFeS3HCHC2H2C6H6CH2CH3CHCHCHCHC6H2C3H5C3HCHC3H2C2HC3H2CHC2HPHC2H2CSHC2SHC2HC2HC4H2CPCHCSCH3C2HC4PCH2CPCH2C2HC3H3C3H2C3H2C8HC2H3C3HC6HCHCHC3H2C3HCH5C2H2C3HCSCHCH2CH2CSH6C2HFeS2C3SFeSHFeS3C2HCH2C2HSCH5C3H3CPHC3HC2H2C3HC3HCH4C2HFeHC2H3C2HCH2PCHC3HC2H2CHC2HC9SCHCH2CH5CH2C5H4C6PC14HC2FeC2H12SHCH3C2HCH2CHC3HC2H2PFeCH4C2HC4HCH3CHC2H2C4HC4FeCH2C5HFeH2C3HCSC2HS2HC7HCSH6CSCH3CHC8PC8HC4PHCH17C5HCHFeH2C2SHC2FeCFeSCH2CHCHC3HC2H3C3HPCHCPC2SCSHCH3CH2C2H2CHC2H2C3PCH2C7H2CH2CHSH5C4HC3H4C2FeS2FeSHFeHFeS3FeS2FeSCFeCFeHCSHC2HSCH7CH2C6H2CH3CH3C2HC3H4CHC3HCHCHC10HC4H3CPCPC7HCHCHCSH3CH2CSH3C2HC2HC2HC7HC2H5C4SCHC4H2CHCHCH3C2HC3HCHC5HCHC2H3C2HC4HPHC4H2CHCHC2HCH2C3HCH2CH5C2HC4HC3HPH2S3HSC2PHSFeCHCSCHFeHCFeCSHC6HC3HC3H2C4H3C3SHC4FeCHC3SCH2C8PC3H2SHCH2C8H5C5HC2H7CH2C2HCH2C3SH4CH3CHCSHCSH5SFeHSC3FeCH2CHCHC2HCH3CSH4CHC6HC7HPH3C3H4CH2CH3CHCHCHC2HC2FeH3Fe2C2H2SH3C5HC4H2FeS2FeS2FeHFeS3FeS2FeCFeSFeCS2C6PHCH3C5HCHC6H4CHC2HC2H4CHCH5CHCH4C3HC2HCHC8H4C3H2C3H3C3PC12HCHCH2CH6C3H3C3SH2PC4H3C2HC2HCH4CHCH6C2H3C2SC5HCHC3H3C3HFeSC4FeS2C2FeSC2H4CHFeCHC2H2SCH2CHCSHPFePCHC5HC2HSHCHCHC2HC6PC18H20CHC2H3C15FeHFeC2H4CH5C2HCHCH2C3H2CHC4H5CHCSC2HC2HCH2SC2HCH4C2H3PC4H3SHS2H2PSCH2CH3CSC2HSHSCH3CHSHCH3CH2CH2CH3CH2C6HC2
_chemical_formula_sum              "H2304 C2880 Fe192 S384 P96"
_cell_length_a       79.601
_cell_length_b       78.5216
_cell_length_c       37.8552
_cell_angle_alpha    88.6385
_cell_angle_beta     88.7999
_cell_angle_gamma    111.185

_space_group_name_H-M_alt    "P 1"
_space_group_IT_number       1

loop_
  _space_group_symop_operation_xyz
  'x, y, z'

loop_
  _atom_site_type_symbol
  _atom_site_label
  _atom_site_symmetry_multiplicity
  _atom_site_fract_x
  _atom_site_fract_y
  _atom_site_fract_z
  _atom_site_occupancy
  H   H1        1.0  0.12542  0.22746  0.44944  1.0000
  C   C1        1.0  0.13512  0.23543  0.46797  1.0000
  C   C2        1.0  0.22854  0.99574  0.02283  1.0000
  H   H2        1.0  0.22784  0.01509  0.44759  1.0000
  C   C3        1.0  0.19913  0.99300  0.00207  1.0000
  C   C4        1.0  0.15133  0.23712  0.52196  1.0000
  H   H3        1.0  0.21100  0.00186  0.69720  1.0000
  H   H4        1.0  0.15424  0.23049  0.54524  1.0000
  C   C5        1.0  0.20619  0.01117  0.98940  1.0000
  H   H5        1.0  0.22623  0.99921  0.55799  1.0000
  H   H6        1.0  0.19754  0.01718  0.97646  1.0000
  H   H7        1.0  0.22259  0.99751  0.75694  1.0000
  C   C6        1.0  0.22489  0.00927  0.68875  1.0000
  H   H8        1.0  0.22061  0.03462  0.67971  1.0000
  H   H9        1.0  0.13260  0.21216  0.50198  1.0000
  C   C7        1.0  0.13912  0.22680  0.49763  1.0000
  C   C8        1.0  0.22444  0.02155  0.99307  1.0000
  H   H10       1.0  0.15082  0.41531  0.47417  1.0000
  Fe  Fe1       1.0  0.18727  0.36047  0.06102  1.0000
  S   S1        1.0  0.20535  0.38917  0.07216  1.0000
  S   S2        1.0  0.15674  0.35550  0.06033  1.0000
  C   C9        1.0  0.22352  0.38039  0.27178  1.0000
  P   P1        1.0  0.16615  0.28923  0.48063  1.0000
  H   H11       1.0  0.17004  0.29786  0.16899  1.0000
  S   S3        1.0  0.19947  0.34849  0.10415  1.0000
  H   H12       1.0  0.08981  0.45927  0.04647  1.0000
  S   S4        1.0  0.17622  0.35360  0.49077  1.0000
  H   H13       1.0  0.16748  0.38678  0.11052  1.0000
  Fe  Fe2       1.0  0.19957  0.35871  0.44935  1.0000
  S   S5        1.0  0.20365  0.37960  0.40565  1.0000
  C   C10       1.0  0.21999  0.44788  0.12413  1.0000
  Fe  Fe3       1.0  0.21411  0.36216  0.37219  1.0000
  S   S6        1.0  0.20321  0.35198  0.31813  1.0000
  S   S7        1.0  0.20845  0.33999  0.41491  1.0000
  H   H14       1.0  0.17358  0.44685  0.15472  1.0000
  C   C11       1.0  0.17391  0.29405  0.37317  1.0000
  C   C12       1.0  0.18783  0.41789  0.36041  1.0000
  C   C13       1.0  0.22329  0.43815  0.32573  1.0000
  C   C14       1.0  0.15615  0.26471  0.48620  1.0000
  C   C15       1.0  0.19663  0.47800  0.47492  1.0000
  C   C16       1.0  0.20811  0.48043  0.00480  1.0000
  H   H15       1.0  0.16355  0.46771  0.18990  1.0000
  C   C17       1.0  0.02724  0.37676  0.04654  1.0000
  C   C18       1.0  0.00875  0.31509  0.12407  1.0000
  C   C19       1.0  0.18980  0.39999  0.28170  1.0000
  C   C20       1.0  0.17521  0.40416  0.00704  1.0000
  H   H16       1.0  0.19346  0.27197  0.48123  1.0000
  C   C21       1.0  0.19295  0.41909  0.21709  1.0000
  C   C22       1.0  0.22736  0.48208  0.48908  1.0000
  H   H17       1.0  0.19463  0.42645  0.19192  1.0000
  C   C23       1.0  0.20894  0.36089  0.21145  1.0000
  C   C24       1.0  0.20383  0.35282  0.24555  1.0000
  C   C25       1.0  0.21098  0.36254  0.27590  1.0000
  C   C26       1.0  0.17095  0.40380  0.35801  1.0000
  C   C27       1.0  0.10565  0.41775  0.03436  1.0000
  H   H18       1.0  0.20325  0.35327  0.18839  1.0000
  H   H19       1.0  0.19415  0.33900  0.24843  1.0000
  H   H20       1.0  0.19334  0.41403  0.44865  1.0000
  S   S8        1.0  0.13059  0.45719  0.46747  1.0000
  H   H21       1.0  0.20827  0.30488  0.25057  1.0000
  H   H22       1.0  0.03860  0.34552  0.09387  1.0000
  C   C28       1.0  0.17537  0.47314  0.17241  1.0000
  C   C29       1.0  0.19557  0.42183  0.39361  1.0000
  H   H23       1.0  0.04395  0.37854  0.09118  1.0000
  H   H24       1.0  0.22385  0.43098  0.08261  1.0000
  C   C30       1.0  0.05205  0.31597  0.04700  1.0000
  H   H25       1.0  0.10199  0.42485  0.05566  1.0000
  C   C31       1.0  0.10998  0.44171  0.48628  1.0000
  C   C32       1.0  0.14117  0.35519  0.02657  1.0000
  H   H26       1.0  0.18836  0.47154  0.04707  1.0000
  C   C33       1.0  0.00807  0.30899  0.15928  1.0000
  C   C34       1.0  0.16754  0.40014  0.10227  1.0000
  H   H27       1.0  0.13987  0.26086  0.43978  1.0000
  H   H28       1.0  0.05760  0.40989  0.44395  1.0000
  H   H29       1.0  0.20846  0.43279  0.39647  1.0000
  C   C35       1.0  0.10419  0.37801  0.30041  1.0000
  C   C36       1.0  0.12080  0.38314  0.28216  1.0000
  C   C37       1.0  0.13509  0.39870  0.29171  1.0000
  C   C38       1.0  0.13286  0.40895  0.31996  1.0000
  C   C39       1.0  0.11633  0.40371  0.33890  1.0000
  C   C40       1.0  0.10186  0.38838  0.32834  1.0000
  P   P2        1.0  0.11314  0.41806  0.37302  1.0000
  C   C41       1.0  0.09397  0.40540  0.40167  1.0000
  C   C42       1.0  0.13323  0.42585  0.39891  1.0000
  C   C43       1.0  0.13446  0.41642  0.43022  1.0000
  C   C44       1.0  0.15006  0.42255  0.44991  1.0000
  C   C45       1.0  0.16465  0.43798  0.43834  1.0000
  C   C46       1.0  0.16360  0.44738  0.40722  1.0000
  C   C47       1.0  0.14797  0.44142  0.38761  1.0000
  C   C48       1.0  0.09151  0.38758  0.41394  1.0000
  C   C49       1.0  0.07702  0.37799  0.43695  1.0000
  C   C50       1.0  0.06471  0.38600  0.44735  1.0000
  C   C51       1.0  0.06693  0.40358  0.43501  1.0000
  C   C52       1.0  0.08156  0.41333  0.41251  1.0000
  C   C53       1.0  0.10963  0.43736  0.35188  1.0000
  C   C54       1.0  0.11231  0.45333  0.37055  1.0000
  H   H30       1.0  0.16705  0.44756  0.07325  1.0000
  S   S9        1.0  0.20611  0.35671  0.01923  1.0000
  C   C55       1.0  0.10113  0.45144  0.30072  1.0000
  C   C56       1.0  0.10398  0.43652  0.31679  1.0000
  H   H31       1.0  0.09302  0.36610  0.29267  1.0000
  H   H32       1.0  0.12255  0.37516  0.26035  1.0000
  H   H33       1.0  0.14786  0.40284  0.27707  1.0000
  H   H34       1.0  0.14397  0.42106  0.32682  1.0000
  H   H35       1.0  0.08869  0.38453  0.34129  1.0000
  H   H36       1.0  0.12339  0.40455  0.44015  1.0000
  S   S10       1.0  0.22706  0.39015  0.16518  1.0000
  C   C57       1.0  0.19604  0.42853  0.24864  1.0000
  H   H37       1.0  0.17477  0.45947  0.39853  1.0000
  H   H38       1.0  0.14734  0.44911  0.36391  1.0000
  H   H39       1.0  0.10101  0.38123  0.40639  1.0000
  H   H40       1.0  0.07552  0.36448  0.44729  1.0000
  H   H41       1.0  0.05366  0.37882  0.46567  1.0000
  H   H42       1.0  0.12878  0.44096  0.01809  1.0000
  H   H43       1.0  0.08321  0.42712  0.40426  1.0000
  H   H44       1.0  0.11659  0.45429  0.39763  1.0000
  C   C58       1.0  0.18031  0.48048  0.32124  1.0000
  H   H45       1.0  0.18627  0.39284  0.19339  1.0000
  H   H46       1.0  0.09704  0.45092  0.27350  1.0000
  H   H47       1.0  0.10172  0.42442  0.30170  1.0000
  C   C59       1.0  0.16235  0.39329  0.38804  1.0000
  C   C60       1.0  0.17047  0.39687  0.42075  1.0000
  H   H48       1.0  0.14948  0.38222  0.38599  1.0000
  H   H49       1.0  0.16405  0.38847  0.44395  1.0000
  C   C61       1.0  0.98063  0.30726  0.03624  1.0000
  H   H50       1.0  0.02993  0.39133  0.04500  1.0000
  H   H51       1.0  0.20393  0.41401  0.01352  1.0000
  H   H52       1.0  0.14834  0.34529  0.43635  1.0000
  P   P3        1.0  0.01671  0.31503  0.05187  1.0000
  H   H53       1.0  0.08206  0.39332  0.04235  1.0000
  C   C62       1.0  0.02013  0.29181  0.10582  1.0000
  C   C63       1.0  0.14228  0.34676  0.46135  1.0000
  H   H54       1.0  0.16193  0.45728  0.00840  1.0000
  C   C64       1.0  0.18778  0.30082  0.21265  1.0000
  H   H55       1.0  0.17279  0.39147  0.02191  1.0000
  C   C65       1.0  0.19511  0.48097  0.34097  1.0000
  Fe  Fe4       1.0  0.22015  0.34728  0.06309  1.0000
  C   C66       1.0  0.16651  0.29657  0.43501  1.0000
  C   C67       1.0  0.17219  0.28756  0.40832  1.0000
  C   C68       1.0  0.03600  0.31293  0.02903  1.0000
  H   H56       1.0  0.17678  0.44257  0.45344  1.0000
  H   H57       1.0  0.11542  0.33905  0.44108  1.0000
  C   C69       1.0  0.16298  0.31238  0.42615  1.0000
  C   C70       1.0  0.19220  0.45086  0.32079  1.0000
  H   H58       1.0  0.00453  0.28056  0.01395  1.0000
  C   C71       1.0  0.01523  0.30683  0.09720  1.0000
  H   H59       1.0  0.16232  0.33126  0.38440  1.0000
  H   H60       1.0  0.13095  0.29224  0.47131  1.0000
  C   C72       1.0  0.19276  0.41683  0.00237  1.0000
  C   C73       1.0  0.01345  0.29435  0.16779  1.0000
  H   H61       1.0  0.14279  0.49009  0.30782  1.0000
  H   H62       1.0  0.20024  0.44328  0.24749  1.0000
  C   C74       1.0  0.12353  0.34325  0.46411  1.0000
  C   C75       1.0  0.17722  0.45042  0.30137  1.0000
  C   C76       1.0  0.10366  0.46718  0.31964  1.0000
  P   P4        1.0  0.19922  0.43138  0.32172  1.0000
  H   H63       1.0  0.15967  0.32020  0.44649  1.0000
  C   C77       1.0  0.20090  0.46610  0.34121  1.0000
  C   C78       1.0  0.15233  0.40162  0.08696  1.0000
  C   C79       1.0  0.15231  0.41879  0.07659  1.0000
  C   C80       1.0  0.22110  0.37891  0.20735  1.0000
  C   C81       1.0  0.11065  0.35328  0.01071  1.0000
  C   C82       1.0  0.18812  0.40012  0.21787  1.0000
  C   C83       1.0  0.18286  0.41575  0.10667  1.0000
  H   H64       1.0  0.14056  0.38945  0.08321  1.0000
  H   H65       1.0  0.14033  0.41996  0.06568  1.0000
  H   H66       1.0  0.21954  0.46334  0.17073  1.0000
  C   C84       1.0  0.18696  0.41127  0.42351  1.0000
  H   H67       1.0  0.17693  0.29644  0.23247  1.0000
  H   H68       1.0  0.11148  0.48053  0.36870  1.0000
  C   C85       1.0  0.09413  0.44552  0.48701  1.0000
  H   H69       1.0  0.21203  0.46647  0.35753  1.0000
  H   H70       1.0  0.10158  0.47882  0.30716  1.0000
  H   H71       1.0  0.16997  0.43865  0.28621  1.0000
  C   C86       1.0  0.19786  0.30720  0.15140  1.0000
  H   H72       1.0  0.19295  0.48772  0.42323  1.0000
  H   H73       1.0  0.18947  0.39239  0.30615  1.0000
  C   C87       1.0  0.18329  0.43304  0.09489  1.0000
  C   C88       1.0  0.01935  0.28568  0.14103  1.0000
  H   H74       1.0  0.01295  0.28966  0.19508  1.0000
  H   H75       1.0  0.17203  0.31509  0.33749  1.0000
  C   C89       1.0  0.18097  0.46142  0.15204  1.0000
  H   H76       1.0  0.18307  0.37593  0.25066  1.0000
  S   S11       1.0  0.22783  0.37220  0.46935  1.0000
  H   H77       1.0  0.16457  0.40071  0.33292  1.0000
  C   C90       1.0  0.16767  0.43442  0.08050  1.0000
  H   H78       1.0  0.00430  0.32630  0.11791  1.0000
  C   C91       1.0  0.12374  0.35459  0.03634  1.0000
  H   H79       1.0  0.09727  0.35240  0.01894  1.0000
  H   H80       1.0  0.17573  0.27579  0.41480  1.0000
  C   C92       1.0  0.99347  0.28545  0.01589  1.0000
  C   C93       1.0  0.09447  0.39996  0.02701  1.0000
  C   C94       1.0  0.15293  0.35141  0.49119  1.0000
  H   H81       1.0  0.18242  0.47380  0.48177  1.0000
  C   C95       1.0  0.20568  0.30583  0.22284  1.0000
  C   C96       1.0  0.19416  0.41900  0.28128  1.0000
  C   C97       1.0  0.18637  0.39058  0.25017  1.0000
  C   C98       1.0  0.20141  0.47195  0.03774  1.0000
  H   H82       1.0  0.19417  0.41408  0.11950  1.0000
  C   C99       1.0  0.17132  0.46517  0.30163  1.0000
  C   C100      1.0  0.08881  0.45162  0.02272  1.0000
  C   C101      1.0  0.07411  0.43510  0.01871  1.0000
  P   P5        1.0  0.20286  0.45354  0.10127  1.0000
  C   C102      1.0  0.10931  0.46815  0.35444  1.0000
  Fe  Fe5       1.0  0.22461  0.38532  0.03190  1.0000
  H   H83       1.0  0.07979  0.31797  0.04283  1.0000
  H   H84       1.0  0.15969  0.46472  0.28679  1.0000
  C   C103      1.0  0.17013  0.30967  0.36451  1.0000
  H   H85       1.0  0.06389  0.43011  0.03959  1.0000
  H   H86       1.0  0.09413  0.45820  0.47523  1.0000
  C   C104      1.0  0.19571  0.46858  0.12797  1.0000
  H   H87       1.0  0.12025  0.35485  0.06403  1.0000
  H   H88       1.0  0.17864  0.28729  0.35275  1.0000
  C   C105      1.0  0.01664  0.36541  0.02128  1.0000
  C   C106      1.0  0.16461  0.31879  0.39097  1.0000
  C   C107      1.0  0.21191  0.46503  0.05897  1.0000
  C   C108      1.0  0.02074  0.33918  0.04966  1.0000
  C   C109      1.0  0.21574  0.31241  0.16155  1.0000
  H   H89       1.0  0.05289  0.31918  0.07471  1.0000
  C   C110      1.0  0.03516  0.36953  0.07257  1.0000
  C   C111      1.0  0.06735  0.31537  0.02904  1.0000
  H   H90       1.0  0.98616  0.29666  0.47490  1.0000
  C   C112      1.0  0.01346  0.34669  0.02264  1.0000
  C   C113      1.0  0.12092  0.42688  0.01284  1.0000
  C   C114      1.0  0.20250  0.48566  0.44121  1.0000
  Fe  Fe6       1.0  0.21872  0.37694  0.11203  1.0000
  H   H91       1.0  0.98166  0.31947  0.05013  1.0000
  C   C115      1.0  0.03206  0.35083  0.07398  1.0000
  S   S12       1.0  0.15159  0.48798  0.08145  1.0000
  H   H92       1.0  0.02462  0.28488  0.08535  1.0000
  H   H93       1.0  0.19497  0.30771  0.12359  1.0000
  H   H94       1.0  0.00335  0.31563  0.17997  1.0000
  H   H95       1.0  0.14731  0.39778  0.99691  1.0000
  H   H96       1.0  0.02332  0.27419  0.14758  1.0000
  C   C116      1.0  0.14347  0.25435  0.46241  1.0000
  H   H97       1.0  0.01139  0.37130  0.99997  1.0000
  C   C117      1.0  0.99558  0.30188  0.03247  1.0000
  C   C118      1.0  0.20510  0.48752  0.12553  1.0000
  C   C119      1.0  0.18387  0.30160  0.17695  1.0000
  C   C120      1.0  0.21986  0.31203  0.19734  1.0000
  H   H98       1.0  0.22178  0.41253  0.35094  1.0000
  H   H99       1.0  0.22633  0.31675  0.14131  1.0000
  H   H100      1.0  0.00575  0.33825  0.00203  1.0000
  H   H101      1.0  0.14516  0.47833  0.24806  1.0000
  C   C121      1.0  0.22539  0.45456  0.15781  1.0000
  Fe  Fe7       1.0  0.13778  0.48648  0.44624  1.0000
  S   S13       1.0  0.12064  0.47911  0.99855  1.0000
  C   C122      1.0  0.22790  0.43643  0.10843  1.0000
  C   C123      1.0  0.19971  0.28600  0.48884  1.0000
  S   S14       1.0  0.13876  0.48891  0.17851  1.0000
  H   H102      1.0  0.22603  0.28408  0.49223  1.0000
  H   H103      1.0  0.22860  0.28180  0.18441  1.0000
  C   C124      1.0  0.14164  0.49029  0.25068  1.0000
  S   S15       1.0  0.22715  0.32119  0.06705  1.0000
  C   C125      1.0  0.18965  0.29742  0.49161  1.0000
  C   C126      1.0  0.22844  0.38855  0.23766  1.0000
  C   C127      1.0  0.09891  0.39104  0.99891  1.0000
  C   C128      1.0  0.10198  0.45831  0.99566  1.0000
  Fe  Fe8       1.0  0.07274  0.35528  0.93162  1.0000
  S   S16       1.0  0.07746  0.38374  0.91076  1.0000
  H   H104      1.0  0.15262  0.35710  0.54656  1.0000
  Fe  Fe9       1.0  0.03056  0.34318  0.92372  1.0000
  S   S17       1.0  0.03338  0.37135  0.90397  1.0000
  S   S18       1.0  0.00365  0.31794  0.92208  1.0000
  Fe  Fe10      1.0  0.05678  0.37064  0.87021  1.0000
  S   S19       1.0  0.05984  0.38219  0.81349  1.0000
  Fe  Fe11      1.0  0.05395  0.38204  0.94602  1.0000
  C   C129      1.0  0.01295  0.33875  0.75653  1.0000
  S   S20       1.0  0.05350  0.34215  0.88812  1.0000
  S   S21       1.0  0.04974  0.35390  0.96874  1.0000
  Fe  Fe12      1.0  0.02895  0.33179  0.56166  1.0000
  S   S22       1.0  0.03607  0.35531  0.59868  1.0000
  C   C130      1.0  0.16481  0.48323  0.98439  1.0000
  Fe  Fe13      1.0  0.07051  0.34226  0.53951  1.0000
  S   S23       1.0  0.07922  0.36557  0.57653  1.0000
  C   C131      1.0  0.21703  0.32266  0.50503  1.0000
  Fe  Fe14      1.0  0.05877  0.34671  0.61577  1.0000
  S   S24       1.0  0.06410  0.34052  0.67285  1.0000
  Fe  Fe15      1.0  0.05583  0.37194  0.55584  1.0000
  S   S25       1.0  0.05134  0.32255  0.58011  1.0000
  H   H105      1.0  0.09914  0.29064  0.91578  1.0000
  H   H106      1.0  0.17331  0.43091  0.57252  1.0000
  C   C132      1.0  0.19126  0.33377  0.79772  1.0000
  C   C133      1.0  0.10475  0.48452  0.62575  1.0000
  C   C134      1.0  0.99015  0.28543  0.79780  1.0000
  S   S26       1.0  0.05428  0.40398  0.98451  1.0000
  C   C135      1.0  0.15802  0.30403  0.54227  1.0000
  C   C136      1.0  0.06023  0.37004  0.77476  1.0000
  C   C137      1.0  0.06291  0.35341  0.77613  1.0000
  C   C138      1.0  0.06389  0.34452  0.74468  1.0000
  C   C139      1.0  0.06197  0.35201  0.71156  1.0000
  C   C140      1.0  0.05893  0.36848  0.71019  1.0000
  C   C141      1.0  0.05832  0.37756  0.74163  1.0000
  H   H107      1.0  0.06456  0.34761  0.80141  1.0000
  H   H108      1.0  0.06627  0.33181  0.74597  1.0000
  H   H109      1.0  0.05734  0.37435  0.68492  1.0000
  H   H110      1.0  0.05627  0.39045  0.74035  1.0000
  H   H111      1.0  0.13867  0.48079  0.57794  1.0000
  C   C142      1.0  0.06199  0.43866  0.63097  1.0000
  H   H112      1.0  0.01211  0.37303  0.80911  1.0000
  H   H113      1.0  0.12275  0.41821  0.57612  1.0000
  H   H114      1.0  0.02963  0.40262  0.59449  1.0000
  C   C143      1.0  0.11469  0.35233  0.97477  1.0000
  S   S27       1.0  0.05763  0.40035  0.53722  1.0000
  C   C144      1.0  0.22687  0.31115  0.50284  1.0000
  S   S28       1.0  0.09826  0.34842  0.94107  1.0000
  C   C145      1.0  0.98376  0.28158  0.67747  1.0000
  C   C146      1.0  0.13218  0.35322  0.96517  1.0000
  H   H115      1.0  0.02572  0.45206  0.63370  1.0000
  C   C147      1.0  0.10149  0.48099  0.55263  1.0000
  H   H116      1.0  0.06003  0.28285  0.75032  1.0000
  H   H117      1.0  0.05083  0.30734  0.94648  1.0000
  P   P6        1.0  0.15354  0.34006  0.86600  1.0000
  C   C148      1.0  0.16931  0.35937  0.88779  1.0000
  C   C149      1.0  0.16632  0.33001  0.83917  1.0000
  C   C150      1.0  0.97950  0.31211  0.92550  1.0000
  C   C151      1.0  0.09396  0.46565  0.57532  1.0000
  C   C152      1.0  0.18715  0.31488  0.79894  1.0000
  C   C153      1.0  0.17263  0.30354  0.82009  1.0000
  C   C154      1.0  0.16222  0.31104  0.84013  1.0000
  C   C155      1.0  0.18592  0.35874  0.89850  1.0000
  C   C156      1.0  0.13830  0.34694  0.83913  1.0000
  C   C157      1.0  0.13995  0.34770  0.80201  1.0000
  H   H118      1.0  0.18856  0.38874  0.52760  1.0000
  C   C158      1.0  0.11334  0.35577  0.79795  1.0000
  C   C159      1.0  0.11162  0.35511  0.83479  1.0000
  C   C160      1.0  0.12400  0.35068  0.85523  1.0000
  H   H119      1.0  0.11108  0.44269  0.58603  1.0000
  H   H120      1.0  0.07889  0.31215  0.97881  1.0000
  C   C161      1.0  0.08987  0.41409  0.65568  1.0000
  C   C162      1.0  0.12054  0.29838  0.95288  1.0000
  H   H121      1.0  0.11781  0.39249  0.95690  1.0000
  H   H122      1.0  0.15112  0.30200  0.85651  1.0000
  H   H123      1.0  0.18968  0.34713  0.89278  1.0000
  C   C163      1.0  0.14792  0.46351  0.92630  1.0000
  H   H124      1.0  0.11365  0.39090  0.61674  1.0000
  C   C164      1.0  0.18259  0.48428  0.57510  1.0000
  H   H125      1.0  0.10060  0.35788  0.84765  1.0000
  H   H126      1.0  0.12220  0.34993  0.88365  1.0000
  H   H127      1.0  0.06247  0.31539  0.84107  1.0000
  H   H128      1.0  0.09368  0.39940  0.52761  1.0000
  C   C165      1.0  0.01349  0.30356  0.66244  1.0000
  C   C166      1.0  0.14064  0.32365  0.89996  1.0000
  P   P7        1.0  0.20105  0.46453  0.54149  1.0000
  C   C167      1.0  0.02942  0.30067  0.78078  1.0000
  C   C168      1.0  0.03857  0.30928  0.81056  1.0000
  C   C169      1.0  0.12548  0.41803  0.98448  1.0000
  H   H129      1.0  0.99122  0.32594  0.67240  1.0000
  H   H130      1.0  0.16955  0.28891  0.82122  1.0000
  C   C170      1.0  0.11453  0.39985  0.97819  1.0000
  H   H131      1.0  0.11678  0.31250  0.86888  1.0000
  C   C171      1.0  0.01668  0.30676  0.69830  1.0000
  H   H132      1.0  0.00641  0.27008  0.81549  1.0000
  C   C172      1.0  0.01048  0.35935  0.80131  1.0000
  C   C173      1.0  0.13028  0.30957  0.55241  1.0000
  H   H133      1.0  0.00303  0.34748  0.85392  1.0000
  H   H134      1.0  0.03292  0.31683  0.82762  1.0000
  H   H135      1.0  0.22390  0.33698  0.51026  1.0000
  H   H136      1.0  0.03028  0.28377  0.73676  1.0000
  H   H137      1.0  0.13548  0.35231  0.93780  1.0000
  C   C174      1.0  0.19598  0.43304  0.98285  1.0000
  H   H138      1.0  0.02963  0.31638  0.70583  1.0000
  H   H139      1.0  0.02383  0.31086  0.64270  1.0000
  H   H140      1.0  0.11982  0.35169  0.55088  1.0000
  C   C175      1.0  0.10639  0.45960  0.69956  1.0000
  C   C176      1.0  0.00334  0.29757  0.72415  1.0000
  C   C177      1.0  0.12002  0.41033  0.86439  1.0000
  C   C178      1.0  0.12356  0.41705  0.89841  1.0000
  C   C179      1.0  0.14088  0.42156  0.91197  1.0000
  C   C180      1.0  0.06685  0.31203  0.99292  1.0000
  C   C181      1.0  0.15046  0.47745  0.57191  1.0000
  C   C182      1.0  0.05384  0.42165  0.61561  1.0000
  C   C183      1.0  0.00548  0.34501  0.82656  1.0000
  C   C184      1.0  0.09492  0.42960  0.63280  1.0000
  C   C185      1.0  0.05103  0.30928  0.97473  1.0000
  C   C186      1.0  0.07699  0.44911  0.74756  1.0000
  H   H141      1.0  0.12181  0.31442  0.56904  1.0000
  C   C187      1.0  0.99340  0.27153  0.81717  1.0000
  C   C188      1.0  0.12751  0.35209  0.78158  1.0000
  H   H142      1.0  0.02385  0.30852  0.97770  1.0000
  H   H143      1.0  0.10651  0.40653  0.85439  1.0000
  H   H144      1.0  0.11272  0.41857  0.91426  1.0000
  H   H145      1.0  0.97965  0.27461  0.54622  1.0000
  H   H146      1.0  0.13101  0.40311  0.81712  1.0000
  C   C189      1.0  0.21781  0.47316  0.57465  1.0000
  H   H147      1.0  0.06597  0.43585  0.50341  1.0000
  C   C190      1.0  0.07791  0.41609  0.51770  1.0000
  H   H148      1.0  0.15062  0.34469  0.78861  1.0000
  H   H149      1.0  0.21021  0.37214  0.92694  1.0000
  C   C191      1.0  0.09372  0.41224  0.51658  1.0000
  C   C192      1.0  0.08885  0.45178  0.68710  1.0000
  H   H150      1.0  0.19120  0.32513  0.49991  1.0000
  H   H151      1.0  0.20257  0.34257  0.78145  1.0000
  C   C193      1.0  0.05399  0.29013  0.76729  1.0000
  C   C194      1.0  0.18110  0.46910  0.55466  1.0000
  C   C195      1.0  0.17634  0.38832  0.91667  1.0000
  C   C196      1.0  0.07416  0.44626  0.71149  1.0000
  H   H152      1.0  0.01145  0.42184  0.60685  1.0000
  C   C197      1.0  0.02549  0.42651  0.61379  1.0000
  C   C198      1.0  0.12594  0.35036  0.52584  1.0000
  H   H153      1.0  0.99455  0.28873  0.62412  1.0000
  C   C199      1.0  0.18221  0.42707  0.55515  1.0000
  C   C200      1.0  0.00425  0.32755  0.81689  1.0000
  C   C201      1.0  0.03714  0.29082  0.75952  1.0000
  C   C202      1.0  0.14887  0.46244  0.55142  1.0000
  C   C203      1.0  0.16410  0.45837  0.54244  1.0000
  H   H154      1.0  0.13589  0.45429  0.54143  1.0000
  C   C204      1.0  0.19671  0.44044  0.53672  1.0000
  P   P8        1.0  0.08563  0.44711  0.64070  1.0000
  C   C205      1.0  0.05177  0.44965  0.63719  1.0000
  C   C206      1.0  0.03566  0.41562  0.60708  1.0000
  H   H155      1.0  0.08659  0.45254  0.56425  1.0000
  H   H156      1.0  0.16211  0.41269  0.83941  1.0000
  H   H157      1.0  0.18434  0.35601  0.81683  1.0000
  C   C207      1.0  0.01406  0.35618  0.76629  1.0000
  H   H158      1.0  0.08046  0.41255  0.67770  1.0000
  H   H159      1.0  0.16260  0.44721  0.52500  1.0000
  H   H160      1.0  0.19529  0.30905  0.78365  1.0000
  C   C208      1.0  0.03354  0.44352  0.62886  1.0000
  H   H161      1.0  0.01839  0.36743  0.74695  1.0000
  C   C209      1.0  0.06314  0.29900  0.79663  1.0000
  C   C210      1.0  0.13561  0.29724  0.49708  1.0000
  H   H162      1.0  0.16770  0.39818  0.56498  1.0000
  C   C211      1.0  0.07818  0.43280  0.50286  1.0000
  C   C212      1.0  0.14838  0.32209  0.93234  1.0000
  C   C213      1.0  0.05537  0.30845  0.81838  1.0000
  H   H163      1.0  0.17247  0.39947  0.92488  1.0000
  C   C214      1.0  0.08594  0.43157  0.96116  1.0000
  H   H164      1.0  0.14115  0.45618  0.90376  1.0000
  C   C215      1.0  0.11378  0.41719  0.59865  1.0000
  C   C216      1.0  0.10865  0.40181  0.62148  1.0000
  C   C217      1.0  0.09668  0.40025  0.64996  1.0000
  H   H165      1.0  0.07627  0.29863  0.80243  1.0000
  H   H166      1.0  0.11793  0.46329  0.68137  1.0000
  C   C218      1.0  0.10031  0.44832  0.96472  1.0000
  H   H167      1.0  0.12272  0.46870  0.74510  1.0000
  H   H168      1.0  0.12873  0.35249  0.75297  1.0000
  C   C219      1.0  0.15131  0.41377  0.85600  1.0000
  H   H169      1.0  0.11029  0.45350  0.94351  1.0000
  C   C220      1.0  0.19276  0.38756  0.92719  1.0000
  H   H170      1.0  0.16204  0.33074  0.93785  1.0000
  H   H171      1.0  0.97995  0.33721  0.94764  1.0000
  H   H172      1.0  0.21501  0.41220  0.49723  1.0000
  C   C221      1.0  0.09591  0.46717  0.61202  1.0000
  C   C222      1.0  0.19758  0.37281  0.91804  1.0000
  H   H173      1.0  0.08491  0.42399  0.93736  1.0000
  C   C223      1.0  0.17915  0.40849  0.55147  1.0000
  C   C224      1.0  0.97986  0.25950  0.83955  1.0000
  C   C225      1.0  0.13384  0.40846  0.84335  1.0000
  H   H174      1.0  0.06563  0.44469  0.76632  1.0000
  H   H175      1.0  0.09248  0.38814  0.66731  1.0000
  C   C226      1.0  0.15488  0.42056  0.88999  1.0000
  H   H176      1.0  0.16855  0.42504  0.89903  1.0000
  C   C227      1.0  0.14695  0.30995  0.56410  1.0000
  C   C228      1.0  0.15112  0.45418  0.95598  1.0000
  H   H177      1.0  0.20167  0.39828  0.94291  1.0000
  H   H178      1.0  0.09659  0.45945  0.78763  1.0000
  C   C229      1.0  0.10699  0.43106  0.60428  1.0000
  H   H179      1.0  0.05794  0.46300  0.64832  1.0000
  H   H180      1.0  0.15195  0.37524  0.88955  1.0000
  C   C230      1.0  0.12294  0.31189  0.89387  1.0000
  C   C231      1.0  0.13829  0.30967  0.95879  1.0000
  H   H181      1.0  0.06147  0.41310  0.60939  1.0000
  C   C232      1.0  0.15313  0.48255  0.92576  1.0000
  H   H182      1.0  0.98586  0.34476  0.62380  1.0000
  S   S29       1.0  0.99836  0.31321  0.56007  1.0000
  C   C233      1.0  0.18090  0.34132  0.81776  1.0000
  C   C234      1.0  0.10916  0.46256  0.73563  1.0000
  C   C235      1.0  0.14538  0.35486  0.99061  1.0000
  C   C236      1.0  0.16381  0.42434  0.97378  1.0000
  H   H183      1.0  0.10361  0.35902  0.78212  1.0000
  C   C237      1.0  0.21822  0.29282  0.49481  1.0000
  P   P9        1.0  0.14521  0.42965  0.95643  1.0000
  C   C238      1.0  0.21961  0.46145  0.60177  1.0000
  H   H184      1.0  0.17079  0.30427  0.55193  1.0000
  H   H185      1.0  0.06054  0.43941  0.70302  1.0000
  C   C239      1.0  0.14462  0.35346  0.52326  1.0000
  C   C240      1.0  0.11291  0.29939  0.92034  1.0000
  H   H186      1.0  0.20017  0.48613  0.98889  1.0000
  C   C241      1.0  0.16471  0.37442  0.89673  1.0000
  C   C242      1.0  0.19092  0.40314  0.53051  1.0000
  C   C243      1.0  0.18159  0.43680  0.96851  1.0000
  H   H187      1.0  0.10568  0.48639  0.65391  1.0000
  H   H188      1.0  0.18440  0.44949  0.95351  1.0000
  H   H189      1.0  0.20967  0.44271  0.97896  1.0000
  H   H190      1.0  0.09007  0.37739  0.99274  1.0000
  H   H191      1.0  0.15015  0.48965  0.90330  1.0000
  C   C244      1.0  0.00795  0.32422  0.78174  1.0000
  P   P10       1.0  0.00776  0.30186  0.77055  1.0000
  S   S30       1.0  0.04735  0.34918  0.51754  1.0000
  C   C245      1.0  0.09446  0.45735  0.75961  1.0000
  H   H192      1.0  0.01645  0.33693  0.72956  1.0000
  H   H193      1.0  0.10013  0.47971  0.52429  1.0000
  H   H194      1.0  0.11270  0.28890  0.97359  1.0000
  C   C246      1.0  0.15968  0.25603  0.51648  1.0000
  C   C247      1.0  0.99702  0.29105  0.65200  1.0000
  H   H195      1.0  0.15135  0.31499  0.58998  1.0000
  H   H196      1.0  0.14419  0.30903  0.98414  1.0000
  C   C248      1.0  0.20853  0.43490  0.51589  1.0000
  H   H197      1.0  0.11179  0.30322  0.50974  1.0000
  H   H198      1.0  0.00086  0.31681  0.83729  1.0000
  H   H199      1.0  0.16885  0.26391  0.53592  1.0000
  C   C249      1.0  0.98693  0.28471  0.71342  1.0000
  H   H200      1.0  0.21157  0.44700  0.60236  1.0000
  H   H201      1.0  0.15865  0.35535  0.98246  1.0000
  C   C250      1.0  0.20579  0.41636  0.51332  1.0000
  C   C251      1.0  0.07274  0.42489  0.98811  1.0000
  C   C252      1.0  0.12462  0.30322  0.51893  1.0000
  C   C253      1.0  0.15956  0.46420  0.98506  1.0000
  H   H202      1.0  0.98249  0.24896  0.85490  1.0000
  C   C254      1.0  0.16732  0.48839  0.58369  1.0000
  C   C255      1.0  0.15254  0.29790  0.50836  1.0000
  S   S31       1.0  0.09098  0.33831  0.49893  1.0000
  C   C256      1.0  0.20899  0.47606  0.49916  1.0000
  C   C257      1.0  0.10967  0.42503  0.50121  1.0000
  C   C258      1.0  0.11510  0.34476  0.49645  1.0000
  H   H203      1.0  0.21997  0.44483  0.50169  1.0000
  H   H204      1.0  0.12186  0.42198  0.50102  1.0000
  C   C259      1.0  0.16076  0.40784  0.99280  1.0000
  C   C260      1.0  0.03569  0.30983  0.99263  1.0000
  C   C261      1.0  0.19850  0.31587  0.49927  1.0000
  C   C262      1.0  0.22553  0.48267  0.99317  1.0000
  Fe  Fe16      1.0  0.13401  0.49659  0.04490  1.0000
  C   C263      1.0  0.04837  0.69926  0.12326  1.0000
  Fe  Fe17      1.0  0.14733  0.53545  0.07237  1.0000
  S   S32       1.0  0.16579  0.52945  0.11113  1.0000
  S   S33       1.0  0.14774  0.56464  0.07162  1.0000
  Fe  Fe18      1.0  0.17320  0.51491  0.06674  1.0000
  S   S34       1.0  0.20206  0.51635  0.06106  1.0000
  Fe  Fe19      1.0  0.14283  0.50312  0.12371  1.0000
  C   C264      1.0  0.16162  0.72237  0.01978  1.0000
  H   H205      1.0  0.17100  0.49090  0.00715  1.0000
  S   S35       1.0  0.12343  0.50987  0.08801  1.0000
  Fe  Fe20      1.0  0.13926  0.51303  0.38454  1.0000
  S   S36       1.0  0.12070  0.50308  0.43304  1.0000
  S   S37       1.0  0.13018  0.51905  0.33039  1.0000
  Fe  Fe21      1.0  0.17292  0.51818  0.42618  1.0000
  S   S38       1.0  0.15734  0.50857  0.47745  1.0000
  S   S39       1.0  0.20308  0.52704  0.41588  1.0000
  H   H206      1.0  0.20625  0.51385  0.14285  1.0000
  Fe  Fe22      1.0  0.14149  0.52602  0.46098  1.0000
  H   H207      1.0  0.09861  0.71789  0.32713  1.0000
  H   H208      1.0  0.22535  0.49836  0.40579  1.0000
  S   S40       1.0  0.15856  0.53712  0.41191  1.0000
  H   H209      1.0  0.00930  0.69127  0.15467  1.0000
  C   C265      1.0  0.21704  0.53042  0.45259  1.0000
  H   H210      1.0  0.03525  0.70169  0.41057  1.0000
  C   C266      1.0  0.19380  0.56871  0.02610  1.0000
  H   H211      1.0  0.04427  0.70865  0.13864  1.0000
  H   H212      1.0  0.08057  0.68028  0.12052  1.0000
  C   C267      1.0  0.00376  0.71536  0.14047  1.0000
  S   S41       1.0  0.09361  0.72506  0.42103  1.0000
  C   C268      1.0  0.14663  0.57722  0.47093  1.0000
  C   C269      1.0  0.15024  0.59619  0.47025  1.0000
  H   H213      1.0  0.14824  0.57061  0.44703  1.0000
  H   H214      1.0  0.15469  0.60407  0.44574  1.0000
  C   C270      1.0  0.03910  0.69177  0.09297  1.0000
  C   C271      1.0  0.10503  0.69936  0.02967  1.0000
  H   H215      1.0  0.15023  0.65710  0.05323  1.0000
  C   C272      1.0  0.20874  0.56592  0.03995  1.0000
  H   H216      1.0  0.16836  0.58461  0.37302  1.0000
  C   C273      1.0  0.13810  0.49879  0.22008  1.0000
  C   C274      1.0  0.98128  0.68725  0.16427  1.0000
  C   C275      1.0  0.20926  0.57297  0.40372  1.0000
  C   C276      1.0  0.13464  0.51175  0.28823  1.0000
  C   C277      1.0  0.13121  0.52032  0.25759  1.0000
  C   C278      1.0  0.13317  0.51405  0.22366  1.0000
  C   C279      1.0  0.99100  0.70833  0.41211  1.0000
  C   C280      1.0  0.21123  0.62627  0.45394  1.0000
  H   H217      1.0  0.12676  0.53174  0.26012  1.0000
  H   H218      1.0  0.13021  0.52063  0.20042  1.0000
  C   C281      1.0  0.99123  0.72326  0.43191  1.0000
  H   H219      1.0  0.06252  0.73015  0.24121  1.0000
  H   H220      1.0  0.05988  0.68984  0.41971  1.0000
  H   H221      1.0  0.20188  0.49283  0.35646  1.0000
  H   H222      1.0  0.13122  0.70235  0.10394  1.0000
  C   C282      1.0  0.06893  0.68343  0.11300  1.0000
  C   C283      1.0  0.15279  0.59715  0.03606  1.0000
  C   C284      1.0  0.14029  0.49693  0.28453  1.0000
  H   H223      1.0  0.01850  0.69986  0.34782  1.0000
  C   C285      1.0  0.18919  0.73123  0.11854  1.0000
  H   H224      1.0  0.08959  0.71469  0.05119  1.0000
  H   H225      1.0  0.99480  0.71180  0.23344  1.0000
  C   C286      1.0  0.10556  0.73168  0.31657  1.0000
  C   C287      1.0  0.12086  0.73571  0.29444  1.0000
  H   H226      1.0  0.00004  0.71399  0.04472  1.0000
  H   H227      1.0  0.19726  0.70056  0.49336  1.0000
  C   C288      1.0  0.99913  0.69741  0.15357  1.0000
  C   C289      1.0  0.22464  0.71623  0.02282  1.0000
  C   C290      1.0  0.03709  0.69666  0.43650  1.0000
  C   C291      1.0  0.16514  0.70206  0.41467  1.0000
  C   C292      1.0  0.18695  0.57131  0.36002  1.0000
  H   H228      1.0  0.14792  0.71469  0.02892  1.0000
  H   H229      1.0  0.07059  0.70129  0.15634  1.0000
  C   C293      1.0  0.04778  0.64509  0.01257  1.0000
  H   H230      1.0  0.18182  0.59534  0.43005  1.0000
  C   C294      1.0  0.00180  0.65272  0.07526  1.0000
  H   H231      1.0  0.15506  0.68857  0.42003  1.0000
  C   C295      1.0  0.19946  0.49919  0.14602  1.0000
  C   C296      1.0  0.17911  0.70453  0.38982  1.0000
  C   C297      1.0  0.12026  0.72324  0.11207  1.0000
  H   H232      1.0  0.22412  0.54670  0.10785  1.0000
  S   S42       1.0  0.15659  0.52277  0.02707  1.0000
  H   H233      1.0  0.02781  0.69547  0.08518  1.0000
  C   C298      1.0  0.20512  0.72784  0.11235  1.0000
  C   C299      1.0  0.06330  0.69516  0.13319  1.0000
  C   C300      1.0  0.20264  0.58371  0.42493  1.0000
  C   C301      1.0  0.09979  0.71614  0.46016  1.0000
  H   H234      1.0  0.15403  0.60281  0.06204  1.0000
  C   C302      1.0  0.01162  0.65228  0.04421  1.0000
  C   C303      1.0  0.00714  0.69554  0.26147  1.0000
  H   H235      1.0  0.00773  0.68768  0.23868  1.0000
  H   H236      1.0  0.00716  0.66339  0.09394  1.0000
  C   C304      1.0  0.99057  0.72311  0.13809  1.0000
  H   H237      1.0  0.22017  0.56890  0.41221  1.0000
  C   C305      1.0  0.19224  0.72189  0.38343  1.0000
  C   C306      1.0  0.19147  0.73680  0.40199  1.0000
  C   C307      1.0  0.09631  0.72143  0.99599  1.0000
  C   C308      1.0  0.98674  0.62530  0.02707  1.0000
  H   H238      1.0  0.18061  0.56613  0.33543  1.0000
  C   C309      1.0  0.20147  0.56685  0.37140  1.0000
  C   C310      1.0  0.15344  0.67071  0.13829  1.0000
  C   C311      1.0  0.15002  0.65898  0.10992  1.0000
  C   C312      1.0  0.15307  0.66619  0.07529  1.0000
  C   C313      1.0  0.15956  0.68511  0.06892  1.0000
  C   C314      1.0  0.16286  0.69702  0.09728  1.0000
  C   C315      1.0  0.15978  0.68964  0.13202  1.0000
  P   P11       1.0  0.17028  0.72153  0.09016  1.0000
  H   H239      1.0  0.20635  0.55811  0.35574  1.0000
  S   S43       1.0  0.01175  0.74044  0.44569  1.0000
  C   C316      1.0  0.00615  0.71626  0.32002  1.0000
  H   H240      1.0  0.20338  0.72376  0.36490  1.0000
  C   C317      1.0  0.11157  0.70648  0.45753  1.0000
  C   C318      1.0  0.05093  0.68994  0.44163  1.0000
  C   C319      1.0  0.21448  0.52401  0.02114  1.0000
  C   C320      1.0  0.02744  0.68825  0.00957  1.0000
  C   C321      1.0  0.09642  0.71220  0.02800  1.0000
  C   C322      1.0  0.04464  0.67996  0.07249  1.0000
  C   C323      1.0  0.99988  0.70927  0.25857  1.0000
  H   H241      1.0  0.20948  0.65269  0.44326  1.0000
  C   C324      1.0  0.99948  0.71983  0.28776  1.0000
  C   C325      1.0  0.13434  0.71692  0.10568  1.0000
  S   S44       1.0  0.12425  0.67943  0.00276  1.0000
  H   H242      1.0  0.03882  0.63591  0.03237  1.0000
  C   C326      1.0  0.14804  0.57125  0.99912  1.0000
  S   S45       1.0  0.05024  0.73702  0.07397  1.0000
  H   H243      1.0  0.15111  0.66508  0.16514  1.0000
  H   H244      1.0  0.14496  0.64430  0.11469  1.0000
  H   H245      1.0  0.06486  0.67943  0.47947  1.0000
  H   H246      1.0  0.16182  0.69016  0.04177  1.0000
  H   H247      1.0  0.16225  0.69854  0.15428  1.0000
  H   H248      1.0  0.17991  0.69293  0.37591  1.0000
  H   H249      1.0  0.18067  0.56250  0.03921  1.0000
  H   H250      1.0  0.17973  0.50109  0.18411  1.0000
  C   C327      1.0  0.20983  0.52825  0.48708  1.0000
  H   H251      1.0  0.12499  0.69082  0.48535  1.0000
  H   H252      1.0  0.01747  0.72320  0.13137  1.0000
  H   H253      1.0  0.22795  0.56836  0.15638  1.0000
  C   C328      1.0  0.05371  0.68403  0.47535  1.0000
  H   H254      1.0  0.10655  0.71362  0.11552  1.0000
  C   C329      1.0  0.16424  0.71696  0.43300  1.0000
  H   H255      1.0  0.15326  0.71475  0.45208  1.0000
  H   H256      1.0  0.00358  0.70720  0.40367  1.0000
  C   C330      1.0  0.14964  0.57844  0.03285  1.0000
  C   C331      1.0  0.01383  0.69212  0.29363  1.0000
  H   H257      1.0  0.20628  0.71979  0.09033  1.0000
  C   C332      1.0  0.01042  0.68461  0.99499  1.0000
  H   H258      1.0  0.10479  0.69200  0.05428  1.0000
  H   H259      1.0  0.01593  0.70351  0.46107  1.0000
  H   H260      1.0  0.21267  0.71785  0.43906  1.0000
  H   H261      1.0  0.12566  0.72492  0.28741  1.0000
  H   H262      1.0  0.11709  0.70506  0.43190  1.0000
  C   C333      1.0  0.05969  0.67588  0.08275  1.0000
  H   H263      1.0  0.17707  0.56190  0.47854  1.0000
  H   H264      1.0  0.20288  0.69551  0.99755  1.0000
  C   C334      1.0  0.02604  0.69749  0.46508  1.0000
  H   H265      1.0  0.98080  0.61479  0.00818  1.0000
  H   H266      1.0  0.01956  0.68157  0.29587  1.0000
  C   C335      1.0  0.18003  0.58170  0.38125  1.0000
  H   H267      1.0  0.20705  0.55723  0.06341  1.0000
  C   C336      1.0  0.15210  0.72937  0.10057  1.0000
  C   C337      1.0  0.01327  0.70244  0.32290  1.0000
  C   C338      1.0  0.20658  0.64132  0.46212  1.0000
  H   H268      1.0  0.06454  0.66707  0.06736  1.0000
  C   C339      1.0  0.15432  0.60857  0.00593  1.0000
  H   H269      1.0  0.99400  0.73668  0.12625  1.0000
  C   C340      1.0  0.21669  0.72358  0.46454  1.0000
  H   H270      1.0  0.21645  0.49338  0.10708  1.0000
  P   P12       1.0  0.21258  0.59159  0.46686  1.0000
  C   C341      1.0  0.18771  0.58773  0.41370  1.0000
  H   H271      1.0  0.05336  0.70916  0.01793  1.0000
  H   H272      1.0  0.15676  0.62292  0.00879  1.0000
  C   C342      1.0  0.21970  0.73482  0.13450  1.0000
  H   H273      1.0  0.22141  0.70940  0.04852  1.0000
  C   C343      1.0  0.20718  0.61135  0.47808  1.0000
  C   C344      1.0  0.17562  0.72773  0.04385  1.0000
  C   C345      1.0  0.98791  0.71715  0.04562  1.0000
  C   C346      1.0  0.21425  0.70821  0.99387  1.0000
  H   H274      1.0  0.01088  0.63823  0.99533  1.0000
  C   C347      1.0  0.04024  0.70604  0.00667  1.0000
  C   C348      1.0  0.18453  0.49202  0.16922  1.0000
  C   C349      1.0  0.22566  0.57388  0.02294  1.0000
  H   H275      1.0  0.21764  0.62610  0.42850  1.0000
  H   H276      1.0  0.00598  0.72418  0.34295  1.0000
  C   C350      1.0  0.19320  0.73798  0.03129  1.0000
  H   H277      1.0  0.20105  0.61537  0.99944  1.0000
  P   P13       1.0  0.03277  0.67058  0.03300  1.0000
  H   H278      1.0  0.17572  0.49193  0.32139  1.0000
  H   H279      1.0  0.19633  0.64420  0.00825  1.0000
  C   C351      1.0  0.17741  0.73448  0.42685  1.0000
  C   C352      1.0  0.06041  0.63956  0.99468  1.0000
  C   C353      1.0  0.00389  0.63850  0.02006  1.0000
  C   C354      1.0  0.22076  0.49167  0.43142  1.0000
  C   C355      1.0  0.04725  0.66259  0.00589  1.0000
  S   S46       1.0  0.15476  0.49477  0.39575  1.0000
  H   H280      1.0  0.19389  0.53067  0.99465  1.0000
  H   H281      1.0  0.06097  0.62618  0.00027  1.0000
  P   P14       1.0  0.99061  0.73790  0.28349  1.0000
  C   C356      1.0  0.11606  0.69837  0.48777  1.0000
  C   C357      1.0  0.98931  0.73530  0.05025  1.0000
  H   H282      1.0  0.14365  0.73703  0.40865  1.0000
  H   H283      1.0  0.19551  0.52455  0.49157  1.0000
  C   C358      1.0  0.98461  0.63957  0.08208  1.0000
  H   H284      1.0  0.00013  0.67111  0.99680  1.0000
  C   C359      1.0  0.11377  0.69582  0.99958  1.0000
  C   C360      1.0  0.09268  0.71779  0.49347  1.0000
  C   C361      1.0  0.19570  0.57936  0.99516  1.0000
  H   H285      1.0  0.14552  0.55688  0.99628  1.0000
  H   H286      1.0  0.99040  0.67022  0.48576  1.0000
  Fe  Fe23      1.0  0.14055  0.67341  0.95761  1.0000
  S   S47       1.0  0.15570  0.69352  0.91447  1.0000
  H   H287      1.0  0.18741  0.66147  0.70404  1.0000
  Fe  Fe24      1.0  0.15470  0.64422  0.93262  1.0000
  S   S48       1.0  0.17115  0.66246  0.88789  1.0000
  S   S49       1.0  0.15499  0.61528  0.93344  1.0000
  Fe  Fe25      1.0  0.17884  0.68476  0.92716  1.0000
  S   S50       1.0  0.20712  0.70612  0.92262  1.0000
  Fe  Fe26      1.0  0.14692  0.66977  0.87800  1.0000
  S   S51       1.0  0.13771  0.67537  0.82354  1.0000
  S   S52       1.0  0.16448  0.66604  0.97289  1.0000
  S   S53       1.0  0.12969  0.65016  0.92042  1.0000
  Fe  Fe27      1.0  0.15112  0.64844  0.54095  1.0000
  S   S54       1.0  0.17243  0.65687  0.58160  1.0000
  P   P15       1.0  0.01510  0.69366  0.53597  1.0000
  Fe  Fe28      1.0  0.13473  0.67621  0.56461  1.0000
  S   S55       1.0  0.15478  0.68641  0.60779  1.0000
  S   S56       1.0  0.11303  0.68884  0.55961  1.0000
  Fe  Fe29      1.0  0.17546  0.68571  0.56704  1.0000
  S   S57       1.0  0.20297  0.70854  0.56778  1.0000
  Fe  Fe30      1.0  0.15042  0.65706  0.61987  1.0000
  S   S58       1.0  0.15175  0.64484  0.67481  1.0000
  H   H288      1.0  0.15982  0.58963  0.86733  1.0000
  S   S59       1.0  0.12861  0.64644  0.57990  1.0000
  H   H289      1.0  0.17286  0.71761  0.81567  1.0000
  C   C362      1.0  0.00714  0.64441  0.58566  1.0000
  H   H290      1.0  0.18576  0.73839  0.94307  1.0000
  H   H291      1.0  0.06023  0.68829  0.97640  1.0000
  H   H292      1.0  0.13971  0.60120  0.55580  1.0000
  H   H293      1.0  0.13299  0.56762  0.55702  1.0000
  C   C363      1.0  0.99257  0.69114  0.52356  1.0000
  C   C364      1.0  0.14966  0.58269  0.96898  1.0000
  C   C365      1.0  0.16657  0.56552  0.87247  1.0000
  C   C366      1.0  0.22858  0.67525  0.79342  1.0000
  C   C367      1.0  0.20464  0.67593  0.66051  1.0000
  C   C368      1.0  0.20105  0.67000  0.69586  1.0000
  C   C369      1.0  0.18433  0.59494  0.89532  1.0000
  H   H294      1.0  0.14184  0.72286  0.58272  1.0000
  H   H295      1.0  0.06450  0.73784  0.60050  1.0000
  C   C370      1.0  0.18914  0.54793  0.55653  1.0000
  C   C371      1.0  0.14167  0.66662  0.78249  1.0000
  C   C372      1.0  0.13824  0.67435  0.75079  1.0000
  C   C373      1.0  0.14137  0.66798  0.71765  1.0000
  C   C374      1.0  0.14765  0.65352  0.71584  1.0000
  C   C375      1.0  0.15080  0.64559  0.74755  1.0000
  C   C376      1.0  0.14794  0.65217  0.78067  1.0000
  H   H296      1.0  0.13317  0.68539  0.75189  1.0000
  H   H297      1.0  0.13867  0.67407  0.69355  1.0000
  H   H298      1.0  0.15530  0.63418  0.74649  1.0000
  H   H299      1.0  0.15020  0.64585  0.80486  1.0000
  H   H300      1.0  0.08284  0.64743  0.95702  1.0000
  H   H301      1.0  0.11884  0.51329  0.61354  1.0000
  H   H302      1.0  0.15485  0.55698  0.85876  1.0000
  C   C377      1.0  0.14025  0.56676  0.50212  1.0000
  C   C378      1.0  0.19320  0.63407  0.75024  1.0000
  C   C379      1.0  0.11397  0.70536  0.96784  1.0000
  H   H303      1.0  0.12056  0.70269  0.94447  1.0000
  C   C380      1.0  0.15275  0.60138  0.97221  1.0000
  H   H304      1.0  0.21182  0.60146  0.68794  1.0000
  C   C381      1.0  0.18958  0.70242  0.82979  1.0000
  C   C382      1.0  0.14180  0.59463  0.53222  1.0000
  H   H305      1.0  0.16540  0.62002  0.83869  1.0000
  C   C383      1.0  0.18210  0.61582  0.75709  1.0000
  H   H306      1.0  0.20374  0.64474  0.59030  1.0000
  H   H307      1.0  0.18569  0.60893  0.89933  1.0000
  C   C384      1.0  0.17587  0.58823  0.59748  1.0000
  C   C385      1.0  0.16379  0.59443  0.61545  1.0000
  C   C386      1.0  0.17024  0.60951  0.63694  1.0000
  H   H308      1.0  0.17130  0.70915  0.75292  1.0000
  H   H309      1.0  0.14940  0.58773  0.61234  1.0000
  H   H310      1.0  0.16082  0.61446  0.65046  1.0000
  C   C387      1.0  0.18008  0.70919  0.80625  1.0000
  C   C388      1.0  0.13801  0.57560  0.53282  1.0000
  C   C389      1.0  0.18284  0.73593  0.97122  1.0000
  H   H311      1.0  0.14834  0.57695  0.94308  1.0000
  H   H312      1.0  0.20095  0.63771  0.72560  1.0000
  H   H313      1.0  0.19353  0.63043  0.65647  1.0000
  H   H314      1.0  0.04624  0.73367  0.98716  1.0000
  H   H315      1.0  0.21256  0.67372  0.55603  1.0000
  H   H316      1.0  0.16327  0.59664  0.79407  1.0000
  C   C390      1.0  0.00634  0.69864  0.97813  1.0000
  C   C391      1.0  0.17260  0.73446  0.51431  1.0000
  C   C392      1.0  0.19409  0.64740  0.77501  1.0000
  H   H317      1.0  0.15436  0.72149  0.96530  1.0000
  H   H318      1.0  0.04492  0.70682  0.58466  1.0000
  H   H319      1.0  0.19382  0.67199  0.64199  1.0000
  C   C393      1.0  0.22629  0.61632  0.73137  1.0000
  C   C394      1.0  0.17836  0.55796  0.88709  1.0000
  H   H320      1.0  0.00620  0.63087  0.57809  1.0000
  C   C395      1.0  0.00967  0.67938  0.60515  1.0000
  H   H321      1.0  0.17001  0.71878  0.56264  1.0000
  C   C396      1.0  0.14771  0.60500  0.50074  1.0000
  C   C397      1.0  0.14861  0.72934  0.55812  1.0000
  H   H322      1.0  0.16863  0.50026  0.59898  1.0000
  C   C398      1.0  0.04221  0.71849  0.57416  1.0000
  H   H323      1.0  0.04550  0.68087  0.53012  1.0000
  C   C399      1.0  0.05974  0.67449  0.98132  1.0000
  C   C400      1.0  0.22749  0.73778  0.53058  1.0000
  C   C401      1.0  0.18431  0.64204  0.80714  1.0000
  C   C402      1.0  0.00640  0.66540  0.63095  1.0000
  C   C403      1.0  0.17919  0.70439  0.77092  1.0000
  C   C404      1.0  0.19634  0.58749  0.91008  1.0000
  H   H324      1.0  0.21530  0.55950  0.57914  1.0000
  H   H325      1.0  0.01151  0.65529  0.53231  1.0000
  C   C405      1.0  0.17210  0.61070  0.78896  1.0000
  C   C406      1.0  0.19445  0.59720  0.60079  1.0000
  H   H326      1.0  0.09102  0.71040  0.54911  1.0000
  C   C407      1.0  0.20343  0.57391  0.50101  1.0000
  H   H327      1.0  0.18609  0.68882  0.73192  1.0000
  H   H328      1.0  0.20358  0.59238  0.58626  1.0000
  C   C408      1.0  0.17856  0.54859  0.52800  1.0000
  C   C409      1.0  0.98363  0.67817  0.49879  1.0000
  S   S60       1.0  0.15587  0.67764  0.52310  1.0000
  H   H329      1.0  0.11622  0.51002  0.54875  1.0000
  C   C410      1.0  0.18765  0.69269  0.75913  1.0000
  H   H330      1.0  0.17585  0.54354  0.88465  1.0000
  C   C411      1.0  0.00526  0.64796  0.62123  1.0000
  C   C412      1.0  0.19819  0.69080  0.81809  1.0000
  C   C413      1.0  0.19301  0.56884  0.90616  1.0000
  H   H331      1.0  0.20136  0.56253  0.91891  1.0000
  C   C414      1.0  0.21796  0.53713  0.96163  1.0000
  H   H332      1.0  0.21254  0.54221  0.93972  1.0000
  C   C415      1.0  0.20105  0.61253  0.62189  1.0000
  C   C416      1.0  0.16523  0.72627  0.98364  1.0000
  C   C417      1.0  0.20687  0.56023  0.55749  1.0000
  C   C418      1.0  0.22185  0.68769  0.64954  1.0000
  C   C419      1.0  0.16432  0.72684  0.54670  1.0000
  H   H333      1.0  0.10504  0.72499  0.94113  1.0000
  C   C420      1.0  0.21893  0.71640  0.96013  1.0000
  H   H334      1.0  0.08350  0.72506  0.49590  1.0000
  C   C421      1.0  0.11214  0.49989  0.60297  1.0000
  C   C422      1.0  0.07272  0.65149  0.97024  1.0000
  H   H335      1.0  0.00292  0.63719  0.64127  1.0000
  C   C423      1.0  0.18880  0.61850  0.64033  1.0000
  H   H336      1.0  0.18492  0.62600  0.54140  1.0000
  H   H337      1.0  0.00482  0.66810  0.65853  1.0000
  H   H338      1.0  0.16523  0.50710  0.95471  1.0000
  C   C424      1.0  0.10514  0.71797  0.96603  1.0000
  H   H339      1.0  0.18498  0.65201  0.82670  1.0000
  C   C425      1.0  0.21309  0.65230  0.92361  1.0000
  C   C426      1.0  0.19747  0.68594  0.78248  1.0000
  C   C427      1.0  0.10856  0.69958  0.52094  1.0000
  C   C428      1.0  0.09689  0.70938  0.52359  1.0000
  H   H340      1.0  0.22071  0.63353  0.89269  1.0000
  H   H341      1.0  0.18366  0.53771  0.57758  1.0000
  H   H342      1.0  0.17079  0.57670  0.58035  1.0000
  C   C429      1.0  0.16950  0.58396  0.87681  1.0000
  C   C430      1.0  0.17330  0.62381  0.81407  1.0000
  H   H343      1.0  0.16489  0.53893  0.52735  1.0000
  H   H344      1.0  0.21594  0.66258  0.90243  1.0000
  H   H345      1.0  0.19551  0.49326  0.58386  1.0000
  H   H346      1.0  0.21556  0.52935  0.54251  1.0000
  C   C431      1.0  0.98330  0.70101  0.54044  1.0000
  C   C432      1.0  0.21171  0.62240  0.94557  1.0000
  H   H347      1.0  0.01599  0.72728  0.96292  1.0000
  C   C433      1.0  0.02564  0.73155  0.53600  1.0000
  H   H348      1.0  0.08201  0.67818  0.94477  1.0000
  C   C434      1.0  0.07227  0.66887  0.96338  1.0000
  H   H349      1.0  0.18104  0.60569  0.73747  1.0000
  H   H350      1.0  0.18990  0.70585  0.85735  1.0000
  P   P16       1.0  0.21449  0.60089  0.93754  1.0000
  C   C435      1.0  0.21338  0.72076  0.52850  1.0000
  P   P17       1.0  0.20874  0.67094  0.76740  1.0000
  C   C436      1.0  0.01215  0.67605  0.56951  1.0000
  H   H351      1.0  0.20521  0.68553  0.83713  1.0000
  C   C437      1.0  0.21791  0.65263  0.58613  1.0000
  C   C438      1.0  0.20474  0.62557  0.97812  1.0000
  H   H352      1.0  0.18398  0.58125  0.98454  1.0000
  C   C439      1.0  0.21393  0.57315  0.52991  1.0000
  C   C440      1.0  0.21582  0.63590  0.91830  1.0000
  C   C441      1.0  0.01036  0.65834  0.55981  1.0000
  C   C442      1.0  0.20205  0.64199  0.98331  1.0000
  C   C443      1.0  0.19299  0.62641  0.51774  1.0000
  H   H353      1.0  0.01029  0.69276  0.61301  1.0000
  H   H354      1.0  0.20402  0.66802  0.96008  1.0000
  H   H355      1.0  0.01544  0.73011  0.51665  1.0000
  C   C444      1.0  0.22285  0.66907  0.56634  1.0000
  H   H356      1.0  0.22024  0.60508  0.75036  1.0000
  C   C445      1.0  0.02804  0.71611  0.55100  1.0000
  H   H357      1.0  0.18450  0.73200  0.50543  1.0000
  C   C446      1.0  0.21457  0.67607  0.72085  1.0000
  H   H358      1.0  0.98976  0.71081  0.56016  1.0000
  C   C447      1.0  0.02849  0.69121  0.49886  1.0000
  C   C448      1.0  0.01922  0.71633  0.97543  1.0000
  C   C449      1.0  0.14123  0.73956  0.53711  1.0000
  C   C450      1.0  0.11060  0.49810  0.56643  1.0000
  C   C451      1.0  0.22122  0.53105  0.51590  1.0000
  H   H359      1.0  0.22434  0.69291  0.62239  1.0000
  H   H360      1.0  0.22765  0.58245  0.53104  1.0000
  C   C452      1.0  0.20627  0.65536  0.95614  1.0000
  S   S61       1.0  0.13432  0.54261  0.50377  1.0000
  H   H361      1.0  0.99308  0.69590  0.96768  1.0000
  C   C453      1.0  0.04265  0.68482  0.50398  1.0000
  C   C454      1.0  0.21262  0.58761  0.97809  1.0000
  C   C455      1.0  0.22161  0.61431  0.69590  1.0000
  C   C456      1.0  0.05346  0.73607  0.58293  1.0000
  H   H362      1.0  0.19328  0.59966  0.52762  1.0000
  P   P18       1.0  0.22499  0.62498  0.62449  1.0000
  C   C457      1.0  0.16163  0.49241  0.95472  1.0000
  H   H363      1.0  0.22365  0.64670  0.80580  1.0000
  C   C458      1.0  0.19774  0.61143  0.50975  1.0000
  C   C459      1.0  0.18559  0.56155  0.50028  1.0000
  C   C460      1.0  0.22852  0.49182  0.57475  1.0000
  H   H364      1.0  0.22738  0.50117  0.55426  1.0000
  H   H365      1.0  0.19317  0.65268  0.49975  1.0000
  C   C461      1.0  0.03620  0.71998  0.98943  1.0000
  C   C462      1.0  0.19751  0.64140  0.49405  1.0000
  C   C463      1.0  0.22764  0.58475  0.99216  1.0000
  C   C464      1.0  0.20737  0.53045  0.99261  1.0000
  S   S62       1.0  0.08497  0.73702  0.99164  1.0000
  S   S63       1.0  0.15183  0.62884  0.49772  1.0000
  C   C465      1.0  0.20802  0.71369  0.49534  1.0000
  Fe  Fe31      1.0  0.08202  0.78866  0.05957  1.0000
  S   S64       1.0  0.09157  0.76621  0.07749  1.0000
  C   C466      1.0  0.21429  0.94345  0.45008  1.0000
  Fe  Fe32      1.0  0.04154  0.76016  0.05829  1.0000
  C   C467      1.0  0.20373  0.84686  0.46006  1.0000
  H   H366      1.0  0.98104  0.76315  0.16692  1.0000
  Fe  Fe33      1.0  0.06713  0.75606  0.11399  1.0000
  H   H367      1.0  0.21714  0.83259  0.04956  1.0000
  H   H368      1.0  0.21090  0.80384  0.26170  1.0000
  S   S65       1.0  0.05821  0.77926  0.09956  1.0000
  S   S66       1.0  0.01063  0.75409  0.05435  1.0000
  C   C468      1.0  0.18843  0.80844  0.23806  1.0000
  C   C469      1.0  0.20475  0.94951  0.47537  1.0000
  C   C470      1.0  0.22281  0.79685  0.42839  1.0000
  C   C471      1.0  0.17874  0.92169  0.47055  1.0000
  Fe  Fe34      1.0  0.07971  0.78140  0.44770  1.0000
  S   S67       1.0  0.09353  0.77328  0.40240  1.0000
  C   C472      1.0  0.11808  0.77868  0.21077  1.0000
  Fe  Fe35      1.0  0.06903  0.77039  0.37073  1.0000
  S   S68       1.0  0.07047  0.78322  0.31549  1.0000
  C   C473      1.0  0.21264  0.78043  0.10171  1.0000
  C   C474      1.0  0.16501  0.78194  0.42683  1.0000
  S   S69       1.0  0.05604  0.78061  0.41477  1.0000
  H   H369      1.0  0.14397  0.76901  0.10737  1.0000
  C   C475      1.0  0.06485  0.74459  0.24157  1.0000
  C   C476      1.0  0.12933  0.76726  0.02416  1.0000
  C   C477      1.0  0.16189  0.76316  0.42606  1.0000
  C   C478      1.0  0.17486  0.92851  0.01577  1.0000
  H   H370      1.0  0.13617  0.74397  0.01143  1.0000
  C   C479      1.0  0.17225  0.96373  0.13952  1.0000
  S   S70       1.0  0.06448  0.77196  0.01712  1.0000
  H   H371      1.0  0.12455  0.82357  0.43737  1.0000
  C   C480      1.0  0.14136  0.75447  0.10745  1.0000
  H   H372      1.0  0.20504  0.87558  0.99742  1.0000
  C   C481      1.0  0.15160  0.85704  0.01254  1.0000
  C   C482      1.0  0.13943  0.77774  0.39001  1.0000
  H   H373      1.0  0.15901  0.81006  0.03684  1.0000
  C   C483      1.0  0.18768  0.74075  0.14870  1.0000
  H   H374      1.0  0.17585  0.79095  0.44184  1.0000
  Fe  Fe36      1.0  0.07795  0.74429  0.42122  1.0000
  H   H375      1.0  0.21134  0.82449  0.44475  1.0000
  C   C484      1.0  0.12237  0.83183  0.02496  1.0000
  C   C485      1.0  0.20233  0.86112  0.00162  1.0000
  C   C486      1.0  0.06720  0.75469  0.20947  1.0000
  C   C487      1.0  0.14132  0.75846  0.01654  1.0000
  P   P19       1.0  0.19043  0.79966  0.02033  1.0000
  C   C488      1.0  0.06876  0.77175  0.27512  1.0000
  C   C489      1.0  0.07092  0.78181  0.24302  1.0000
  C   C490      1.0  0.07009  0.77333  0.21034  1.0000
  H   H376      1.0  0.21329  0.92093  0.41718  1.0000
  H   H377      1.0  0.10468  0.76948  0.16207  1.0000
  H   H378      1.0  0.07337  0.79628  0.24340  1.0000
  H   H379      1.0  0.07193  0.78130  0.18589  1.0000
  C   C491      1.0  0.02431  0.78056  0.33883  1.0000
  C   C492      1.0  0.15547  0.74820  0.10088  1.0000
  C   C493      1.0  0.12733  0.83008  0.46252  1.0000
  P   P20       1.0  0.20109  0.96139  0.03391  1.0000
  C   C494      1.0  0.10831  0.76341  0.31257  1.0000
  H   H380      1.0  0.17535  0.92396  0.04281  1.0000
  C   C495      1.0  0.99874  0.76406  0.37748  1.0000
  S   S71       1.0  0.06485  0.75220  0.46795  1.0000
  H   H381      1.0  0.12641  0.79255  0.03777  1.0000
  H   H382      1.0  0.11501  0.75963  0.02469  1.0000
  P   P21       1.0  0.13566  0.79080  0.27390  1.0000
  H   H383      1.0  0.20359  0.93347  0.08429  1.0000
  C   C496      1.0  0.12700  0.79379  0.23130  1.0000
  C   C497      1.0  0.12939  0.81143  0.21811  1.0000
  C   C498      1.0  0.12308  0.81388  0.18485  1.0000
  C   C499      1.0  0.11435  0.79879  0.16450  1.0000
  H   H384      1.0  0.08739  0.74235  0.34260  1.0000
  C   C500      1.0  0.13589  0.75898  0.39015  1.0000
  H   H385      1.0  0.15564  0.80321  0.48431  1.0000
  C   C501      1.0  0.20219  0.74746  0.17122  1.0000
  H   H386      1.0  0.22239  0.86535  0.04095  1.0000
  C   C502      1.0  0.02070  0.76092  0.19356  1.0000
  C   C503      1.0  0.11188  0.78121  0.17747  1.0000
  C   C504      1.0  0.13205  0.80664  0.30443  1.0000
  C   C505      1.0  0.11596  0.81012  0.30368  1.0000
  C   C506      1.0  0.11228  0.82117  0.32878  1.0000
  C   C507      1.0  0.12478  0.82915  0.35451  1.0000
  C   C508      1.0  0.14104  0.82615  0.35500  1.0000
  C   C509      1.0  0.14470  0.81494  0.33008  1.0000
  H   H387      1.0  0.14163  0.75642  0.26393  1.0000
  H   H388      1.0  0.20965  0.77600  0.04632  1.0000
  C   C510      1.0  0.01516  0.75261  0.22703  1.0000
  C   C511      1.0  0.20595  0.92622  0.43560  1.0000
  C   C512      1.0  0.13579  0.78583  0.03148  1.0000
  H   H389      1.0  0.13611  0.82328  0.23354  1.0000
  H   H390      1.0  0.12478  0.82748  0.17486  1.0000
  H   H391      1.0  0.10926  0.80068  0.13888  1.0000
  C   C513      1.0  0.98494  0.75193  0.21737  1.0000
  H   H392      1.0  0.14274  0.84303  0.06340  1.0000
  H   H393      1.0  0.21419  0.97143  0.10470  1.0000
  Fe  Fe37      1.0  0.04230  0.75071  0.43081  1.0000
  H   H394      1.0  0.19658  0.80792  0.14878  1.0000
  H   H395      1.0  0.16396  0.81084  0.22054  1.0000
  C   C514      1.0  0.15432  0.79574  0.03063  1.0000
  H   H396      1.0  0.10592  0.80378  0.28437  1.0000
  H   H397      1.0  0.09947  0.82315  0.32870  1.0000
  H   H398      1.0  0.12176  0.83750  0.37427  1.0000
  H   H399      1.0  0.15068  0.83235  0.37507  1.0000
  H   H400      1.0  0.15723  0.81259  0.33144  1.0000
  H   H401      1.0  0.02134  0.78731  0.39285  1.0000
  C   C515      1.0  0.17095  0.95764  0.07698  1.0000
  H   H402      1.0  0.21113  0.85576  0.43825  1.0000
  Fe  Fe38      1.0  0.07393  0.74956  0.03600  1.0000
  H   H403      1.0  0.19991  0.78059  0.39982  1.0000
  H   H404      1.0  0.13064  0.78326  0.37631  1.0000
  H   H405      1.0  0.14336  0.75480  0.48855  1.0000
  C   C516      1.0  0.16997  0.80525  0.24092  1.0000
  H   H406      1.0  0.16897  0.75802  0.09565  1.0000
  H   H407      1.0  0.11562  0.76489  0.22045  1.0000
  C   C517      1.0  0.19763  0.79530  0.06339  1.0000
  C   C518      1.0  0.20678  0.78318  0.06824  1.0000
  H   H408      1.0  0.02431  0.77054  0.28702  1.0000
  C   C519      1.0  0.00850  0.76503  0.17222  1.0000
  C   C520      1.0  0.18820  0.91545  0.44568  1.0000
  C   C521      1.0  0.19347  0.80373  0.09289  1.0000
  C   C522      1.0  0.20376  0.82916  0.46372  1.0000
  H   H409      1.0  0.10302  0.77377  0.31974  1.0000
  C   C523      1.0  0.01530  0.77829  0.37164  1.0000
  C   C524      1.0  0.18968  0.96195  0.07526  1.0000
  H   H410      1.0  0.15633  0.80370  0.40946  1.0000
  C   C525      1.0  0.21208  0.85533  0.02630  1.0000
  C   C526      1.0  0.19537  0.82374  0.01270  1.0000
  H   H411      1.0  0.22528  0.91772  0.08917  1.0000
  H   H412      1.0  0.20217  0.74991  0.39737  1.0000
  H   H413      1.0  0.18189  0.90194  0.43528  1.0000
  C   C527      1.0  0.20893  0.83673  0.03131  1.0000
  S   S72       1.0  0.10677  0.81619  0.05683  1.0000
  C   C528      1.0  0.19940  0.80099  0.12632  1.0000
  H   H414      1.0  0.15169  0.85185  0.44339  1.0000
  H   H415      1.0  0.16904  0.76134  0.01033  1.0000
  H   H416      1.0  0.18590  0.81268  0.08988  1.0000
  H   H417      1.0  0.16017  0.78019  0.31859  1.0000
  H   H418      1.0  0.03449  0.76412  0.18408  1.0000
  C   C529      1.0  0.99728  0.74831  0.23957  1.0000
  H   H419      1.0  0.16436  0.86611  0.02192  1.0000
  C   C530      1.0  0.12394  0.76769  0.29099  1.0000
  C   C531      1.0  0.13925  0.84383  0.03611  1.0000
  P   P22       1.0  0.17585  0.75362  0.45051  1.0000
  C   C532      1.0  0.14279  0.84615  0.46609  1.0000
  H   H420      1.0  0.12523  0.78404  0.46640  1.0000
  H   H421      1.0  0.03740  0.79133  0.33459  1.0000
  H   H422      1.0  0.99206  0.76197  0.40333  1.0000
  H   H423      1.0  0.19870  0.97269  0.16134  1.0000
  C   C533      1.0  0.00004  0.75428  0.31729  1.0000
  C   C534      1.0  0.18634  0.79119  0.29287  1.0000
  H   H424      1.0  0.21443  0.78790  0.15621  1.0000
  C   C535      1.0  0.21540  0.93769  0.06677  1.0000
  C   C536      1.0  0.20629  0.78255  0.42513  1.0000
  H   H425      1.0  0.16302  0.95378  0.05357  1.0000
  C   C537      1.0  0.15986  0.76833  0.01578  1.0000
  C   C538      1.0  0.01676  0.76862  0.31175  1.0000
  C   C539      1.0  0.18703  0.93867  0.48548  1.0000
  C   C540      1.0  0.16647  0.78713  0.02184  1.0000
  H   H426      1.0  0.21345  0.95242  0.37872  1.0000
  C   C541      1.0  0.20926  0.78959  0.13060  1.0000
  C   C542      1.0  0.15393  0.78923  0.40854  1.0000
  C   C543      1.0  0.19659  0.80137  0.26396  1.0000
  H   H427      1.0  0.06359  0.74508  0.29869  1.0000
  C   C544      1.0  0.06551  0.75303  0.27424  1.0000
  C   C545      1.0  0.19801  0.77100  0.45443  1.0000
  H   H428      1.0  0.19644  0.81645  0.21581  1.0000
  C   C546      1.0  0.15953  0.79498  0.26984  1.0000
  H   H429      1.0  0.20102  0.75485  0.19437  1.0000
  C   C547      1.0  0.16789  0.78803  0.29588  1.0000
  H   H430      1.0  0.19271  0.78576  0.31300  1.0000
  H   H431      1.0  0.16550  0.96439  0.16434  1.0000
  C   C548      1.0  0.22340  0.78802  0.48980  1.0000
  H   H432      1.0  0.22017  0.77146  0.10512  1.0000
  C   C549      1.0  0.19095  0.96837  0.13784  1.0000
  H   H433      1.0  0.01282  0.77139  0.14617  1.0000
  C   C550      1.0  0.19672  0.74215  0.99512  1.0000
  H   H434      1.0  0.20433  0.74265  0.04890  1.0000
  C   C551      1.0  0.20683  0.77375  0.48676  1.0000
  C   C552      1.0  0.21038  0.98495  0.01788  1.0000
  C   C553      1.0  0.18561  0.94633  0.00403  1.0000
  C   C554      1.0  0.19966  0.96758  0.10577  1.0000
  H   H435      1.0  0.14780  0.95501  0.11031  1.0000
  C   C555      1.0  0.99116  0.75204  0.35057  1.0000
  C   C556      1.0  0.16227  0.95842  0.10909  1.0000
  C   C557      1.0  0.21813  0.95156  0.04072  1.0000
  H   H436      1.0  0.15580  0.90233  0.00120  1.0000
  C   C558      1.0  0.19456  0.85329  0.48506  1.0000
  H   H437      1.0  0.21924  0.95551  0.31425  1.0000
  H   H438      1.0  0.16516  0.91305  0.47909  1.0000
  H   H439      1.0  0.21105  0.96232  0.48823  1.0000
  H   H440      1.0  0.02490  0.74952  0.24307  1.0000
  C   C559      1.0  0.14700  0.75168  0.40817  1.0000
  H   H441      1.0  0.22017  0.98329  0.42906  1.0000
  C   C560      1.0  0.12995  0.75361  0.28144  1.0000
  S   S73       1.0  0.06684  0.74349  0.16911  1.0000
  H   H442      1.0  0.17531  0.74285  0.15526  1.0000
  C   C561      1.0  0.09924  0.74550  0.32540  1.0000
  C   C562      1.0  0.12377  0.74198  0.11312  1.0000
  C   C563      1.0  0.99059  0.76039  0.18398  1.0000
  H   H443      1.0  0.11277  0.74679  0.11775  1.0000
  H   H444      1.0  0.12421  0.74994  0.37719  1.0000
  C   C564      1.0  0.16545  0.74496  0.49327  1.0000
  S   S74       1.0  0.05454  0.74072  0.38539  1.0000
  C   C565      1.0  0.22761  0.92865  0.06955  1.0000
  C   C566      1.0  0.21828  0.74470  0.16386  1.0000
  C   C567      1.0  0.22708  0.95564  0.36841  1.0000
  H   H445      1.0  0.19497  0.86719  0.48260  1.0000
  H   H446      1.0  0.22772  0.80218  0.00653  1.0000
  C   C568      1.0  0.12894  0.78379  0.49373  1.0000
  H   H447      1.0  0.18494  0.98518  0.99919  1.0000
  C   C569      1.0  0.19442  0.81778  0.49221  1.0000
  S   S75       1.0  0.09468  0.80316  0.48812  1.0000
  C   C570      1.0  0.11521  0.82278  0.49124  1.0000
  H   H448      1.0  0.19520  0.82652  0.61402  1.0000
  H   H449      1.0  0.17555  0.81989  0.97244  1.0000
  Fe  Fe39      1.0  0.22028  0.93716  0.92733  1.0000
  H   H450      1.0  0.21772  0.98376  0.62951  1.0000
  S   S76       1.0  0.22431  0.96177  0.55728  1.0000
  Fe  Fe40      1.0  0.19105  0.89677  0.93589  1.0000
  S   S77       1.0  0.21126  0.88475  0.91676  1.0000
  H   H451      1.0  0.03521  0.76095  0.53235  1.0000
  H   H452      1.0  0.19219  0.77313  0.90354  1.0000
  C   C571      1.0  0.22683  0.90362  0.74651  1.0000
  H   H453      1.0  0.17775  0.84710  0.53207  1.0000
  C   C572      1.0  0.18500  0.82409  0.51733  1.0000
  S   S78       1.0  0.19911  0.91881  0.89169  1.0000
  Fe  Fe41      1.0  0.21604  0.93002  0.56202  1.0000
  C   C573      1.0  0.12055  0.77322  0.55435  1.0000
  C   C574      1.0  0.22422  0.85048  0.87468  1.0000
  Fe  Fe42      1.0  0.18684  0.89179  0.54130  1.0000
  S   S79       1.0  0.19703  0.87679  0.58176  1.0000
  H   H454      1.0  0.12659  0.84788  0.93921  1.0000
  Fe  Fe43      1.0  0.19897  0.89955  0.61855  1.0000
  S   S80       1.0  0.18698  0.89486  0.67498  1.0000
  C   C575      1.0  0.21021  0.96419  0.67388  1.0000
  C   C576      1.0  0.20508  0.80473  0.56986  1.0000
  S   S81       1.0  0.18705  0.91373  0.57924  1.0000
  H   H455      1.0  0.17993  0.94322  0.50569  1.0000
  H   H456      1.0  0.19107  0.96743  0.59541  1.0000
  H   H457      1.0  0.21579  0.76854  0.59814  1.0000
  C   C577      1.0  0.13780  0.78399  0.56480  1.0000
  H   H458      1.0  0.16440  0.85511  0.66198  1.0000
  C   C578      1.0  0.18583  0.82967  0.98750  1.0000
  H   H459      1.0  0.19380  0.96488  0.95825  1.0000
  C   C579      1.0  0.19982  0.77925  0.92631  1.0000
  C   C580      1.0  0.18303  0.82959  0.61488  1.0000
  C   C581      1.0  0.21773  0.90318  0.77899  1.0000
  C   C582      1.0  0.19950  0.90098  0.77890  1.0000
  C   C583      1.0  0.19036  0.89866  0.74682  1.0000
  C   C584      1.0  0.19939  0.89884  0.71438  1.0000
  C   C585      1.0  0.21777  0.90159  0.71434  1.0000
  C   C586      1.0  0.18894  0.76758  0.58822  1.0000
  H   H460      1.0  0.19243  0.90096  0.80352  1.0000
  H   H461      1.0  0.17618  0.89666  0.74713  1.0000
  H   H462      1.0  0.12169  0.77529  0.94309  1.0000
  C   C587      1.0  0.13483  0.84750  0.52743  1.0000
  H   H463      1.0  0.19139  0.84652  0.66015  1.0000
  C   C588      1.0  0.18231  0.93831  0.66708  1.0000
  C   C589      1.0  0.20117  0.79238  0.98424  1.0000
  C   C590      1.0  0.19259  0.96211  0.62133  1.0000
  C   C591      1.0  0.22473  0.97139  0.74566  1.0000
  H   H464      1.0  0.16832  0.93827  0.61906  1.0000
  H   H465      1.0  0.10534  0.82435  0.98022  1.0000
  H   H466      1.0  0.05981  0.76501  0.57420  1.0000
  C   C592      1.0  0.22792  0.78958  0.95696  1.0000
  C   C593      1.0  0.21904  0.85763  0.84445  1.0000
  H   H467      1.0  0.21036  0.74972  0.98547  1.0000
  C   C594      1.0  0.19286  0.83393  0.89107  1.0000
  C   C595      1.0  0.18749  0.84108  0.86077  1.0000
  C   C596      1.0  0.20077  0.85294  0.83744  1.0000
  P   P23       1.0  0.16393  0.83438  0.85045  1.0000
  C   C597      1.0  0.15064  0.81537  0.87939  1.0000
  C   C598      1.0  0.15548  0.85267  0.85627  1.0000
  C   C599      1.0  0.13696  0.84845  0.86309  1.0000
  C   C600      1.0  0.13000  0.86238  0.86568  1.0000
  C   C601      1.0  0.14139  0.88061  0.86084  1.0000
  C   C602      1.0  0.15975  0.88492  0.85343  1.0000
  C   C603      1.0  0.16685  0.87105  0.85148  1.0000
  C   C604      1.0  0.14349  0.79747  0.86731  1.0000
  C   C605      1.0  0.13319  0.78307  0.89032  1.0000
  C   C606      1.0  0.12990  0.78643  0.92542  1.0000
  C   C607      1.0  0.13695  0.80421  0.93760  1.0000
  C   C608      1.0  0.14728  0.81862  0.91473  1.0000
  C   C609      1.0  0.16227  0.82834  0.80450  1.0000
  C   C610      1.0  0.17121  0.81714  0.79170  1.0000
  C   C611      1.0  0.17084  0.81318  0.75581  1.0000
  C   C612      1.0  0.16169  0.82050  0.73239  1.0000
  C   C613      1.0  0.15288  0.83178  0.74483  1.0000
  C   C614      1.0  0.15311  0.83566  0.78073  1.0000
  H   H468      1.0  0.22443  0.77677  0.90660  1.0000
  C   C615      1.0  0.15083  0.79469  0.53971  1.0000
  H   H469      1.0  0.14603  0.83770  0.72657  1.0000
  H   H470      1.0  0.18306  0.82458  0.90927  1.0000
  H   H471      1.0  0.19707  0.85859  0.81373  1.0000
  H   H472      1.0  0.12783  0.83439  0.86640  1.0000
  H   H473      1.0  0.11577  0.85903  0.87166  1.0000
  H   H474      1.0  0.13602  0.89141  0.86308  1.0000
  H   H475      1.0  0.16850  0.89906  0.84953  1.0000
  H   H476      1.0  0.18114  0.87477  0.84622  1.0000
  H   H477      1.0  0.14564  0.79454  0.84018  1.0000
  H   H478      1.0  0.12754  0.76927  0.88088  1.0000
  C   C616      1.0  0.14620  0.79462  0.50408  1.0000
  C   C617      1.0  0.14961  0.74740  0.50478  1.0000
  H   H479      1.0  0.15261  0.83236  0.92453  1.0000
  H   H480      1.0  0.17863  0.81163  0.80943  1.0000
  H   H481      1.0  0.17780  0.80457  0.74607  1.0000
  H   H482      1.0  0.16152  0.81755  0.70454  1.0000
  H   H483      1.0  0.15512  0.91181  0.93874  1.0000
  H   H484      1.0  0.14637  0.84463  0.78953  1.0000
  H   H485      1.0  0.17275  0.92521  0.67677  1.0000
  H   H486      1.0  0.17413  0.94323  0.91750  1.0000
  C   C618      1.0  0.18518  0.95154  0.96844  1.0000
  H   H487      1.0  0.14078  0.84320  0.61763  1.0000
  C   C619      1.0  0.19148  0.78493  0.95415  1.0000
  S   S82       1.0  0.16166  0.87603  0.94633  1.0000
  P   P24       1.0  0.17285  0.80919  0.55385  1.0000
  C   C620      1.0  0.16983  0.82294  0.58942  1.0000
  H   H488      1.0  0.22616  0.94429  0.74476  1.0000
  C   C621      1.0  0.13036  0.84676  0.96617  1.0000
  C   C622      1.0  0.03692  0.74910  0.54473  1.0000
  C   C623      1.0  0.15448  0.82778  0.59093  1.0000
  C   C624      1.0  0.16566  0.84576  0.64234  1.0000
  C   C625      1.0  0.15243  0.83914  0.61726  1.0000
  C   C626      1.0  0.19744  0.94747  0.68666  1.0000
  H   H489      1.0  0.11049  0.76510  0.57379  1.0000
  H   H490      1.0  0.19462  0.80410  0.49474  1.0000
  C   C627      1.0  0.11926  0.83159  0.52375  1.0000
  C   C628      1.0  0.18090  0.84090  0.64128  1.0000
  S   S83       1.0  0.21490  0.90931  0.52011  1.0000
  H   H491      1.0  0.18200  0.85287  0.96241  1.0000
  H   H492      1.0  0.17746  0.78337  0.95213  1.0000
  C   C629      1.0  0.17405  0.93922  0.94509  1.0000
  S   S84       1.0  0.21008  0.91621  0.97296  1.0000
  H   H493      1.0  0.14093  0.78419  0.59253  1.0000
  H   H494      1.0  0.16394  0.77029  0.57589  1.0000
  C   C630      1.0  0.18628  0.79611  0.56809  1.0000
  H   H495      1.0  0.11004  0.82626  0.54618  1.0000
  H   H496      1.0  0.12864  0.74081  0.54534  1.0000
  C   C631      1.0  0.20774  0.97133  0.64083  1.0000
  S   S85       1.0  0.22646  0.96857  0.92343  1.0000
  H   H497      1.0  0.19914  0.94117  0.71131  1.0000
  H   H498      1.0  0.13728  0.85429  0.55235  1.0000
  H   H499      1.0  0.14427  0.82314  0.57127  1.0000
  C   C632      1.0  0.11615  0.77306  0.51880  1.0000
  C   C633      1.0  0.17984  0.94564  0.63452  1.0000
  C   C634      1.0  0.17830  0.77740  0.57724  1.0000
  C   C635      1.0  0.22154  0.98424  0.76738  1.0000
  C   C636      1.0  0.21566  0.79487  0.58091  1.0000
  Fe  Fe44      1.0  0.22022  0.90763  0.87535  1.0000
  C   C637      1.0  0.20760  0.77627  0.58993  1.0000
  C   C638      1.0  0.21798  0.78136  0.92793  1.0000
  C   C639      1.0  0.21114  0.83865  0.89802  1.0000
  C   C640      1.0  0.14717  0.85883  0.97731  1.0000
  H   H500      1.0  0.18274  0.75316  0.59541  1.0000
  H   H501      1.0  0.13419  0.80689  0.96466  1.0000
  H   H502      1.0  0.21161  0.81913  0.56270  1.0000
  C   C641      1.0  0.18503  0.84190  0.51340  1.0000
  S   S86       1.0  0.22763  0.91639  0.60273  1.0000
  Fe  Fe45      1.0  0.22476  0.89482  0.56220  1.0000
  C   C642      1.0  0.21681  0.97999  0.80322  1.0000
  C   C643      1.0  0.05083  0.75137  0.56817  1.0000
  C   C644      1.0  0.21965  0.79540  0.98470  1.0000
  H   H503      1.0  0.21515  0.83321  0.92164  1.0000
  C   C645      1.0  0.16337  0.92156  0.95701  1.0000
  C   C646      1.0  0.14671  0.85506  0.49856  1.0000
  H   H504      1.0  0.10269  0.76498  0.51068  1.0000
  H   H505      1.0  0.22490  0.90176  0.68962  1.0000
  H   H506      1.0  0.21433  0.98990  0.81993  1.0000
  H   H507      1.0  0.21171  0.95967  0.84550  1.0000
  S   S87       1.0  0.16544  0.87648  0.50055  1.0000
  H   H508      1.0  0.20109  0.76509  0.50981  1.0000
  C   C647      1.0  0.16375  0.91622  0.99235  1.0000
  H   H509      1.0  0.21819  0.93725  0.80800  1.0000
  C   C648      1.0  0.21897  0.95031  0.79656  1.0000
  C   C649      1.0  0.21531  0.96295  0.81768  1.0000
  C   C650      1.0  0.18936  0.84831  0.98191  1.0000
  C   C651      1.0  0.22363  0.95445  0.76074  1.0000
  C   C652      1.0  0.11820  0.83328  0.98949  1.0000
  C   C653      1.0  0.25952  0.17330  0.27764  1.0000
  H   H510      1.0  0.30963  0.19096  0.27005  1.0000
  S   S88       1.0  0.47411  0.16293  0.09654  1.0000
  C   C654      1.0  0.26396  0.00702  0.47946  1.0000
  S   S89       1.0  0.47183  0.19498  0.40788  1.0000
  H   H511      1.0  0.42637  0.21573  0.45154  1.0000
  C   C655      1.0  0.30817  0.15838  0.00714  1.0000
  H   H512      1.0  0.37957  0.09049  0.46902  1.0000
  Fe  Fe46      1.0  0.45214  0.16177  0.05855  1.0000
  S   S90       1.0  0.42613  0.13711  0.05450  1.0000
  S   S91       1.0  0.44904  0.18692  0.07944  1.0000
  H   H513      1.0  0.34213  0.20820  0.26074  1.0000
  C   C656      1.0  0.25974  0.13571  0.37390  1.0000
  C   C657      1.0  0.39751  0.22973  0.04004  1.0000
  C   C658      1.0  0.33576  0.20805  0.28634  1.0000
  C   C659      1.0  0.29265  0.15552  0.33917  1.0000
  C   C660      1.0  0.42086  0.23932  0.11067  1.0000
  C   C661      1.0  0.30876  0.19883  0.32442  1.0000
  H   H514      1.0  0.24975  0.02196  0.01270  1.0000
  H   H515      1.0  0.34562  0.22530  0.36806  1.0000
  H   H516      1.0  0.26653  0.21411  0.32745  1.0000
  Fe  Fe47      1.0  0.46956  0.20168  0.03727  1.0000
  H   H517      1.0  0.47135  0.15152  0.25234  1.0000
  C   C662      1.0  0.33587  0.14271  0.08513  1.0000
  H   H518      1.0  0.25566  0.03023  0.48063  1.0000
  H   H519      1.0  0.25532  0.22911  0.37409  1.0000
  C   C663      1.0  0.38417  0.23938  0.46303  1.0000
  Fe  Fe48      1.0  0.47248  0.18943  0.11378  1.0000
  C   C664      1.0  0.23676  0.00782  0.45350  1.0000
  H   H520      1.0  0.30550  0.16295  0.32596  1.0000
  H   H521      1.0  0.34146  0.08477  0.48498  1.0000
  C   C665      1.0  0.39046  0.08881  0.48357  1.0000
  S   S92       1.0  0.32007  0.20373  0.45262  1.0000
  C   C666      1.0  0.26786  0.21074  0.35483  1.0000
  C   C667      1.0  0.43405  0.21475  0.14485  1.0000
  H   H522      1.0  0.33457  0.11410  0.47299  1.0000
  C   C668      1.0  0.47359  0.10682  0.13284  1.0000
  H   H523      1.0  0.40466  0.13809  0.43999  1.0000
  H   H524      1.0  0.25890  0.22262  0.43710  1.0000
  C   C669      1.0  0.43630  0.23665  0.09721  1.0000
  C   C670      1.0  0.37054  0.22744  0.00875  1.0000
  C   C671      1.0  0.45982  0.07153  0.03262  1.0000
  H   H525      1.0  0.30790  0.12641  0.07835  1.0000
  H   H526      1.0  0.39976  0.23057  0.15156  1.0000
  C   C672      1.0  0.25908  0.18992  0.22302  1.0000
  C   C673      1.0  0.34899  0.20229  0.08714  1.0000
  C   C674      1.0  0.35137  0.20901  0.12117  1.0000
  C   C675      1.0  0.36143  0.20312  0.14505  1.0000
  C   C676      1.0  0.36863  0.19003  0.13524  1.0000
  C   C677      1.0  0.36541  0.18241  0.10168  1.0000
  C   C678      1.0  0.35592  0.18902  0.07739  1.0000
  P   P25       1.0  0.37270  0.16398  0.08943  1.0000
  C   C679      1.0  0.38635  0.15868  0.12253  1.0000
  C   C680      1.0  0.35365  0.14307  0.08440  1.0000
  C   C681      1.0  0.35677  0.12689  0.07822  1.0000
  H   H527      1.0  0.43524  0.09671  0.47319  1.0000
  C   C682      1.0  0.28106  0.20404  0.26685  1.0000
  C   C683      1.0  0.40345  0.15834  0.11376  1.0000
  C   C684      1.0  0.41376  0.15414  0.13965  1.0000
  C   C685      1.0  0.40697  0.14992  0.17437  1.0000
  C   C686      1.0  0.38963  0.14940  0.18302  1.0000
  C   C687      1.0  0.37926  0.15349  0.15710  1.0000
  C   C688      1.0  0.38485  0.17106  0.04758  1.0000
  C   C689      1.0  0.23557  0.01388  0.01003  1.0000
  C   C690      1.0  0.38255  0.18438  0.40925  1.0000
  H   H528      1.0  0.41133  0.20890  0.18099  1.0000
  C   C691      1.0  0.41432  0.20706  0.43910  1.0000
  C   C692      1.0  0.40169  0.18540  0.04597  1.0000
  H   H529      1.0  0.34159  0.20728  0.06838  1.0000
  H   H530      1.0  0.34556  0.21896  0.12882  1.0000
  H   H531      1.0  0.36358  0.20868  0.17119  1.0000
  H   H532      1.0  0.37661  0.18598  0.15398  1.0000
  H   H533      1.0  0.35344  0.18359  0.05111  1.0000
  H   H534      1.0  0.37038  0.12695  0.07744  1.0000
  H   H535      1.0  0.45986  0.07344  0.06084  1.0000
  H   H536      1.0  0.40881  0.16086  0.08688  1.0000
  H   H537      1.0  0.42696  0.15394  0.13253  1.0000
  H   H538      1.0  0.41505  0.14675  0.19436  1.0000
  H   H539      1.0  0.34497  0.09841  0.06604  1.0000
  H   H540      1.0  0.36569  0.15264  0.16397  1.0000
  S   S93       1.0  0.46237  0.22161  0.00248  1.0000
  C   C693      1.0  0.38824  0.20336  0.40393  1.0000
  C   C694      1.0  0.27423  0.18821  0.28876  1.0000
  H   H541      1.0  0.40770  0.19201  0.06982  1.0000
  C   C695      1.0  0.46142  0.23207  0.47651  1.0000
  C   C696      1.0  0.41101  0.19119  0.01353  1.0000
  C   C697      1.0  0.27362  0.20483  0.23403  1.0000
  C   C698      1.0  0.30336  0.16539  0.03818  1.0000
  Fe  Fe49      1.0  0.32035  0.23314  0.44357  1.0000
  H   H542      1.0  0.38939  0.11313  0.04944  1.0000
  H   H543      1.0  0.25339  0.15989  0.36683  1.0000
  C   C699      1.0  0.41828  0.21671  0.15763  1.0000
  H   H544      1.0  0.35247  0.01781  0.47617  1.0000
  C   C700      1.0  0.26142  0.21926  0.38116  1.0000
  C   C701      1.0  0.39336  0.12050  0.02432  1.0000
  H   H545      1.0  0.36410  0.15213  0.01631  1.0000
  H   H546      1.0  0.43751  0.15580  0.44191  1.0000
  H   H547      1.0  0.40781  0.22979  0.34072  1.0000
  C   C702      1.0  0.31921  0.20826  0.35212  1.0000
  C   C703      1.0  0.33771  0.21771  0.34678  1.0000
  C   C704      1.0  0.34593  0.21777  0.31383  1.0000
  S   S94       1.0  0.47163  0.17632  0.01422  1.0000
  C   C705      1.0  0.27155  0.20314  0.42622  1.0000
  C   C706      1.0  0.40191  0.24008  0.34456  1.0000
  H   H548      1.0  0.31319  0.20855  0.37781  1.0000
  H   H549      1.0  0.31935  0.01014  0.47737  1.0000
  H   H550      1.0  0.40801  0.22443  0.04549  1.0000
  C   C707      1.0  0.27253  0.12759  0.36841  1.0000
  H   H551      1.0  0.38419  0.14568  0.20976  1.0000
  C   C708      1.0  0.32153  0.12646  0.07910  1.0000
  C   C709      1.0  0.27791  0.19453  0.40002  1.0000
  H   H552      1.0  0.29235  0.21570  0.27497  1.0000
  H   H553      1.0  0.29632  0.15602  0.05962  1.0000
  C   C710      1.0  0.25246  0.01639  0.47190  1.0000
  H   H554      1.0  0.33287  0.15487  0.08950  1.0000
  H   H555      1.0  0.25340  0.19056  0.19745  1.0000
  C   C711      1.0  0.41176  0.22903  0.14077  1.0000
  C   C712      1.0  0.47194  0.11033  0.06908  1.0000
  H   H556      1.0  0.41656  0.18221  0.45999  1.0000
  C   C713      1.0  0.47304  0.17331  0.21479  1.0000
  C   C714      1.0  0.47816  0.19510  0.27432  1.0000
  C   C715      1.0  0.38421  0.22078  0.01619  1.0000
  C   C716      1.0  0.44307  0.22477  0.11474  1.0000
  S   S95       1.0  0.47643  0.16688  0.32143  1.0000
  H   H557      1.0  0.43938  0.20552  0.15831  1.0000
  P   P26       1.0  0.41098  0.23934  0.41494  1.0000
  C   C717      1.0  0.31603  0.19678  0.01388  1.0000
  H   H558      1.0  0.42416  0.20203  0.01254  1.0000
  C   C718      1.0  0.47535  0.19176  0.21026  1.0000
  C   C719      1.0  0.37719  0.16302  0.01614  1.0000
  C   C720      1.0  0.26340  0.15375  0.36218  1.0000
  H   H559      1.0  0.46599  0.22538  0.45566  1.0000
  C   C721      1.0  0.40765  0.09436  0.46747  1.0000
  S   S96       1.0  0.47496  0.20201  0.16807  1.0000
  H   H560      1.0  0.32907  0.17158  0.46023  1.0000
  C   C722      1.0  0.41089  0.13352  0.01940  1.0000
  H   H561      1.0  0.29890  0.13120  0.34687  1.0000
  C   C723      1.0  0.45849  0.11169  0.13777  1.0000
  C   C724      1.0  0.44993  0.11556  0.10851  1.0000
  C   C725      1.0  0.45663  0.11490  0.07432  1.0000
  H   H562      1.0  0.24068  0.16265  0.23626  1.0000
  C   C726      1.0  0.42187  0.09214  0.48553  1.0000
  H   H563      1.0  0.38431  0.20854  0.00377  1.0000
  H   H564      1.0  0.27926  0.21699  0.21695  1.0000
  C   C727      1.0  0.32811  0.02272  0.48851  1.0000
  H   H565      1.0  0.44364  0.04285  0.03834  1.0000
  C   C728      1.0  0.27616  0.19829  0.36408  1.0000
  H   H566      1.0  0.38830  0.16206  0.43373  1.0000
  C   C729      1.0  0.40432  0.21482  0.41848  1.0000
  C   C730      1.0  0.28895  0.13747  0.35097  1.0000
  H   H567      1.0  0.37472  0.23144  0.44408  1.0000
  S   S97       1.0  0.30210  0.13406  0.00385  1.0000
  C   C731      1.0  0.31167  0.18435  0.48279  1.0000
  H   H568      1.0  0.26976  0.11367  0.37787  1.0000
  H   H569      1.0  0.25391  0.16096  0.29397  1.0000
  H   H570      1.0  0.24704  0.12807  0.38759  1.0000
  H   H571      1.0  0.45341  0.11248  0.16422  1.0000
  H   H572      1.0  0.43819  0.11932  0.11222  1.0000
  H   H573      1.0  0.44981  0.11800  0.05213  1.0000
  H   H574      1.0  0.28463  0.18532  0.40793  1.0000
  H   H575      1.0  0.31368  0.09817  0.06615  1.0000
  P   P27       1.0  0.28465  0.18724  0.33040  1.0000
  H   H576      1.0  0.43928  0.22711  0.38597  1.0000
  C   C732      1.0  0.40869  0.18810  0.44417  1.0000
  C   C733      1.0  0.45060  0.05412  0.01995  1.0000
  C   C734      1.0  0.31728  0.19844  0.29168  1.0000
  H   H577      1.0  0.27350  0.20059  0.45383  1.0000
  C   C735      1.0  0.26332  0.21551  0.41681  1.0000
  H   H578      1.0  0.37988  0.20904  0.38916  1.0000
  C   C736      1.0  0.27997  0.16386  0.34503  1.0000
  C   C737      1.0  0.42962  0.15112  0.46626  1.0000
  C   C738      1.0  0.41099  0.14108  0.46527  1.0000
  H   H579      1.0  0.37008  0.17559  0.39818  1.0000
  C   C739      1.0  0.46869  0.08625  0.00894  1.0000
  C   C740      1.0  0.32480  0.11053  0.07215  1.0000
  C   C741      1.0  0.25197  0.17419  0.24488  1.0000
  H   H580      1.0  0.45544  0.22344  0.10506  1.0000
  C   C742      1.0  0.34241  0.11071  0.07194  1.0000
  C   C743      1.0  0.30727  0.18437  0.04160  1.0000
  H   H581      1.0  0.30327  0.18937  0.06549  1.0000
  S   S98       1.0  0.32118  0.22104  0.01605  1.0000
  H   H582      1.0  0.40999  0.10070  0.44118  1.0000
  C   C744      1.0  0.39278  0.17675  0.42933  1.0000
  H   H583      1.0  0.36013  0.22551  0.30958  1.0000
  C   C745      1.0  0.47325  0.16582  0.24900  1.0000
  C   C746      1.0  0.38094  0.11680  0.99690  1.0000
  H   H584      1.0  0.47098  0.16479  0.19203  1.0000
  C   C747      1.0  0.47626  0.12503  0.99439  1.0000
  C   C748      1.0  0.31865  0.17026  0.48004  1.0000
  C   C749      1.0  0.47602  0.17674  0.27889  1.0000
  C   C750      1.0  0.47786  0.20258  0.24022  1.0000
  C   C751      1.0  0.34675  0.02704  0.48787  1.0000
  H   H585      1.0  0.36749  0.10677  0.00109  1.0000
  S   S99       1.0  0.37704  0.12261  0.49303  1.0000
  Fe  Fe50      1.0  0.30135  0.11028  0.56880  1.0000
  S   S100      1.0  0.32899  0.12216  0.58978  1.0000
  C   C752      1.0  0.36106  0.12813  0.55010  1.0000
  Fe  Fe51      1.0  0.30098  0.07066  0.57355  1.0000
  S   S101      1.0  0.32967  0.08175  0.59122  1.0000
  S   S102      1.0  0.29061  0.03882  0.57201  1.0000
  Fe  Fe52      1.0  0.32044  0.09844  0.62844  1.0000
  S   S103      1.0  0.33209  0.09810  0.68279  1.0000
  Fe  Fe53      1.0  0.33830  0.10531  0.54824  1.0000
  C   C753      1.0  0.40051  0.13489  0.49658  1.0000
  S   S104      1.0  0.29171  0.08749  0.61153  1.0000
  Fe  Fe54      1.0  0.34072  0.10839  0.93100  1.0000
  H   H586      1.0  0.41495  0.22387  0.89759  1.0000
  S   S105      1.0  0.37162  0.12003  0.92734  1.0000
  Fe  Fe55      1.0  0.30877  0.10536  0.88450  1.0000
  S   S106      1.0  0.28854  0.09425  0.92983  1.0000
  S   S107      1.0  0.29801  0.10872  0.83057  1.0000
  Fe  Fe56      1.0  0.30864  0.11604  0.96210  1.0000
  H   H587      1.0  0.39953  0.07182  0.56149  1.0000
  Fe  Fe57      1.0  0.30395  0.07577  0.94184  1.0000
  S   S108      1.0  0.29275  0.04407  0.95211  1.0000
  S   S109      1.0  0.32742  0.12828  0.91563  1.0000
  S   S110      1.0  0.32359  0.08653  0.89543  1.0000
  H   H588      1.0  0.31823  0.15950  0.59006  1.0000
  C   C754      1.0  0.27442  0.02332  0.94187  1.0000
  C   C755      1.0  0.25849  0.02319  0.92649  1.0000
  C   C756      1.0  0.34659  0.16365  0.72082  1.0000
  H   H589      1.0  0.32822  0.19129  0.56574  1.0000
  C   C757      1.0  0.27578  0.00628  0.95051  1.0000
  H   H590      1.0  0.25705  0.03603  0.91964  1.0000
  H   H591      1.0  0.43515  0.16537  0.64450  1.0000
  C   C758      1.0  0.47007  0.14878  0.94397  1.0000
  C   C759      1.0  0.38621  0.12552  0.96369  1.0000
  C   C760      1.0  0.44455  0.19393  0.84855  1.0000
  H   H592      1.0  0.32558  0.04101  0.90874  1.0000
  C   C761      1.0  0.35072  0.05521  0.51807  1.0000
  H   H593      1.0  0.30339  0.15632  0.74878  1.0000
  C   C762      1.0  0.25499  0.01007  0.67469  1.0000
  C   C763      1.0  0.23727  0.00029  0.68718  1.0000
  H   H594      1.0  0.37239  0.04608  0.50244  1.0000
  C   C764      1.0  0.32883  0.16333  0.72007  1.0000
  C   C765      1.0  0.41847  0.23703  0.90956  1.0000
  C   C766      1.0  0.27171  0.01755  0.56972  1.0000
  H   H595      1.0  0.28840  0.00130  0.57451  1.0000
  H   H596      1.0  0.39378  0.12493  0.62752  1.0000
  C   C767      1.0  0.25397  0.01665  0.56534  1.0000
  H   H597      1.0  0.36584  0.17775  0.51347  1.0000
  C   C768      1.0  0.32193  0.10036  0.72362  1.0000
  C   C769      1.0  0.30629  0.10453  0.72529  1.0000
  C   C770      1.0  0.29895  0.10669  0.75832  1.0000
  C   C771      1.0  0.30713  0.10468  0.78992  1.0000
  C   C772      1.0  0.32262  0.10022  0.78826  1.0000
  C   C773      1.0  0.33000  0.09813  0.75522  1.0000
  H   H598      1.0  0.30000  0.10637  0.70118  1.0000
  H   H599      1.0  0.28702  0.11023  0.75940  1.0000
  H   H600      1.0  0.32902  0.09865  0.81240  1.0000
  H   H601      1.0  0.34210  0.09490  0.75418  1.0000
  C   C774      1.0  0.44458  0.20277  0.58908  1.0000
  C   C775      1.0  0.32664  0.04400  0.88047  1.0000
  C   C776      1.0  0.36814  0.14030  0.68190  1.0000
  C   C777      1.0  0.25228  0.04716  0.77803  1.0000
  H   H602      1.0  0.40810  0.14507  0.93291  1.0000
  S   S111      1.0  0.30830  0.09245  0.52976  1.0000
  C   C778      1.0  0.38773  0.13409  0.63831  1.0000
  H   H603      1.0  0.40233  0.18562  0.68670  1.0000
  H   H604      1.0  0.30772  0.99981  0.80615  1.0000
  C   C779      1.0  0.45893  0.12129  0.98130  1.0000
  C   C780      1.0  0.40388  0.13832  0.95855  1.0000
  H   H605      1.0  0.35353  0.06402  0.88193  1.0000
  H   H606      1.0  0.38047  0.16257  0.95966  1.0000
  H   H607      1.0  0.44389  0.18628  0.82484  1.0000
  H   H608      1.0  0.44922  0.21919  0.81995  1.0000
  H   H609      1.0  0.43985  0.17056  0.88382  1.0000
  C   C781      1.0  0.41706  0.23059  0.62477  1.0000
  H   H610      1.0  0.37266  0.11494  0.67967  1.0000
  C   C782      1.0  0.39938  0.21311  0.54882  1.0000
  H   H611      1.0  0.40117  0.13377  0.55333  1.0000
  C   C783      1.0  0.46828  0.08327  0.97246  1.0000
  H   H612      1.0  0.38587  0.17616  0.62280  1.0000
  C   C784      1.0  0.39130  0.17688  0.52992  1.0000
  C   C785      1.0  0.44300  0.19486  0.91235  1.0000
  C   C786      1.0  0.39123  0.15125  0.62214  1.0000
  P   P28       1.0  0.36245  0.17355  0.68430  1.0000
  C   C787      1.0  0.37964  0.19336  0.70154  1.0000
  C   C788      1.0  0.29823  0.15205  0.52738  1.0000
  H   H613      1.0  0.36042  0.20468  0.72185  1.0000
  H   H614      1.0  0.44136  0.18806  0.93820  1.0000
  H   H615      1.0  0.37305  0.20989  0.52986  1.0000
  C   C789      1.0  0.24414  0.00642  0.92091  1.0000
  C   C790      1.0  0.29130  0.16617  0.53025  1.0000
  H   H616      1.0  0.32588  0.05936  0.53115  1.0000
  C   C791      1.0  0.34941  0.12917  0.51953  1.0000
  H   H617      1.0  0.32104  0.16580  0.95566  1.0000
  H   H618      1.0  0.27375  0.03589  0.65368  1.0000
  C   C792      1.0  0.37864  0.18520  0.52516  1.0000
  C   C793      1.0  0.37452  0.20630  0.71934  1.0000
  C   C794      1.0  0.33481  0.18811  0.58842  1.0000
  H   H619      1.0  0.40256  0.22734  0.55470  1.0000
  C   C795      1.0  0.35251  0.15765  0.75180  1.0000
  C   C796      1.0  0.40893  0.13866  0.52908  1.0000
  C   C797      1.0  0.44759  0.21264  0.84588  1.0000
  C   C798      1.0  0.35719  0.19773  0.63362  1.0000
  H   H620      1.0  0.31402  0.14557  0.80277  1.0000
  C   C799      1.0  0.37204  0.15780  0.66650  1.0000
  H   H621      1.0  0.32389  0.16826  0.69713  1.0000
  C   C800      1.0  0.34325  0.06158  0.82928  1.0000
  C   C801      1.0  0.46028  0.17849  0.61544  1.0000
  S   S112      1.0  0.46141  0.16757  0.50113  1.0000
  C   C802      1.0  0.29805  0.18225  0.50840  1.0000
  C   C803      1.0  0.35149  0.17970  0.64750  1.0000
  C   C804      1.0  0.26024  0.02853  0.66432  1.0000
  C   C805      1.0  0.37604  0.12855  0.66790  1.0000
  H   H622      1.0  0.43406  0.15153  0.55527  1.0000
  H   H623      1.0  0.39989  0.15533  0.59860  1.0000
  C   C806      1.0  0.34234  0.05700  0.86536  1.0000
  C   C807      1.0  0.38328  0.16300  0.63594  1.0000
  H   H624      1.0  0.35870  0.13539  0.70414  1.0000
  C   C808      1.0  0.23977  0.99955  0.56190  1.0000
  C   C809      1.0  0.31191  0.03547  0.85949  1.0000
  C   C810      1.0  0.31282  0.03970  0.82302  1.0000
  C   C811      1.0  0.32854  0.05301  0.80813  1.0000
  P   P29       1.0  0.29333  0.02884  0.79682  1.0000
  C   C812      1.0  0.29920  0.02954  0.75013  1.0000
  C   C813      1.0  0.28334  0.00561  0.81415  1.0000
  C   C814      1.0  0.31714  0.15677  0.74951  1.0000
  H   H625      1.0  0.36685  0.13986  0.56627  1.0000
  C   C815      1.0  0.45021  0.05128  0.98362  1.0000
  H   H626      1.0  0.25755  0.00729  0.82935  1.0000
  C   C816      1.0  0.33197  0.05067  0.51873  1.0000
  C   C817      1.0  0.29768  0.01356  0.73229  1.0000
  C   C818      1.0  0.30101  0.01427  0.69571  1.0000
  C   C819      1.0  0.30570  0.03085  0.67658  1.0000
  C   C820      1.0  0.30724  0.04678  0.69406  1.0000
  C   C821      1.0  0.30389  0.04614  0.73058  1.0000
  C   C822      1.0  0.27772  0.04063  0.80084  1.0000
  C   C823      1.0  0.27942  0.05333  0.82730  1.0000
  C   C824      1.0  0.26766  0.06289  0.82894  1.0000
  C   C825      1.0  0.25420  0.05993  0.80421  1.0000
  C   C826      1.0  0.43496  0.18864  0.61333  1.0000
  C   C827      1.0  0.26395  0.03748  0.77640  1.0000
  H   H627      1.0  0.29967  0.02589  0.87207  1.0000
  H   H628      1.0  0.32946  0.05704  0.78047  1.0000
  H   H629      1.0  0.30632  0.03113  0.50511  1.0000
  C   C828      1.0  0.33754  0.16596  0.63129  1.0000
  C   C829      1.0  0.45586  0.13313  0.95626  1.0000
  H   H630      1.0  0.36312  0.24055  0.49855  1.0000
  C   C830      1.0  0.44648  0.23086  0.53355  1.0000
  H   H631      1.0  0.29353  0.00046  0.74615  1.0000
  H   H632      1.0  0.29954  0.00187  0.68200  1.0000
  H   H633      1.0  0.30777  0.03135  0.64807  1.0000
  H   H634      1.0  0.31069  0.05963  0.67917  1.0000
  H   H635      1.0  0.30468  0.05861  0.74344  1.0000
  H   H636      1.0  0.28993  0.05618  0.84645  1.0000
  C   C831      1.0  0.41092  0.21054  0.71460  1.0000
  C   C832      1.0  0.40793  0.18659  0.54447  1.0000
  C   C833      1.0  0.42760  0.14867  0.53010  1.0000
  H   H637      1.0  0.26243  0.02778  0.75573  1.0000
  C   C834      1.0  0.36476  0.11084  0.55769  1.0000
  C   C835      1.0  0.35751  0.09457  0.53407  1.0000
  H   H638      1.0  0.38839  0.16306  0.52135  1.0000
  P   P30       1.0  0.36527  0.07544  0.53927  1.0000
  H   H639      1.0  0.39246  0.22981  0.93622  1.0000
  C   C836      1.0  0.36584  0.07006  0.58604  1.0000
  C   C837      1.0  0.35272  0.05439  0.60200  1.0000
  C   C838      1.0  0.35263  0.05092  0.63843  1.0000
  C   C839      1.0  0.36558  0.06301  0.65929  1.0000
  C   C840      1.0  0.37890  0.07840  0.64364  1.0000
  C   C841      1.0  0.37911  0.08186  0.60719  1.0000
  C   C842      1.0  0.27481  0.00094  0.57124  1.0000
  H   H640      1.0  0.44603  0.22080  0.93375  1.0000
  C   C843      1.0  0.41193  0.20467  0.55483  1.0000
  C   C844      1.0  0.32312  0.15071  0.78002  1.0000
  C   C845      1.0  0.44228  0.18505  0.88175  1.0000
  P   P31       1.0  0.43386  0.21767  0.57132  1.0000
  H   H641      1.0  0.40466  0.21956  0.61921  1.0000
  C   C846      1.0  0.40569  0.22334  0.73229  1.0000
  H   H642      1.0  0.28796  0.00602  0.96222  1.0000
  H   H643      1.0  0.44240  0.13021  0.94663  1.0000
  H   H644      1.0  0.42504  0.21221  0.71281  1.0000
  H   H645      1.0  0.37322  0.11064  0.57921  1.0000
  C   C847      1.0  0.34882  0.20189  0.60420  1.0000
  H   H646      1.0  0.34219  0.04506  0.58674  1.0000
  H   H647      1.0  0.34233  0.03899  0.65060  1.0000
  H   H648      1.0  0.36522  0.06047  0.68760  1.0000
  H   H649      1.0  0.38898  0.08771  0.65984  1.0000
  H   H650      1.0  0.38963  0.09377  0.59551  1.0000
  H   H651      1.0  0.35306  0.21581  0.59366  1.0000
  H   H652      1.0  0.28055  0.16463  0.54947  1.0000
  C   C848      1.0  0.34074  0.15102  0.78111  1.0000
  H   H653      1.0  0.26931  0.07298  0.84897  1.0000
  H   H654      1.0  0.32780  0.19912  0.96137  1.0000
  C   C849      1.0  0.24794  0.03742  0.66656  1.0000
  H   H655      1.0  0.34515  0.14598  0.80475  1.0000
  H   H656      1.0  0.25119  0.02915  0.56405  1.0000
  H   H657      1.0  0.41048  0.18755  0.95729  1.0000
  C   C850      1.0  0.39796  0.19555  0.69941  1.0000
  H   H658      1.0  0.35521  0.07211  0.81790  1.0000
  H   H659      1.0  0.36804  0.20857  0.64527  1.0000
  H   H660      1.0  0.25207  0.05170  0.65822  1.0000
  H   H661      1.0  0.42141  0.18699  0.62190  1.0000
  H   H662      1.0  0.24543  0.06774  0.80520  1.0000
  H   H663      1.0  0.36622  0.15808  0.75333  1.0000
  C   C851      1.0  0.38750  0.22123  0.73459  1.0000
  H   H664      1.0  0.41780  0.18010  0.54664  1.0000
  C   C852      1.0  0.32918  0.17017  0.60204  1.0000
  H   H665      1.0  0.33298  0.15197  0.64155  1.0000
  S   S113      1.0  0.28876  0.13167  0.55479  1.0000
  C   C853      1.0  0.38272  0.20333  0.53446  1.0000
  H   H666      1.0  0.46625  0.16891  0.62495  1.0000
  S   S114      1.0  0.32249  0.09652  0.97860  1.0000
  H   H667      1.0  0.29246  0.19285  0.51095  1.0000
  C   C854      1.0  0.44274  0.17646  0.62630  1.0000
  C   C855      1.0  0.44830  0.22258  0.87652  1.0000
  H   H668      1.0  0.26469  0.00344  0.67197  1.0000
  H   H669      1.0  0.46765  0.15804  0.92481  1.0000
  C   C856      1.0  0.44576  0.21346  0.90974  1.0000
  H   H670      1.0  0.34699  0.14162  0.51378  1.0000
  H   H671      1.0  0.24193  0.04498  0.75870  1.0000
  H   H672      1.0  0.45873  0.06366  0.93171  1.0000
  C   C857      1.0  0.40334  0.18305  0.98241  1.0000
  C   C858      1.0  0.45180  0.22200  0.50607  1.0000
  C   C859      1.0  0.40163  0.07853  0.53567  1.0000
  H   H673      1.0  0.42974  0.08186  0.53309  1.0000
  C   C860      1.0  0.46243  0.20514  0.57934  1.0000
  C   C861      1.0  0.41879  0.08394  0.51940  1.0000
  C   C862      1.0  0.38748  0.08166  0.51842  1.0000
  H   H674      1.0  0.47797  0.23839  0.92042  1.0000
  C   C863      1.0  0.34594  0.09570  0.50338  1.0000
  C   C864      1.0  0.26573  0.99888  0.82875  1.0000
  C   C865      1.0  0.41605  0.14260  0.98646  1.0000
  H   H675      1.0  0.47504  0.09443  0.95373  1.0000
  C   C866      1.0  0.35802  0.04318  0.50270  1.0000
  H   H676      1.0  0.23002  0.03553  0.98272  1.0000
  H   H677      1.0  0.38340  0.23108  0.74852  1.0000
  C   C867      1.0  0.43801  0.15498  0.49870  1.0000
  C   C868      1.0  0.32076  0.03454  0.50394  1.0000
  C   C869      1.0  0.29385  0.99458  0.81590  1.0000
  H   H678      1.0  0.44873  0.20736  0.50763  1.0000
  H   H679      1.0  0.44298  0.03781  0.97384  1.0000
  C   C870      1.0  0.43326  0.23255  0.60663  1.0000
  C   C871      1.0  0.45907  0.06584  0.95989  1.0000
  H   H680      1.0  0.41574  0.23488  0.74423  1.0000
  H   H681      1.0  0.47045  0.21629  0.56164  1.0000
  C   C872      1.0  0.31726  0.17083  0.97976  1.0000
  C   C873      1.0  0.38641  0.16904  0.98372  1.0000
  H   H682      1.0  0.42952  0.15259  0.98229  1.0000
  C   C874      1.0  0.47014  0.19289  0.59216  1.0000
  C   C875      1.0  0.32108  0.18979  0.98310  1.0000
  C   C876      1.0  0.40561  0.24037  0.93128  1.0000
  H   H683      1.0  0.35995  0.22034  0.99096  1.0000
  H   H684      1.0  0.44774  0.10919  0.99037  1.0000
  C   C877      1.0  0.34206  0.11304  0.49593  1.0000
  H   H685      1.0  0.23182  0.00668  0.90982  1.0000
  C   C878      1.0  0.23025  0.02779  0.67871  1.0000
  H   H686      1.0  0.27599  0.01363  0.49405  1.0000
  C   C879      1.0  0.31212  0.15435  0.50230  1.0000
  H   H687      1.0  0.31745  0.14360  0.49929  1.0000
  Fe  Fe58      1.0  0.30597  0.26533  0.43492  1.0000
  S   S115      1.0  0.33317  0.28538  0.41648  1.0000
  S   S116      1.0  0.27952  0.27142  0.43484  1.0000
  S   S117      1.0  0.34817  0.25165  0.42475  1.0000
  Fe  Fe59      1.0  0.34453  0.27268  0.45967  1.0000
  C   C880      1.0  0.26321  0.32839  0.04621  1.0000
  Fe  Fe60      1.0  0.33465  0.26252  0.38299  1.0000
  H   H688      1.0  0.22907  0.38806  0.29486  1.0000
  C   C881      1.0  0.28543  0.35424  0.29046  1.0000
  H   H689      1.0  0.36469  0.35849  0.36328  1.0000
  Fe  Fe61      1.0  0.34948  0.28010  0.07554  1.0000
  S   S118      1.0  0.37971  0.29747  0.07545  1.0000
  Fe  Fe62      1.0  0.31773  0.25885  0.12666  1.0000
  C   C882      1.0  0.24316  0.28670  0.18193  1.0000
  H   H690      1.0  0.29293  0.33780  0.44926  1.0000
  Fe  Fe63      1.0  0.31079  0.27937  0.06246  1.0000
  S   S119      1.0  0.29796  0.30040  0.04526  1.0000
  H   H691      1.0  0.29479  0.33951  0.25276  1.0000
  S   S120      1.0  0.32952  0.28816  0.10778  1.0000
  S   S121      1.0  0.23985  0.37562  0.07254  1.0000
  H   H692      1.0  0.24611  0.46130  0.44300  1.0000
  H   H693      1.0  0.28156  0.26294  0.36427  1.0000
  C   C883      1.0  0.44884  0.28051  0.08937  1.0000
  H   H694      1.0  0.30126  0.31021  0.44663  1.0000
  S   S122      1.0  0.24288  0.37706  0.38664  1.0000
  S   S123      1.0  0.25975  0.34416  0.44104  1.0000
  H   H695      1.0  0.42083  0.27616  0.02038  1.0000
  C   C884      1.0  0.23505  0.45507  0.31160  1.0000
  H   H696      1.0  0.27665  0.36651  0.33411  1.0000
  H   H697      1.0  0.28885  0.35143  0.37967  1.0000
  Fe  Fe64      1.0  0.23202  0.39274  0.42471  1.0000
  C   C885      1.0  0.47109  0.26985  0.38504  1.0000
  H   H698      1.0  0.28241  0.46068  0.02351  1.0000
  H   H699      1.0  0.26070  0.42872  0.03167  1.0000
  C   C886      1.0  0.27851  0.30633  0.05435  1.0000
  C   C887      1.0  0.26299  0.29453  0.07257  1.0000
  C   C888      1.0  0.24761  0.29946  0.07676  1.0000
  C   C889      1.0  0.24750  0.31635  0.06334  1.0000
  H   H700      1.0  0.38237  0.27831  0.35667  1.0000
  C   C890      1.0  0.29558  0.28775  0.33389  1.0000
  C   C891      1.0  0.40283  0.24525  0.45596  1.0000
  H   H701      1.0  0.44912  0.27546  0.11612  1.0000
  H   H702      1.0  0.42498  0.30253  0.44063  1.0000
  H   H703      1.0  0.30467  0.33094  0.36229  1.0000
  H   H704      1.0  0.27957  0.36040  0.27066  1.0000
  C   C892      1.0  0.36468  0.33119  0.35939  1.0000
  C   C893      1.0  0.27463  0.29206  0.43457  1.0000
  C   C894      1.0  0.28760  0.30914  0.44149  1.0000
  C   C895      1.0  0.28280  0.32482  0.44303  1.0000
  C   C896      1.0  0.26504  0.32385  0.43711  1.0000
  C   C897      1.0  0.25216  0.30686  0.42923  1.0000
  C   C898      1.0  0.25689  0.29112  0.42826  1.0000
  C   C899      1.0  0.23051  0.42590  0.34084  1.0000
  H   H705      1.0  0.29270  0.24646  0.25479  1.0000
  C   C900      1.0  0.33496  0.26282  0.28723  1.0000
  C   C901      1.0  0.41339  0.31477  0.04376  1.0000
  C   C902      1.0  0.33583  0.26436  0.22252  1.0000
  C   C903      1.0  0.31705  0.25649  0.22235  1.0000
  C   C904      1.0  0.46444  0.29362  0.07424  1.0000
  C   C905      1.0  0.25566  0.35797  0.20359  1.0000
  H   H706      1.0  0.26230  0.24765  0.31518  1.0000
  H   H707      1.0  0.25453  0.42171  0.35702  1.0000
  C   C906      1.0  0.39874  0.29569  0.46613  1.0000
  C   C907      1.0  0.26033  0.34248  0.15185  1.0000
  H   H708      1.0  0.39143  0.29138  0.44222  1.0000
  C   C908      1.0  0.25144  0.27530  0.16770  1.0000
  C   C909      1.0  0.47406  0.24534  0.00441  1.0000
  C   C910      1.0  0.33343  0.32410  0.32031  1.0000
  C   C911      1.0  0.46086  0.27927  0.39976  1.0000
  C   C912      1.0  0.34053  0.31038  0.32622  1.0000
  C   C913      1.0  0.30195  0.33457  0.30595  1.0000
  C   C914      1.0  0.29065  0.34918  0.35188  1.0000
  P   P32       1.0  0.41337  0.25621  0.08969  1.0000
  H   H709      1.0  0.41772  0.31854  0.07028  1.0000
  H   H710      1.0  0.23845  0.30576  0.42463  1.0000
  C   C915      1.0  0.25440  0.34165  0.18740  1.0000
  H   H711      1.0  0.26316  0.38715  0.19702  1.0000
  H   H712      1.0  0.25567  0.43402  0.17377  1.0000
  C   C916      1.0  0.38981  0.29936  0.00390  1.0000
  H   H713      1.0  0.23873  0.46385  0.06338  1.0000
  H   H714      1.0  0.25076  0.35802  0.23029  1.0000
  H   H715      1.0  0.22986  0.46442  0.29838  1.0000
  C   C917      1.0  0.40269  0.26598  0.12207  1.0000
  H   H716      1.0  0.27512  0.45216  0.33458  1.0000
  C   C918      1.0  0.24913  0.43097  0.34394  1.0000
  C   C919      1.0  0.38511  0.28112  0.17031  1.0000
  C   C920      1.0  0.41113  0.28403  0.13280  1.0000
  H   H717      1.0  0.37588  0.29121  0.99926  1.0000
  C   C921      1.0  0.37659  0.26322  0.15964  1.0000
  H   H718      1.0  0.46695  0.29384  0.40374  1.0000
  S   S124      1.0  0.31709  0.25386  0.48076  1.0000
  C   C922      1.0  0.39517  0.30417  0.03837  1.0000
  C   C923      1.0  0.27388  0.27044  0.27837  1.0000
  C   C924      1.0  0.25366  0.30436  0.19214  1.0000
  C   C925      1.0  0.25654  0.45829  0.45669  1.0000
  C   C926      1.0  0.43303  0.27383  0.07000  1.0000
  C   C927      1.0  0.25460  0.30974  0.31188  1.0000
  H   H719      1.0  0.35930  0.27343  0.25471  1.0000
  C   C928      1.0  0.23320  0.49010  0.45547  1.0000
  C   C929      1.0  0.30725  0.25228  0.25474  1.0000
  H   H720      1.0  0.37817  0.28713  0.18819  1.0000
  P   P33       1.0  0.24321  0.31954  0.20956  1.0000
  H   H721      1.0  0.37822  0.24223  0.12617  1.0000
  H   H722      1.0  0.26265  0.28138  0.08248  1.0000
  C   C930      1.0  0.28073  0.29894  0.17377  1.0000
  H   H723      1.0  0.23559  0.28996  0.09001  1.0000
  C   C931      1.0  0.23811  0.33020  0.31433  1.0000
  C   C932      1.0  0.29962  0.33758  0.34188  1.0000
  H   H724      1.0  0.43985  0.32922  0.01965  1.0000
  H   H725      1.0  0.22955  0.33753  0.26497  1.0000
  H   H726      1.0  0.26272  0.47338  0.30484  1.0000
  H   H727      1.0  0.33835  0.35502  0.18172  1.0000
  H   H728      1.0  0.33409  0.29694  0.31571  1.0000
  H   H729      1.0  0.24211  0.45446  0.20186  1.0000
  C   C933      1.0  0.35609  0.31394  0.34573  1.0000
  H   H730      1.0  0.29029  0.33258  0.02727  1.0000
  C   C934      1.0  0.34244  0.34160  0.33320  1.0000
  C   C935      1.0  0.24506  0.32013  0.25732  1.0000
  C   C936      1.0  0.34475  0.26744  0.25483  1.0000
  C   C937      1.0  0.24694  0.32007  0.33151  1.0000
  S   S125      1.0  0.33173  0.27310  0.02875  1.0000
  H   H731      1.0  0.31646  0.41934  0.00170  1.0000
  H   H732      1.0  0.32206  0.29506  0.24551  1.0000
  H   H733      1.0  0.29525  0.30374  0.16982  1.0000
  H   H734      1.0  0.36302  0.25530  0.16923  1.0000
  C   C938      1.0  0.41777  0.30203  0.46536  1.0000
  H   H735      1.0  0.39373  0.26656  0.40786  1.0000
  C   C939      1.0  0.32239  0.32275  0.24846  1.0000
  C   C940      1.0  0.27206  0.26138  0.31121  1.0000
  C   C941      1.0  0.24602  0.43823  0.15972  1.0000
  H   H736      1.0  0.36143  0.30324  0.35053  1.0000
  C   C942      1.0  0.42599  0.32084  0.01505  1.0000
  C   C943      1.0  0.38363  0.25219  0.04839  1.0000
  C   C944      1.0  0.32789  0.33988  0.23070  1.0000
  C   C945      1.0  0.27021  0.28141  0.16362  1.0000
  H   H737      1.0  0.37660  0.33379  0.37489  1.0000
  C   C946      1.0  0.32511  0.30813  0.23171  1.0000
  C   C947      1.0  0.39703  0.24525  0.05702  1.0000
  H   H738      1.0  0.26560  0.26374  0.25674  1.0000
  H   H739      1.0  0.33353  0.29871  0.18400  1.0000
  H   H740      1.0  0.24671  0.42264  0.11406  1.0000
  C   C948      1.0  0.27847  0.32333  0.04152  1.0000
  H   H741      1.0  0.42907  0.26020  0.47629  1.0000
  H   H742      1.0  0.28788  0.29484  0.24753  1.0000
  H   H743      1.0  0.30366  0.29428  0.35590  1.0000
  C   C949      1.0  0.38527  0.25577  0.13540  1.0000
  C   C950      1.0  0.35791  0.34506  0.35296  1.0000
  H   H744      1.0  0.34134  0.32850  0.15144  1.0000
  C   C951      1.0  0.26071  0.44815  0.33137  1.0000
  C   C952      1.0  0.28374  0.35767  0.32618  1.0000
  Fe  Fe65      1.0  0.23698  0.35537  0.43054  1.0000
  H   H745      1.0  0.38316  0.26433  0.06051  1.0000
  C   C953      1.0  0.44862  0.29392  0.02053  1.0000
  H   H746      1.0  0.38346  0.26610  0.29738  1.0000
  C   C954      1.0  0.25674  0.44044  0.45608  1.0000
  C   C955      1.0  0.29427  0.34252  0.28037  1.0000
  S   S126      1.0  0.29817  0.24996  0.08222  1.0000
  C   C956      1.0  0.29773  0.29681  0.30074  1.0000
  H   H747      1.0  0.33760  0.35261  0.32793  1.0000
  C   C957      1.0  0.44275  0.26989  0.40960  1.0000
  C   C958      1.0  0.28391  0.45087  0.49073  1.0000
  S   S127      1.0  0.23960  0.42357  0.43279  1.0000
  S   S128      1.0  0.30716  0.24296  0.39903  1.0000
  C   C959      1.0  0.23642  0.47673  0.01475  1.0000
  C   C960      1.0  0.28665  0.28807  0.27317  1.0000
  C   C961      1.0  0.40236  0.29153  0.15685  1.0000
  H   H748      1.0  0.24668  0.27805  0.42290  1.0000
  P   P34       1.0  0.31387  0.31976  0.29371  1.0000
  H   H749      1.0  0.32720  0.35171  0.24384  1.0000
  C   C962      1.0  0.28291  0.27001  0.33888  1.0000
  C   C963      1.0  0.27253  0.31035  0.18818  1.0000
  H   H750      1.0  0.26341  0.34134  0.03548  1.0000
  C   C964      1.0  0.26986  0.47231  0.47423  1.0000
  H   H751      1.0  0.42416  0.29263  0.12188  1.0000
  C   C965      1.0  0.46553  0.25091  0.47405  1.0000
  H   H752      1.0  0.24795  0.32037  0.36002  1.0000
  H   H753      1.0  0.43492  0.27752  0.42003  1.0000
  C   C966      1.0  0.43295  0.28074  0.03553  1.0000
  C   C967      1.0  0.43485  0.25091  0.40580  1.0000
  S   S129      1.0  0.34690  0.26665  0.32700  1.0000
  C   C968      1.0  0.25369  0.46013  0.31486  1.0000
  C   C969      1.0  0.33447  0.34189  0.19566  1.0000
  C   C970      1.0  0.33626  0.32700  0.17862  1.0000
  C   C971      1.0  0.33180  0.31019  0.19684  1.0000
  C   C972      1.0  0.31614  0.25538  0.28710  1.0000
  H   H754      1.0  0.24331  0.26183  0.15912  1.0000
  H   H755      1.0  0.40868  0.30564  0.16407  1.0000
  C   C973      1.0  0.24096  0.43180  0.12603  1.0000
  C   C974      1.0  0.38856  0.26078  0.31977  1.0000
  H   H756      1.0  0.25946  0.30147  0.26050  1.0000
  H   H757      1.0  0.27364  0.38823  0.13467  1.0000
  H   H758      1.0  0.34343  0.26802  0.19774  1.0000
  H   H759      1.0  0.27156  0.35955  0.10553  1.0000
  S   S130      1.0  0.33926  0.25128  0.09879  1.0000
  C   C975      1.0  0.27045  0.43676  0.47354  1.0000
  C   C976      1.0  0.23705  0.33013  0.27750  1.0000
  H   H760      1.0  0.26144  0.30187  0.32534  1.0000
  C   C977      1.0  0.26747  0.35921  0.13314  1.0000
  C   C978      1.0  0.46430  0.30032  0.03986  1.0000
  C   C979      1.0  0.44515  0.24160  0.39054  1.0000
  H   H761      1.0  0.27662  0.27269  0.15204  1.0000
  H   H762      1.0  0.44339  0.24396  0.07348  1.0000
  H   H763      1.0  0.47641  0.31040  0.02809  1.0000
  H   H764      1.0  0.28090  0.32397  0.19553  1.0000
  C   C980      1.0  0.39577  0.24714  0.31534  1.0000
  C   C981      1.0  0.26866  0.37533  0.14953  1.0000
  C   C982      1.0  0.26283  0.37470  0.18475  1.0000
  C   C983      1.0  0.25362  0.30972  0.27499  1.0000
  C   C984      1.0  0.41471  0.25546  0.48105  1.0000
  H   H765      1.0  0.25901  0.33016  0.13797  1.0000
  C   C985      1.0  0.26023  0.43679  0.00841  1.0000
  C   C986      1.0  0.39404  0.26069  0.38240  1.0000
  C   C987      1.0  0.28376  0.46876  0.49111  1.0000
  H   H766      1.0  0.23779  0.40252  0.23477  1.0000
  C   C988      1.0  0.23827  0.44963  0.17559  1.0000
  H   H767      1.0  0.25021  0.47928  0.00638  1.0000
  C   C989      1.0  0.46322  0.25104  0.38039  1.0000
  C   C990      1.0  0.40080  0.24662  0.37840  1.0000
  C   C991      1.0  0.37038  0.24326  0.02456  1.0000
  H   H768      1.0  0.27086  0.42315  0.47338  1.0000
  C   C992      1.0  0.22970  0.46791  0.04737  1.0000
  H   H769      1.0  0.30847  0.25186  0.31186  1.0000
  H   H770      1.0  0.47668  0.29856  0.08900  1.0000
  C   C993      1.0  0.38781  0.26761  0.35325  1.0000
  S   S131      1.0  0.30528  0.25122  0.18248  1.0000
  H   H771      1.0  0.26969  0.48600  0.47410  1.0000
  H   H772      1.0  0.47126  0.24373  0.36941  1.0000
  Fe  Fe66      1.0  0.32066  0.24421  0.05282  1.0000
  H   H773      1.0  0.35979  0.24847  0.01876  1.0000
  H   H774      1.0  0.47320  0.25873  0.45154  1.0000
  H   H775      1.0  0.23199  0.33806  0.32964  1.0000
  H   H776      1.0  0.39659  0.24207  0.28926  1.0000
  S   S132      1.0  0.45152  0.31557  0.49368  1.0000
  C   C994      1.0  0.27259  0.45489  0.00360  1.0000
  H   H777      1.0  0.44864  0.29942  0.99402  1.0000
  H   H778      1.0  0.36954  0.43774  0.87570  1.0000
  C   C995      1.0  0.39897  0.30116  0.52866  1.0000
  Fe  Fe67      1.0  0.46656  0.33490  0.93890  1.0000
  H   H779      1.0  0.33970  0.42698  0.62270  1.0000
  C   C996      1.0  0.29365  0.41788  0.97074  1.0000
  H   H780      1.0  0.27336  0.42002  0.93620  1.0000
  S   S133      1.0  0.47152  0.32691  0.67174  1.0000
  C   C997      1.0  0.30766  0.48084  0.87462  1.0000
  C   C998      1.0  0.38921  0.29523  0.49784  1.0000
  H   H781      1.0  0.28466  0.40536  0.98381  1.0000
  C   C999      1.0  0.42631  0.27121  0.93905  1.0000
  C   C1000     1.0  0.29369  0.45625  0.72247  1.0000
  C   C1001     1.0  0.30497  0.43946  0.65129  1.0000
  H   H782      1.0  0.43713  0.33426  0.81921  1.0000
  H   H783      1.0  0.45562  0.25159  0.97031  1.0000
  C   C1002     1.0  0.38583  0.46419  0.89409  1.0000
  C   C1003     1.0  0.31684  0.40983  0.65458  1.0000
  C   C1004     1.0  0.47027  0.32741  0.74479  1.0000
  H   H784      1.0  0.31449  0.47252  0.57976  1.0000
  C   C1005     1.0  0.24765  0.43957  0.95199  1.0000
  C   C1006     1.0  0.25975  0.45779  0.94753  1.0000
  H   H785      1.0  0.23816  0.43361  0.93161  1.0000
  H   H786      1.0  0.25946  0.46580  0.92405  1.0000
  H   H787      1.0  0.45683  0.40800  0.80589  1.0000
  H   H788      1.0  0.23721  0.48067  0.50708  1.0000
  C   C1007     1.0  0.42752  0.30783  0.49627  1.0000
  C   C1008     1.0  0.46797  0.25710  0.98451  1.0000
  C   C1009     1.0  0.42056  0.31630  0.98050  1.0000
  C   C1010     1.0  0.38947  0.25472  0.51868  1.0000
  C   C1011     1.0  0.33413  0.47977  0.84346  1.0000
  C   C1012     1.0  0.44787  0.37017  0.87374  1.0000
  C   C1013     1.0  0.31151  0.42581  0.98087  1.0000
  C   C1014     1.0  0.24792  0.42891  0.98226  1.0000
  S   S134      1.0  0.47222  0.30414  0.58119  1.0000
  C   C1015     1.0  0.44994  0.25467  0.82945  1.0000
  C   C1016     1.0  0.43257  0.25747  0.65812  1.0000
  C   C1017     1.0  0.41798  0.30732  0.52798  1.0000
  H   H789      1.0  0.27055  0.47479  0.66868  1.0000
  H   H790      1.0  0.42526  0.31181  0.55190  1.0000
  H   H791      1.0  0.39175  0.30096  0.55329  1.0000
  C   C1018     1.0  0.45024  0.24976  0.53023  1.0000
  H   H792      1.0  0.39849  0.46237  0.88858  1.0000
  C   C1019     1.0  0.40956  0.25744  0.94616  1.0000
  C   C1020     1.0  0.24221  0.48701  0.62879  1.0000
  H   H793      1.0  0.46351  0.27449  0.49888  1.0000
  C   C1021     1.0  0.29468  0.42319  0.66988  1.0000
  H   H794      1.0  0.30387  0.45012  0.72205  1.0000
  C   C1022     1.0  0.46891  0.41918  0.79701  1.0000
  H   H795      1.0  0.44432  0.37359  0.89971  1.0000
  C   C1023     1.0  0.43596  0.26089  0.82113  1.0000
  C   C1024     1.0  0.47734  0.32881  0.77903  1.0000
  C   C1025     1.0  0.43885  0.35271  0.86126  1.0000
  C   C1026     1.0  0.27448  0.46815  0.75647  1.0000
  H   H796      1.0  0.46931  0.39605  0.86420  1.0000
  C   C1027     1.0  0.35320  0.45267  0.89392  1.0000
  H   H797      1.0  0.25093  0.41967  0.56844  1.0000
  H   H798      1.0  0.29258  0.39590  0.68574  1.0000
  C   C1028     1.0  0.46704  0.37818  0.82037  1.0000
  H   H799      1.0  0.45614  0.32512  0.74186  1.0000
  C   C1029     1.0  0.25478  0.44811  0.56187  1.0000
  H   H800      1.0  0.42913  0.28463  0.94956  1.0000
  H   H801      1.0  0.45569  0.43877  0.79762  1.0000
  S   S135      1.0  0.43565  0.32421  0.94298  1.0000
  H   H802      1.0  0.46198  0.35631  0.78349  1.0000
  H   H803      1.0  0.33672  0.44814  0.97262  1.0000
  C   C1030     1.0  0.46817  0.43661  0.79210  1.0000
  H   H804      1.0  0.39957  0.26014  0.96273  1.0000
  C   C1031     1.0  0.33078  0.48831  0.98105  1.0000
  H   H805      1.0  0.26204  0.47733  0.55997  1.0000
  P   P35       1.0  0.33179  0.47180  0.91650  1.0000
  C   C1032     1.0  0.40805  0.26018  0.51229  1.0000
  S   S136      1.0  0.36521  0.28725  0.50062  1.0000
  C   C1033     1.0  0.40240  0.30546  0.97520  1.0000
  H   H806      1.0  0.45036  0.27892  0.73825  1.0000
  H   H807      1.0  0.27291  0.42458  0.61552  1.0000
  C   C1034     1.0  0.44386  0.34794  0.82846  1.0000
  H   H808      1.0  0.38430  0.25920  0.54200  1.0000
  C   C1035     1.0  0.26408  0.46579  0.57289  1.0000
  H   H809      1.0  0.32139  0.39837  0.65563  1.0000
  H   H810      1.0  0.29175  0.45551  0.77946  1.0000
  C   C1036     1.0  0.32371  0.47727  0.87500  1.0000
  C   C1037     1.0  0.28698  0.45943  0.75512  1.0000
  C   C1038     1.0  0.46199  0.38283  0.85351  1.0000
  H   H811      1.0  0.31944  0.49033  0.68757  1.0000
  C   C1039     1.0  0.47463  0.25982  0.88716  1.0000
  C   C1040     1.0  0.47813  0.27590  0.98175  1.0000
  C   C1041     1.0  0.32716  0.42595  0.63603  1.0000
  C   C1042     1.0  0.28727  0.42615  0.94381  1.0000
  H   H812      1.0  0.41732  0.26877  0.53081  1.0000
  H   H813      1.0  0.46866  0.32739  0.80212  1.0000
  C   C1043     1.0  0.27661  0.46872  0.59951  1.0000
  C   C1044     1.0  0.26843  0.47337  0.72517  1.0000
  C   C1045     1.0  0.27499  0.47010  0.69249  1.0000
  C   C1046     1.0  0.32128  0.44071  0.63436  1.0000
  C   C1047     1.0  0.31659  0.45069  0.93742  1.0000
  P   P36       1.0  0.45194  0.24670  0.87389  1.0000
  S   S137      1.0  0.23382  0.40543  0.98435  1.0000
  H   H814      1.0  0.43226  0.26750  0.67706  1.0000
  H   H815      1.0  0.39798  0.30188  0.94865  1.0000
  H   H816      1.0  0.28198  0.42184  0.68283  1.0000
  C   C1048     1.0  0.30062  0.40845  0.67153  1.0000
  C   C1049     1.0  0.28007  0.45400  0.61521  1.0000
  C   C1050     1.0  0.32858  0.48583  0.81230  1.0000
  Fe  Fe68      1.0  0.47239  0.32392  0.53727  1.0000
  H   H817      1.0  0.26975  0.47124  0.78175  1.0000
  H   H818      1.0  0.25896  0.48039  0.72637  1.0000
  P   P37       1.0  0.29693  0.45826  0.64859  1.0000
  H   H819      1.0  0.45211  0.27870  0.91256  1.0000
  C   C1051     1.0  0.43928  0.26784  0.91781  1.0000
  C   C1052     1.0  0.30196  0.48647  0.84326  1.0000
  C   C1053     1.0  0.46364  0.26514  0.77099  1.0000
  C   C1054     1.0  0.27251  0.46544  0.97306  1.0000
  C   C1055     1.0  0.36953  0.45033  0.88683  1.0000
  C   C1056     1.0  0.28758  0.46138  0.69083  1.0000
  H   H820      1.0  0.28399  0.48257  0.60712  1.0000
  C   C1057     1.0  0.31530  0.47904  0.63524  1.0000
  H   H821      1.0  0.29319  0.44847  0.90665  1.0000
  C   C1058     1.0  0.29864  0.44246  0.92718  1.0000
  C   C1059     1.0  0.27047  0.43621  0.60430  1.0000
  C   C1060     1.0  0.36951  0.48280  0.91567  1.0000
  H   H822      1.0  0.44565  0.25695  0.54996  1.0000
  C   C1061     1.0  0.41671  0.24318  0.65007  1.0000
  C   C1062     1.0  0.25791  0.43332  0.57764  1.0000
  C   C1063     1.0  0.43559  0.25066  0.90330  1.0000
  C   C1064     1.0  0.44927  0.24647  0.61602  1.0000
  H   H823      1.0  0.42829  0.34273  0.87752  1.0000
  H   H824      1.0  0.32950  0.45297  0.61964  1.0000
  C   C1065     1.0  0.46367  0.25669  0.80394  1.0000
  H   H825      1.0  0.34066  0.44184  0.88796  1.0000
  C   C1066     1.0  0.43600  0.26937  0.78814  1.0000
  H   H826      1.0  0.46202  0.24811  0.60278  1.0000
  C   C1067     1.0  0.44992  0.27165  0.76322  1.0000
  H   H827      1.0  0.46533  0.37041  0.67908  1.0000
  H   H828      1.0  0.29455  0.44791  0.50376  1.0000
  C   C1068     1.0  0.44888  0.25901  0.64134  1.0000
  H   H829      1.0  0.24559  0.44597  0.54035  1.0000
  H   H830      1.0  0.34680  0.47763  0.84289  1.0000
  C   C1069     1.0  0.35306  0.46891  0.90846  1.0000
  C   C1070     1.0  0.32091  0.48238  0.59948  1.0000
  H   H831      1.0  0.29983  0.47988  0.89885  1.0000
  C   C1071     1.0  0.38581  0.48041  0.90847  1.0000
  H   H832      1.0  0.47464  0.26730  0.75194  1.0000
  S   S138      1.0  0.30126  0.48622  0.51250  1.0000
  C   C1072     1.0  0.45794  0.36057  0.80813  1.0000
  C   C1073     1.0  0.47672  0.37501  0.69627  1.0000
  H   H833      1.0  0.24133  0.31659  0.50629  1.0000
  H   H834      1.0  0.46194  0.38182  0.73819  1.0000
  H   H835      1.0  0.47352  0.28473  0.96563  1.0000
  C   C1074     1.0  0.23181  0.46837  0.62866  1.0000
  H   H836      1.0  0.28970  0.48948  0.84338  1.0000
  S   S139      1.0  0.47764  0.31458  0.91695  1.0000
  H   H837      1.0  0.46117  0.27024  0.64722  1.0000
  H   H838      1.0  0.42539  0.25989  0.84043  1.0000
  C   C1075     1.0  0.46012  0.25979  0.50092  1.0000
  C   C1076     1.0  0.32294  0.44213  0.96429  1.0000
  H   H839      1.0  0.42557  0.27477  0.78235  1.0000
  H   H840      1.0  0.23088  0.48975  0.96811  1.0000
  C   C1077     1.0  0.47483  0.38128  0.72986  1.0000
  H   H841      1.0  0.47624  0.28446  0.85757  1.0000
  C   C1078     1.0  0.31259  0.48935  0.81231  1.0000
  S   S140      1.0  0.28863  0.48801  0.96820  1.0000
  H   H842      1.0  0.23322  0.45926  0.64937  1.0000
  H   H843      1.0  0.47483  0.25243  0.81011  1.0000
  H   H844      1.0  0.33687  0.48824  0.78830  1.0000
  H   H845      1.0  0.40409  0.24199  0.66320  1.0000
  H   H846      1.0  0.32469  0.47473  0.99286  1.0000
  C   C1079     1.0  0.37753  0.24431  0.49408  1.0000
  Fe  Fe69      1.0  0.41005  0.65095  0.04442  1.0000
  S   S141      1.0  0.41117  0.66757  0.09294  1.0000
  C   C1080     1.0  0.29078  0.57878  0.04055  1.0000
  Fe  Fe70      1.0  0.45150  0.66893  0.03199  1.0000
  C   C1081     1.0  0.23679  0.59727  0.46325  1.0000
  Fe  Fe71      1.0  0.43549  0.66139  0.10791  1.0000
  S   S142      1.0  0.43954  0.65127  0.16310  1.0000
  Fe  Fe72      1.0  0.43056  0.69117  0.06096  1.0000
  S   S143      1.0  0.43044  0.71970  0.06709  1.0000
  S   S144      1.0  0.43340  0.64318  0.06158  1.0000
  H   H847      1.0  0.41539  0.62978  0.35879  1.0000
  Fe  Fe73      1.0  0.43380  0.66171  0.43050  1.0000
  S   S145      1.0  0.42060  0.67727  0.39750  1.0000
  H   H848      1.0  0.23726  0.51806  0.03965  1.0000
  C   C1082     1.0  0.30044  0.60835  0.00944  1.0000
  S   S146      1.0  0.45955  0.71121  0.39652  1.0000
  Fe  Fe74      1.0  0.43508  0.70060  0.43203  1.0000
  S   S147      1.0  0.42183  0.72020  0.44930  1.0000
  Fe  Fe75      1.0  0.44625  0.68677  0.36375  1.0000
  S   S148      1.0  0.44787  0.69549  0.30526  1.0000
  H   H849      1.0  0.34252  0.53275  0.00397  1.0000
  S   S149      1.0  0.45872  0.66958  0.39414  1.0000
  C   C1083     1.0  0.28304  0.50634  0.05340  1.0000
  C   C1084     1.0  0.24376  0.58320  0.46489  1.0000
  H   H850      1.0  0.45449  0.72280  0.48373  1.0000
  H   H851      1.0  0.46944  0.65145  0.10249  1.0000
  H   H852      1.0  0.30769  0.55042  0.02900  1.0000
  C   C1085     1.0  0.36731  0.73001  0.04259  1.0000
  C   C1086     1.0  0.44165  0.66374  0.20238  1.0000
  C   C1087     1.0  0.44450  0.65592  0.23444  1.0000
  C   C1088     1.0  0.44598  0.66519  0.26637  1.0000
  C   C1089     1.0  0.44510  0.68265  0.26635  1.0000
  C   C1090     1.0  0.44252  0.69059  0.23416  1.0000
  C   C1091     1.0  0.44053  0.68110  0.20244  1.0000
  C   C1092     1.0  0.34301  0.58990  0.10056  1.0000
  H   H853      1.0  0.44815  0.65900  0.29083  1.0000
  H   H854      1.0  0.44183  0.70410  0.23386  1.0000
  H   H855      1.0  0.43816  0.68721  0.17805  1.0000
  C   C1093     1.0  0.46549  0.72422  0.13251  1.0000
  H   H856      1.0  0.36100  0.56546  0.22452  1.0000
  C   C1094     1.0  0.36013  0.73004  0.45141  1.0000
  C   C1095     1.0  0.29976  0.59782  0.04014  1.0000
  S   S150      1.0  0.42006  0.63246  0.45327  1.0000
  C   C1096     1.0  0.23752  0.55568  0.11469  1.0000
  C   C1097     1.0  0.35985  0.59706  0.47519  1.0000
  H   H857      1.0  0.36299  0.62330  0.30904  1.0000
  H   H858      1.0  0.30779  0.62297  0.00899  1.0000
  C   C1098     1.0  0.39675  0.61951  0.46256  1.0000
  H   H859      1.0  0.37896  0.57623  0.16851  1.0000
  H   H860      1.0  0.27419  0.55606  0.01059  1.0000
  H   H861      1.0  0.35594  0.59484  0.15060  1.0000
  H   H862      1.0  0.40476  0.60591  0.16581  1.0000
  H   H863      1.0  0.28865  0.60829  0.45815  1.0000
  C   C1099     1.0  0.36479  0.61430  0.45770  1.0000
  C   C1100     1.0  0.44059  0.62604  0.35396  1.0000
  H   H864      1.0  0.37492  0.69190  0.41302  1.0000
  H   H865      1.0  0.26755  0.57619  0.46480  1.0000
  S   S151      1.0  0.44671  0.68462  0.46766  1.0000
  H   H866      1.0  0.26634  0.52903  0.11120  1.0000
  S   S152      1.0  0.45510  0.68628  0.07938  1.0000
  C   C1101     1.0  0.43026  0.73223  0.02809  1.0000
  H   H867      1.0  0.34459  0.58835  0.40181  1.0000
  C   C1102     1.0  0.44727  0.61509  0.29827  1.0000
  C   C1103     1.0  0.45224  0.62087  0.33237  1.0000
  C   C1104     1.0  0.42418  0.62587  0.34124  1.0000
  C   C1105     1.0  0.41899  0.62006  0.30693  1.0000
  C   C1106     1.0  0.43067  0.61449  0.28572  1.0000
  P   P38       1.0  0.39737  0.61937  0.29117  1.0000
  C   C1107     1.0  0.39828  0.64251  0.28237  1.0000
  C   C1108     1.0  0.39135  0.60570  0.25217  1.0000
  C   C1109     1.0  0.25696  0.57967  0.15023  1.0000
  C   C1110     1.0  0.40138  0.61163  0.22026  1.0000
  C   C1111     1.0  0.40206  0.65490  0.30990  1.0000
  C   C1112     1.0  0.40266  0.67275  0.30382  1.0000
  C   C1113     1.0  0.39959  0.67846  0.27020  1.0000
  C   C1114     1.0  0.39545  0.66618  0.24279  1.0000
  C   C1115     1.0  0.39455  0.64824  0.24887  1.0000
  C   C1116     1.0  0.38056  0.60932  0.32608  1.0000
  C   C1117     1.0  0.27209  0.57903  0.13163  1.0000
  H   H868      1.0  0.47020  0.71954  0.02950  1.0000
  H   H869      1.0  0.36146  0.68815  0.47366  1.0000
  H   H870      1.0  0.27673  0.63346  0.45522  1.0000
  H   H871      1.0  0.25059  0.54593  0.07421  1.0000
  H   H872      1.0  0.42720  0.60967  0.25947  1.0000
  C   C1118     1.0  0.43493  0.73574  0.47956  1.0000
  H   H873      1.0  0.41275  0.62448  0.21847  1.0000
  H   H874      1.0  0.40465  0.65090  0.33610  1.0000
  H   H875      1.0  0.40625  0.68240  0.32487  1.0000
  H   H876      1.0  0.40080  0.69251  0.26527  1.0000
  H   H877      1.0  0.39328  0.67068  0.21656  1.0000
  H   H878      1.0  0.39101  0.63912  0.22714  1.0000
  H   H879      1.0  0.30413  0.51890  0.01420  1.0000
  H   H880      1.0  0.37186  0.58030  0.39850  1.0000
  H   H881      1.0  0.30048  0.71907  0.00802  1.0000
  C   C1119     1.0  0.36305  0.70034  0.45781  1.0000
  H   H882      1.0  0.39445  0.59291  0.34996  1.0000
  H   H883      1.0  0.34021  0.60987  0.35721  1.0000
  H   H884      1.0  0.44570  0.64267  0.23447  1.0000
  C   C1120     1.0  0.37259  0.71806  0.40299  1.0000
  C   C1121     1.0  0.36987  0.58946  0.37849  1.0000
  C   C1122     1.0  0.39687  0.60109  0.19024  1.0000
  P   P39       1.0  0.28938  0.56530  0.08055  1.0000
  C   C1123     1.0  0.32670  0.58238  0.08345  1.0000
  C   C1124     1.0  0.35428  0.72078  0.06894  1.0000
  C   C1125     1.0  0.23192  0.52360  0.01803  1.0000
  C   C1126     1.0  0.38234  0.58444  0.19177  1.0000
  H   H885      1.0  0.44420  0.63009  0.38078  1.0000
  H   H886      1.0  0.46505  0.62124  0.34219  1.0000
  H   H887      1.0  0.36998  0.68729  0.09285  1.0000
  C   C1127     1.0  0.35208  0.60623  0.35536  1.0000
  H   H888      1.0  0.27807  0.72972  0.47459  1.0000
  H   H889      1.0  0.29080  0.70553  0.46495  1.0000
  C   C1128     1.0  0.32924  0.73263  0.01233  1.0000
  H   H890      1.0  0.23477  0.56909  0.46795  1.0000
  H   H891      1.0  0.34383  0.61113  0.02057  1.0000
  C   C1129     1.0  0.24888  0.61547  0.46004  1.0000
  H   H892      1.0  0.40102  0.67714  0.47254  1.0000
  C   C1130     1.0  0.29590  0.52122  0.03534  1.0000
  C   C1131     1.0  0.38275  0.59684  0.35115  1.0000
  C   C1132     1.0  0.37670  0.58895  0.25341  1.0000
  H   H893      1.0  0.25858  0.58942  0.17087  1.0000
  C   C1133     1.0  0.35451  0.59407  0.38048  1.0000
  H   H894      1.0  0.37853  0.71968  0.37652  1.0000
  C   C1134     1.0  0.47188  0.73953  0.10961  1.0000
  C   C1135     1.0  0.31045  0.57421  0.10307  1.0000
  C   C1136     1.0  0.26750  0.61942  0.45797  1.0000
  S   S153      1.0  0.33649  0.58290  0.47919  1.0000
  C   C1137     1.0  0.28168  0.57060  0.01050  1.0000
  C   C1138     1.0  0.29781  0.53906  0.04371  1.0000
  H   H895      1.0  0.36874  0.58391  0.27755  1.0000
  C   C1139     1.0  0.36505  0.61384  0.32822  1.0000
  H   H896      1.0  0.23714  0.57130  0.03323  1.0000
  H   H897      1.0  0.28529  0.58861  0.13772  1.0000
  C   C1140     1.0  0.23969  0.56788  0.14199  1.0000
  C   C1141     1.0  0.39184  0.60250  0.48088  1.0000
  C   C1142     1.0  0.33354  0.50334  0.00240  1.0000
  C   C1143     1.0  0.38308  0.62547  0.45149  1.0000
  C   C1144     1.0  0.35798  0.71416  0.47182  1.0000
  C   C1145     1.0  0.37224  0.57840  0.22331  1.0000
  H   H898      1.0  0.29872  0.56535  0.15554  1.0000
  C   C1146     1.0  0.27423  0.60527  0.45956  1.0000
  C   C1147     1.0  0.42661  0.72374  0.99564  1.0000
  C   C1148     1.0  0.32732  0.57985  0.15711  1.0000
  C   C1149     1.0  0.36734  0.73182  0.41674  1.0000
  H   H899      1.0  0.47169  0.70347  0.16090  1.0000
  S   S154      1.0  0.38090  0.63207  0.03345  1.0000
  C   C1150     1.0  0.27445  0.52711  0.08950  1.0000
  H   H900      1.0  0.26143  0.54141  0.47162  1.0000
  C   C1151     1.0  0.27238  0.50927  0.08062  1.0000
  C   C1152     1.0  0.27005  0.56630  0.10509  1.0000
  H   H901      1.0  0.24135  0.53671  0.42048  1.0000
  H   H902      1.0  0.26247  0.49771  0.09475  1.0000
  C   C1153     1.0  0.47199  0.72778  0.00537  1.0000
  C   C1154     1.0  0.31095  0.57242  0.13999  1.0000
  H   H903      1.0  0.38658  0.63851  0.43744  1.0000
  C   C1155     1.0  0.34330  0.58880  0.13742  1.0000
  H   H904      1.0  0.45140  0.71887  0.14108  1.0000
  H   H905      1.0  0.34505  0.69826  0.10709  1.0000
  H   H906      1.0  0.35543  0.59670  0.08513  1.0000
  C   C1156     1.0  0.31843  0.72380  0.46871  1.0000
  Fe  Fe76      1.0  0.47056  0.69365  0.42920  1.0000
  H   H907      1.0  0.32682  0.58307  0.05485  1.0000
  C   C1157     1.0  0.37353  0.59137  0.48730  1.0000
  C   C1158     1.0  0.28682  0.54215  0.07035  1.0000
  H   H908      1.0  0.34355  0.72560  0.07595  1.0000
  C   C1159     1.0  0.24707  0.53768  0.47604  1.0000
  H   H909      1.0  0.35437  0.61891  0.44827  1.0000
  H   H910      1.0  0.24417  0.62672  0.45932  1.0000
  C   C1160     1.0  0.29252  0.73297  0.47485  1.0000
  H   H911      1.0  0.39265  0.73177  0.01751  1.0000
  C   C1161     1.0  0.25260  0.55511  0.09592  1.0000
  H   H912      1.0  0.45624  0.61099  0.28151  1.0000
  H   H913      1.0  0.32362  0.71313  0.46359  1.0000
  H   H914      1.0  0.32762  0.57876  0.18565  1.0000
  S   S155      1.0  0.42795  0.67540  0.01128  1.0000
  S   S156      1.0  0.29556  0.53545  0.49269  1.0000
  C   C1162     1.0  0.35517  0.70536  0.08689  1.0000
  C   C1163     1.0  0.23570  0.53511  0.44713  1.0000
  H   H915      1.0  0.30637  0.60455  0.06340  1.0000
  C   C1164     1.0  0.35182  0.60695  0.00164  1.0000
  C   C1165     1.0  0.29973  0.71940  0.46936  1.0000
  C   C1166     1.0  0.37053  0.70238  0.42354  1.0000
  C   C1167     1.0  0.23924  0.73291  0.01859  1.0000
  H   H916      1.0  0.39355  0.70405  0.04810  1.0000
  C   C1168     1.0  0.38181  0.72423  0.03605  1.0000
  C   C1169     1.0  0.38252  0.70867  0.05370  1.0000
  H   H917      1.0  0.32966  0.50119  0.03020  1.0000
  C   C1170     1.0  0.26235  0.58718  0.46320  1.0000
  C   C1171     1.0  0.36920  0.69922  0.07902  1.0000
  H   H918      1.0  0.23215  0.73256  0.12876  1.0000
  C   C1172     1.0  0.37077  0.61535  0.00143  1.0000
  H   H919      1.0  0.28135  0.49256  0.04610  1.0000
  H   H920      1.0  0.33186  0.72008  0.01042  1.0000
  C   C1173     1.0  0.31147  0.73202  0.01062  1.0000
  H   H921      1.0  0.24741  0.49534  0.44812  1.0000
  H   H922      1.0  0.47752  0.67777  0.14083  1.0000
  H   H923      1.0  0.42319  0.70917  0.99440  1.0000
  C   C1174     1.0  0.47705  0.71545  0.14346  1.0000
  H   H924      1.0  0.40227  0.59777  0.48976  1.0000
  S   S157      1.0  0.47510  0.66956  0.99560  1.0000
  C   C1175     1.0  0.45034  0.73365  0.49278  1.0000
  Fe  Fe77      1.0  0.31452  0.55127  0.91085  1.0000
  S   S158      1.0  0.29511  0.55487  0.87100  1.0000
  S   S159      1.0  0.34325  0.57132  0.92020  1.0000
  Fe  Fe78      1.0  0.29015  0.51122  0.92890  1.0000
  S   S160      1.0  0.26926  0.51187  0.89082  1.0000
  Fe  Fe79      1.0  0.29213  0.52696  0.85208  1.0000
  S   S161      1.0  0.28558  0.51729  0.79533  1.0000
  Fe  Fe80      1.0  0.27352  0.53951  0.91161  1.0000
  S   S162      1.0  0.24887  0.54687  0.92056  1.0000
  S   S163      1.0  0.31297  0.52422  0.88902  1.0000
  S   S164      1.0  0.29297  0.53814  0.95267  1.0000
  Fe  Fe81      1.0  0.31251  0.54049  0.58972  1.0000
  S   S165      1.0  0.32896  0.53660  0.54331  1.0000
  S   S166      1.0  0.32486  0.54569  0.64435  1.0000
  Fe  Fe82      1.0  0.28155  0.53938  0.54220  1.0000
  C   C1176     1.0  0.29173  0.60001  0.97930  1.0000
  S   S167      1.0  0.25373  0.54083  0.54742  1.0000
  Fe  Fe83      1.0  0.30280  0.51513  0.52627  1.0000
  H   H925      1.0  0.26301  0.71069  0.82671  1.0000
  H   H926      1.0  0.40385  0.65153  0.50778  1.0000
  S   S168      1.0  0.28727  0.51788  0.57477  1.0000
  S   S169      1.0  0.30554  0.56232  0.56095  1.0000
  C   C1177     1.0  0.42123  0.63981  0.56357  1.0000
  C   C1178     1.0  0.23201  0.68746  0.70941  1.0000
  C   C1179     1.0  0.33459  0.49873  0.58859  1.0000
  H   H927      1.0  0.46127  0.63150  0.51597  1.0000
  C   C1180     1.0  0.38091  0.61009  0.97628  1.0000
  C   C1181     1.0  0.24942  0.65740  0.59341  1.0000
  C   C1182     1.0  0.25431  0.67386  0.57365  1.0000
  H   H928      1.0  0.24271  0.69242  0.72788  1.0000
  H   H929      1.0  0.23234  0.59293  0.65226  1.0000
  H   H930      1.0  0.47842  0.68584  0.91962  1.0000
  C   C1183     1.0  0.46892  0.73354  0.86410  1.0000
  C   C1184     1.0  0.29669  0.52613  0.75385  1.0000
  C   C1185     1.0  0.28690  0.52131  0.72275  1.0000
  C   C1186     1.0  0.29526  0.52713  0.68908  1.0000
  C   C1187     1.0  0.31360  0.53791  0.68610  1.0000
  C   C1188     1.0  0.32343  0.54269  0.71717  1.0000
  C   C1189     1.0  0.31505  0.53689  0.75086  1.0000
  C   C1190     1.0  0.25614  0.60595  0.55998  1.0000
  H   H931      1.0  0.28750  0.52340  0.66549  1.0000
  H   H932      1.0  0.33764  0.55097  0.71519  1.0000
  H   H933      1.0  0.32281  0.54060  0.77445  1.0000
  C   C1191     1.0  0.35329  0.58810  0.95219  1.0000
  H   H934      1.0  0.24851  0.63251  0.93661  1.0000
  H   H935      1.0  0.39211  0.61206  0.63330  1.0000
  C   C1192     1.0  0.39305  0.67471  0.57429  1.0000
  C   C1193     1.0  0.34520  0.52384  0.95160  1.0000
  C   C1194     1.0  0.23553  0.53712  0.95876  1.0000
  C   C1195     1.0  0.24595  0.61586  0.57296  1.0000
  C   C1196     1.0  0.37222  0.59662  0.95181  1.0000
  C   C1197     1.0  0.35433  0.60275  0.56538  1.0000
  C   C1198     1.0  0.36932  0.61905  0.56247  1.0000
  C   C1199     1.0  0.38289  0.62281  0.58740  1.0000
  P   P40       1.0  0.40235  0.64382  0.58426  1.0000
  C   C1200     1.0  0.39781  0.66113  0.55797  1.0000
  C   C1201     1.0  0.38156  0.60970  0.61435  1.0000
  C   C1202     1.0  0.40787  0.65269  0.62799  1.0000
  C   C1203     1.0  0.42531  0.66485  0.63479  1.0000
  C   C1204     1.0  0.42926  0.67253  0.66798  1.0000
  C   C1205     1.0  0.41586  0.66811  0.69470  1.0000
  C   C1206     1.0  0.39844  0.65615  0.68813  1.0000
  C   C1207     1.0  0.39440  0.64861  0.65486  1.0000
  C   C1208     1.0  0.40021  0.66185  0.52102  1.0000
  H   H936      1.0  0.34381  0.59989  0.54624  1.0000
  H   H937      1.0  0.37026  0.62852  0.54063  1.0000
  C   C1209     1.0  0.33521  0.49096  0.94471  1.0000
  C   C1210     1.0  0.43554  0.61902  0.54335  1.0000
  H   H938      1.0  0.41893  0.67404  0.72042  1.0000
  C   C1211     1.0  0.24645  0.64733  0.71800  1.0000
  C   C1212     1.0  0.47225  0.72002  0.97261  1.0000
  H   H939      1.0  0.34145  0.57727  0.59463  1.0000
  H   H940      1.0  0.25602  0.66017  0.72666  1.0000
  C   C1213     1.0  0.43602  0.65459  0.54944  1.0000
  H   H941      1.0  0.34334  0.51912  0.66782  1.0000
  C   C1214     1.0  0.23981  0.69328  0.79975  1.0000
  H   H942      1.0  0.46175  0.66300  0.52137  1.0000
  C   C1215     1.0  0.28225  0.58117  0.97993  1.0000
  H   H943      1.0  0.43583  0.66867  0.61447  1.0000
  H   H944      1.0  0.36545  0.58331  0.63795  1.0000
  C   C1216     1.0  0.34312  0.59334  0.97740  1.0000
  C   C1217     1.0  0.39438  0.69005  0.51748  1.0000
  C   C1218     1.0  0.23562  0.69320  0.67383  1.0000
  H   H945      1.0  0.38067  0.63982  0.65010  1.0000
  H   H946      1.0  0.24456  0.62661  0.55627  1.0000
  H   H947      1.0  0.23750  0.73924  0.92966  1.0000
  H   H948      1.0  0.44271  0.68202  0.67289  1.0000
  H   H949      1.0  0.39095  0.67446  0.60263  1.0000
  C   C1219     1.0  0.25459  0.69673  0.82147  1.0000
  H   H950      1.0  0.33843  0.50137  0.56076  1.0000
  H   H951      1.0  0.32857  0.58710  0.97791  1.0000
  H   H952      1.0  0.39373  0.70155  0.50196  1.0000
  H   H953      1.0  0.42480  0.72748  0.93960  1.0000
  H   H954      1.0  0.28504  0.61277  0.88134  1.0000
  H   H955      1.0  0.24811  0.65678  0.66421  1.0000
  C   C1220     1.0  0.39857  0.67631  0.50092  1.0000
  C   C1221     1.0  0.42107  0.62197  0.56021  1.0000
  H   H956      1.0  0.43515  0.60522  0.54010  1.0000
  C   C1222     1.0  0.23761  0.61171  0.60683  1.0000
  H   H957      1.0  0.24951  0.57509  0.62814  1.0000
  C   C1223     1.0  0.24865  0.58663  0.61298  1.0000
  C   C1224     1.0  0.25734  0.59123  0.57981  1.0000
  H   H958      1.0  0.46840  0.68597  0.58051  1.0000
  H   H959      1.0  0.37156  0.72491  0.96778  1.0000
  C   C1225     1.0  0.42826  0.67534  0.89882  1.0000
  H   H960      1.0  0.35290  0.52486  0.60468  1.0000
  H   H961      1.0  0.37003  0.57822  0.50090  1.0000
  C   C1226     1.0  0.35298  0.58995  0.59259  1.0000
  C   C1227     1.0  0.26806  0.62467  0.90850  1.0000
  C   C1228     1.0  0.24102  0.67970  0.56016  1.0000
  C   C1229     1.0  0.23885  0.63276  0.74233  1.0000
  H   H962      1.0  0.26964  0.68493  0.85419  1.0000
  H   H963      1.0  0.47458  0.71585  0.54978  1.0000
  C   C1230     1.0  0.23986  0.53598  0.51051  1.0000
  C   C1231     1.0  0.45052  0.65160  0.53282  1.0000
  H   H964      1.0  0.24470  0.69250  0.54499  1.0000
  H   H965      1.0  0.26268  0.60929  0.53403  1.0000
  H   H966      1.0  0.27895  0.63753  0.91249  1.0000
  C   C1232     1.0  0.23891  0.59684  0.62654  1.0000
  C   C1233     1.0  0.39142  0.68915  0.55408  1.0000
  C   C1234     1.0  0.42759  0.73418  0.96455  1.0000
  C   C1235     1.0  0.25068  0.62182  0.92178  1.0000
  H   H967      1.0  0.47112  0.70588  0.97195  1.0000
  H   H968      1.0  0.24861  0.51316  0.60196  1.0000
  H   H969      1.0  0.43572  0.70384  0.88673  1.0000
  C   C1236     1.0  0.27152  0.61075  0.89103  1.0000
  H   H970      1.0  0.39545  0.61638  0.97568  1.0000
  H   H971      1.0  0.38800  0.65280  0.70878  1.0000
  C   C1237     1.0  0.36659  0.59339  0.61703  1.0000
  H   H972      1.0  0.42433  0.64752  0.91424  1.0000
  C   C1238     1.0  0.46458  0.68309  0.91265  1.0000
  H   H973      1.0  0.26476  0.58317  0.56924  1.0000
  C   C1239     1.0  0.25829  0.68221  0.83704  1.0000
  C   C1240     1.0  0.33738  0.50862  0.64894  1.0000
  H   H974      1.0  0.27267  0.51323  0.72475  1.0000
  H   H975      1.0  0.45654  0.65447  0.92677  1.0000
  C   C1241     1.0  0.47373  0.73043  0.94122  1.0000
  H   H976      1.0  0.27538  0.57472  0.95666  1.0000
  C   C1242     1.0  0.45897  0.69731  0.90132  1.0000
  P   P41       1.0  0.47488  0.72065  0.89894  1.0000
  C   C1243     1.0  0.24194  0.64531  0.68242  1.0000
  C   C1244     1.0  0.43400  0.66132  0.91006  1.0000
  H   H977      1.0  0.26841  0.68211  0.56870  1.0000
  H   H978      1.0  0.35047  0.53762  0.94007  1.0000
  H   H979      1.0  0.24892  0.70245  0.66524  1.0000
  H   H980      1.0  0.34590  0.51130  0.90222  1.0000
  C   C1245     1.0  0.24231  0.52985  0.98668  1.0000
  H   H981      1.0  0.41410  0.67235  0.89422  1.0000
  Fe  Fe84      1.0  0.32048  0.55725  0.51357  1.0000
  C   C1246     1.0  0.23115  0.64662  0.59990  1.0000
  H   H982      1.0  0.38826  0.69987  0.56684  1.0000
  H   H983      1.0  0.26038  0.58287  0.87463  1.0000
  H   H984      1.0  0.35251  0.71256  0.49865  1.0000
  C   C1247     1.0  0.45215  0.66520  0.91686  1.0000
  H   H985      1.0  0.25990  0.65300  0.60345  1.0000
  C   C1248     1.0  0.44065  0.69326  0.89450  1.0000
  H   H986      1.0  0.24273  0.63416  0.76966  1.0000
  C   C1249     1.0  0.23373  0.73291  0.95575  1.0000
  H   H987      1.0  0.38579  0.73030  0.90812  1.0000
  C   C1250     1.0  0.24017  0.59116  0.89977  1.0000
  H   H988      1.0  0.43620  0.66842  0.55049  1.0000
  H   H989      1.0  0.23689  0.70469  0.78847  1.0000
  H   H990      1.0  0.29232  0.60811  0.95546  1.0000
  C   C1251     1.0  0.24718  0.66421  0.83099  1.0000
  C   C1252     1.0  0.22968  0.62865  0.67091  1.0000
  C   C1253     1.0  0.24055  0.49869  0.60185  1.0000
  C   C1254     1.0  0.23232  0.66072  0.80941  1.0000
  H   H991      1.0  0.38025  0.59276  0.93243  1.0000
  C   C1255     1.0  0.25761  0.59397  0.88694  1.0000
  C   C1256     1.0  0.34250  0.50886  0.93020  1.0000
  C   C1257     1.0  0.45026  0.63382  0.52972  1.0000
  H   H992      1.0  0.24083  0.59058  0.97931  1.0000
  H   H993      1.0  0.40968  0.61023  0.56970  1.0000
  C   C1258     1.0  0.34070  0.52109  0.98766  1.0000
  C   C1259     1.0  0.34276  0.51189  0.61328  1.0000
  H   H994      1.0  0.24991  0.65296  0.84351  1.0000
  C   C1260     1.0  0.45414  0.73909  0.86909  1.0000
  H   H995      1.0  0.36989  0.49549  0.92679  1.0000
  H   H996      1.0  0.39846  0.49118  0.91408  1.0000
  C   C1261     1.0  0.23644  0.60516  0.91686  1.0000
  H   H997      1.0  0.22990  0.57780  0.89727  1.0000
  C   C1262     1.0  0.37646  0.73861  0.95622  1.0000
  H   H998      1.0  0.25159  0.49249  0.64965  1.0000
  H   H999      1.0  0.30856  0.49464  0.78850  1.0000
  H   H1000     1.0  0.44629  0.73582  0.89366  1.0000
  C   C1263     1.0  0.47545  0.69846  0.59391  1.0000
  C   C1264     1.0  0.32368  0.49228  0.65996  1.0000
  H   H1001     1.0  0.25558  0.52912  0.98424  1.0000
  Fe  Fe85      1.0  0.27533  0.81142  0.03086  1.0000
  S   S170      1.0  0.25561  0.79170  0.06917  1.0000
  H   H1002     1.0  0.35053  0.77858  0.01930  1.0000
  Fe  Fe86      1.0  0.30723  0.80287  0.05811  1.0000
  S   S171      1.0  0.28986  0.78219  0.09919  1.0000
  S   S172      1.0  0.33790  0.80971  0.05644  1.0000
  Fe  Fe87      1.0  0.26966  0.77246  0.05641  1.0000
  C   C1265     1.0  0.23118  0.79976  0.46086  1.0000
  Fe  Fe88      1.0  0.27660  0.80238  0.11014  1.0000
  S   S173      1.0  0.26565  0.80729  0.16366  1.0000
  H   H1003     1.0  0.26436  0.88078  0.04221  1.0000
  S   S174      1.0  0.29531  0.82402  0.07259  1.0000
  Fe  Fe89      1.0  0.29177  0.80282  0.36608  1.0000
  S   S175      1.0  0.30443  0.82577  0.40330  1.0000
  S   S176      1.0  0.30242  0.80215  0.30976  1.0000
  Fe  Fe90      1.0  0.26443  0.77965  0.42303  1.0000
  S   S177      1.0  0.27475  0.80070  0.46427  1.0000
  H   H1004     1.0  0.33877  0.85041  0.99833  1.0000
  Fe  Fe91      1.0  0.27580  0.82131  0.42103  1.0000
  S   S178      1.0  0.26373  0.84368  0.42126  1.0000
  Fe  Fe92      1.0  0.30259  0.80353  0.44377  1.0000
  C   C1266     1.0  0.30779  0.88945  0.16638  1.0000
  S   S179      1.0  0.26353  0.79995  0.38088  1.0000
  S   S180      1.0  0.29199  0.78090  0.40545  1.0000
  C   C1267     1.0  0.25829  0.85347  0.45963  1.0000
  C   C1268     1.0  0.24904  0.86562  0.45589  1.0000
  H   H1005     1.0  0.32741  0.83476  0.24059  1.0000
  C   C1269     1.0  0.43564  0.76163  0.99826  1.0000
  C   C1270     1.0  0.25967  0.98898  0.46926  1.0000
  H   H1006     1.0  0.36917  0.74387  0.40035  1.0000
  S   S181      1.0  0.25210  0.74240  0.05554  1.0000
  C   C1271     1.0  0.24457  0.87386  0.48554  1.0000
  H   H1007     1.0  0.24533  0.86869  0.42987  1.0000
  H   H1008     1.0  0.43110  0.85458  0.43788  1.0000
  C   C1272     1.0  0.25007  0.94436  0.45985  1.0000
  C   C1273     1.0  0.31803  0.87014  0.05477  1.0000
  C   C1274     1.0  0.35683  0.82085  0.45859  1.0000
  C   C1275     1.0  0.44148  0.82963  0.48882  1.0000
  C   C1276     1.0  0.29028  0.85737  0.15983  1.0000
  H   H1009     1.0  0.35062  0.82539  0.43703  1.0000
  C   C1277     1.0  0.32526  0.84480  0.15304  1.0000
  C   C1278     1.0  0.34345  0.74934  0.01674  1.0000
  H   H1010     1.0  0.32716  0.89523  0.25567  1.0000
  C   C1279     1.0  0.38289  0.78782  0.09703  1.0000
  C   C1280     1.0  0.40127  0.79659  0.08875  1.0000
  C   C1281     1.0  0.39009  0.79508  0.42287  1.0000
  H   H1011     1.0  0.33136  0.82996  0.11071  1.0000
  H   H1012     1.0  0.32221  0.85407  0.13500  1.0000
  C   C1282     1.0  0.27501  0.80436  0.20455  1.0000
  C   C1283     1.0  0.26831  0.80906  0.23606  1.0000
  C   C1284     1.0  0.27596  0.80766  0.26882  1.0000
  C   C1285     1.0  0.29051  0.80169  0.27032  1.0000
  C   C1286     1.0  0.29663  0.79624  0.23904  1.0000
  C   C1287     1.0  0.28902  0.79765  0.20629  1.0000
  H   H1013     1.0  0.25735  0.81409  0.23508  1.0000
  H   H1014     1.0  0.27092  0.81161  0.29276  1.0000
  H   H1015     1.0  0.30755  0.79116  0.24008  1.0000
  H   H1016     1.0  0.29418  0.79376  0.18238  1.0000
  C   C1288     1.0  0.40900  0.79136  0.05947  1.0000
  C   C1289     1.0  0.37264  0.81729  0.03152  1.0000
  H   H1017     1.0  0.37543  0.81575  0.05896  1.0000
  C   C1290     1.0  0.26294  0.92058  0.45897  1.0000
  P   P42       1.0  0.36634  0.75014  0.02001  1.0000
  H   H1018     1.0  0.22916  0.80584  0.40588  1.0000
  C   C1291     1.0  0.29745  0.89396  0.14086  1.0000
  H   H1019     1.0  0.46272  0.74604  0.10074  1.0000
  H   H1020     1.0  0.33466  0.85393  0.06190  1.0000
  S   S182      1.0  0.40814  0.82833  0.48685  1.0000
  H   H1021     1.0  0.27110  0.85217  0.04106  1.0000
  H   H1022     1.0  0.40027  0.82328  0.01367  1.0000
  H   H1023     1.0  0.38550  0.81179  0.38112  1.0000
  H   H1024     1.0  0.23469  0.96559  0.99531  1.0000
  C   C1292     1.0  0.26454  0.85595  0.01912  1.0000
  C   C1293     1.0  0.25900  0.96315  0.37715  1.0000
  H   H1025     1.0  0.27562  0.88363  0.10495  1.0000
  C   C1294     1.0  0.24516  0.94682  0.01984  1.0000
  H   H1026     1.0  0.47447  0.85823  0.38857  1.0000
  C   C1295     1.0  0.30626  0.85184  0.31305  1.0000
  C   C1296     1.0  0.28800  0.84929  0.31640  1.0000
  C   C1297     1.0  0.27866  0.85119  0.28662  1.0000
  C   C1298     1.0  0.28753  0.85550  0.25342  1.0000
  C   C1299     1.0  0.30594  0.85821  0.24988  1.0000
  C   C1300     1.0  0.31523  0.85644  0.28007  1.0000
  P   P43       1.0  0.31792  0.86468  0.20753  1.0000
  C   C1301     1.0  0.33843  0.88398  0.21364  1.0000
  C   C1302     1.0  0.32392  0.84634  0.18983  1.0000
  C   C1303     1.0  0.33899  0.89678  0.23933  1.0000
  C   C1304     1.0  0.35492  0.91165  0.24426  1.0000
  C   C1305     1.0  0.37033  0.91393  0.22344  1.0000
  C   C1306     1.0  0.36981  0.90138  0.19753  1.0000
  C   C1307     1.0  0.35392  0.88647  0.19256  1.0000
  C   C1308     1.0  0.30431  0.87106  0.17591  1.0000
  S   S183      1.0  0.24063  0.75265  0.42663  1.0000
  C   C1309     1.0  0.35499  0.81518  0.02221  1.0000
  C   C1310     1.0  0.33974  0.76548  0.01724  1.0000
  C   C1311     1.0  0.25476  0.93130  0.44146  1.0000
  H   H1027     1.0  0.40398  0.80396  0.42598  1.0000
  H   H1028     1.0  0.31340  0.84998  0.33600  1.0000
  C   C1312     1.0  0.24251  0.93325  0.04613  1.0000
  H   H1029     1.0  0.26444  0.84892  0.28923  1.0000
  H   H1030     1.0  0.27990  0.85656  0.23076  1.0000
  H   H1031     1.0  0.32943  0.85854  0.27823  1.0000
  P   P44       1.0  0.23758  0.95670  0.43858  1.0000
  C   C1313     1.0  0.38677  0.82152  0.00582  1.0000
  C   C1314     1.0  0.36157  0.78855  0.39457  1.0000
  H   H1032     1.0  0.38270  0.92540  0.22742  1.0000
  H   H1033     1.0  0.35383  0.87690  0.17240  1.0000
  H   H1034     1.0  0.42328  0.79800  0.05324  1.0000
  H   H1035     1.0  0.37689  0.79181  0.11980  1.0000
  C   C1315     1.0  0.38415  0.82090  0.48770  1.0000
  H   H1036     1.0  0.42934  0.79868  0.48532  1.0000
  H   H1037     1.0  0.23742  0.88315  0.48233  1.0000
  C   C1316     1.0  0.32268  0.75532  0.47959  1.0000
  C   C1317     1.0  0.36414  0.76858  0.44256  1.0000
  H   H1038     1.0  0.33984  0.76464  0.41351  1.0000
  S   S184      1.0  0.32207  0.80161  0.48596  1.0000
  H   H1039     1.0  0.39061  0.77681  0.46521  1.0000
  H   H1040     1.0  0.47222  0.75167  0.03222  1.0000
  C   C1318     1.0  0.35386  0.77302  0.41666  1.0000
  H   H1041     1.0  0.25038  0.96369  0.28947  1.0000
  H   H1042     1.0  0.35339  0.79220  0.37545  1.0000
  C   C1319     1.0  0.37977  0.76898  0.04579  1.0000
  C   C1320     1.0  0.39834  0.77749  0.03824  1.0000
  P   P45       1.0  0.35439  0.74819  0.47051  1.0000
  H   H1043     1.0  0.27026  0.96571  0.39447  1.0000
  H   H1044     1.0  0.31592  0.87135  0.08280  1.0000
  H   H1045     1.0  0.38404  0.83578  0.43918  1.0000
  H   H1046     1.0  0.40954  0.80738  0.10509  1.0000
  C   C1321     1.0  0.26221  0.96506  0.34053  1.0000
  C   C1322     1.0  0.28361  0.88016  0.12474  1.0000
  H   H1047     1.0  0.33900  0.80857  0.15029  1.0000
  H   H1048     1.0  0.43952  0.77627  0.99936  1.0000
  H   H1049     1.0  0.29403  0.74762  0.01169  1.0000
  H   H1050     1.0  0.28743  0.84317  0.16697  1.0000
  H   H1051     1.0  0.24377  0.81108  0.46355  1.0000
  C   C1323     1.0  0.32200  0.76484  0.01536  1.0000
  H   H1052     1.0  0.31846  0.90033  0.17843  1.0000
  H   H1053     1.0  0.33744  0.81146  0.21544  1.0000
  H   H1054     1.0  0.26624  0.91026  0.44497  1.0000
  H   H1055     1.0  0.38177  0.90311  0.18140  1.0000
  C   C1324     1.0  0.37219  0.77397  0.07578  1.0000
  C   C1325     1.0  0.38235  0.77974  0.44542  1.0000
  H   H1056     1.0  0.30018  0.90815  0.13354  1.0000
  H   H1057     1.0  0.41174  0.85697  0.38966  1.0000
  C   C1326     1.0  0.33508  0.81924  0.16139  1.0000
  H   H1058     1.0  0.35533  0.92136  0.26441  1.0000
  H   H1059     1.0  0.26885  0.98207  0.47533  1.0000
  C   C1327     1.0  0.33422  0.82090  0.19796  1.0000
  H   H1060     1.0  0.40467  0.77337  0.01608  1.0000
  C   C1328     1.0  0.31004  0.87817  0.03028  1.0000
  C   C1329     1.0  0.37579  0.82674  0.45995  1.0000
  S   S185      1.0  0.28802  0.79119  0.01459  1.0000
  C   C1330     1.0  0.24788  0.96217  0.31784  1.0000
  C   C1331     1.0  0.32851  0.83427  0.21220  1.0000
  C   C1332     1.0  0.47332  0.85576  0.44581  1.0000
  H   H1061     1.0  0.26933  0.85106  0.12184  1.0000
  C   C1333     1.0  0.28003  0.86186  0.13424  1.0000
  C   C1334     1.0  0.24136  0.95805  0.39130  1.0000
  H   H1062     1.0  0.43696  0.75773  0.05459  1.0000
  C   C1335     1.0  0.24361  0.98005  0.45184  1.0000
  P   P46       1.0  0.45475  0.83391  0.44731  1.0000
  C   C1336     1.0  0.44038  0.83524  0.41175  1.0000
  C   C1337     1.0  0.46342  0.81578  0.43983  1.0000
  C   C1338     1.0  0.45173  0.79795  0.43300  1.0000
  C   C1339     1.0  0.45836  0.78378  0.42992  1.0000
  H   H1063     1.0  0.28105  0.84555  0.34202  1.0000
  H   H1064     1.0  0.27584  0.96888  0.32975  1.0000
  C   C1340     1.0  0.30783  0.74811  0.01249  1.0000
  C   C1341     1.0  0.43995  0.82598  0.38021  1.0000
  C   C1342     1.0  0.42916  0.82763  0.35261  1.0000
  C   C1343     1.0  0.41896  0.83876  0.35597  1.0000
  C   C1344     1.0  0.41966  0.84836  0.38683  1.0000
  C   C1345     1.0  0.43053  0.84682  0.41435  1.0000
  H   H1065     1.0  0.25165  0.92894  0.41391  1.0000
  C   C1346     1.0  0.26079  0.87216  0.01964  1.0000
  C   C1347     1.0  0.37968  0.79954  0.39762  1.0000
  H   H1066     1.0  0.43746  0.79494  0.43009  1.0000
  H   H1067     1.0  0.44920  0.76996  0.42557  1.0000
  C   C1348     1.0  0.33065  0.83124  0.13902  1.0000
  H   H1068     1.0  0.30182  0.88571  0.03927  1.0000
  H   H1069     1.0  0.44809  0.81771  0.37647  1.0000
  H   H1070     1.0  0.42876  0.82032  0.32853  1.0000
  H   H1071     1.0  0.41053  0.83997  0.33467  1.0000
  H   H1072     1.0  0.25634  0.94992  0.00088  1.0000
  H   H1073     1.0  0.41824  0.75206  0.48004  1.0000
  H   H1074     1.0  0.31926  0.77736  0.01639  1.0000
  H   H1075     1.0  0.25169  0.92590  0.04756  1.0000
  C   C1349     1.0  0.30401  0.75091  0.48007  1.0000
  C   C1350     1.0  0.34601  0.80928  0.48545  1.0000
  H   H1076     1.0  0.35801  0.76721  0.08276  1.0000
  H   H1077     1.0  0.29849  0.76154  0.48385  1.0000
  C   C1351     1.0  0.43429  0.75112  0.02948  1.0000
  C   C1352     1.0  0.23290  0.95576  0.01685  1.0000
  C   C1353     1.0  0.32851  0.86031  0.04304  1.0000
  C   C1354     1.0  0.42993  0.75018  0.49084  1.0000
  C   C1355     1.0  0.23033  0.95753  0.33179  1.0000
  C   C1356     1.0  0.33070  0.85819  0.00689  1.0000
  H   H1078     1.0  0.33135  0.76937  0.48289  1.0000
  C   C1357     1.0  0.47335  0.74597  0.00700  1.0000
  C   C1358     1.0  0.47674  0.78729  0.43321  1.0000
  H   H1079     1.0  0.22963  0.75013  0.18095  1.0000
  C   C1359     1.0  0.23242  0.98978  0.44321  1.0000
  H   H1080     1.0  0.23741  0.99026  0.03631  1.0000
  C   C1360     1.0  0.33010  0.74187  0.47360  1.0000
  C   C1361     1.0  0.23060  0.74072  0.46645  1.0000
  C   C1362     1.0  0.26317  0.84973  0.49338  1.0000
  C   C1363     1.0  0.31255  0.87646  0.99406  1.0000
  Fe  Fe93      1.0  0.42810  0.82668  0.93618  1.0000
  S   S186      1.0  0.43158  0.81021  0.89047  1.0000
  S   S187      1.0  0.40135  0.83169  0.93752  1.0000
  S   S188      1.0  0.26613  0.82542  0.98604  1.0000
  H   H1081     1.0  0.28953  0.85860  0.93275  1.0000
  Fe  Fe94      1.0  0.45953  0.83083  0.88298  1.0000
  C   C1364     1.0  0.27511  0.95490  0.66860  1.0000
  Fe  Fe95      1.0  0.44349  0.79658  0.93022  1.0000
  S   S189      1.0  0.43604  0.76615  0.92582  1.0000
  S   S190      1.0  0.45559  0.84871  0.92575  1.0000
  S   S191      1.0  0.43843  0.81166  0.97649  1.0000
  Fe  Fe96      1.0  0.45415  0.82356  0.62390  1.0000
  S   S192      1.0  0.45836  0.84605  0.58286  1.0000
  S   S193      1.0  0.44094  0.82057  0.67890  1.0000
  Fe  Fe97      1.0  0.46329  0.79990  0.57071  1.0000
  S   S194      1.0  0.46827  0.82036  0.52639  1.0000
  C   C1365     1.0  0.24761  0.86597  0.96219  1.0000
  H   H1082     1.0  0.28697  0.89562  0.84970  1.0000
  Fe  Fe98      1.0  0.44132  0.82455  0.54268  1.0000
  C   C1366     1.0  0.47553  0.74883  0.94324  1.0000
  C   C1367     1.0  0.35162  0.81734  0.98652  1.0000
  S   S195      1.0  0.43735  0.80220  0.58783  1.0000
  C   C1368     1.0  0.29486  0.88988  0.86580  1.0000
  C   C1369     1.0  0.47286  0.78476  0.68408  1.0000
  C   C1370     1.0  0.37326  0.80920  0.51439  1.0000
  C   C1371     1.0  0.38855  0.77363  0.92435  1.0000
  C   C1372     1.0  0.37532  0.75334  0.97516  1.0000
  H   H1083     1.0  0.24099  0.86971  0.94032  1.0000
  C   C1373     1.0  0.46528  0.83514  0.78858  1.0000
  C   C1374     1.0  0.44682  0.82565  0.78512  1.0000
  C   C1375     1.0  0.43968  0.82127  0.75135  1.0000
  C   C1376     1.0  0.45089  0.82610  0.72068  1.0000
  S   S196      1.0  0.47471  0.84172  0.83046  1.0000
  H   H1084     1.0  0.35905  0.76901  0.59381  1.0000
  H   H1085     1.0  0.43798  0.82199  0.80838  1.0000
  H   H1086     1.0  0.42532  0.81421  0.74894  1.0000
  H   H1087     1.0  0.46499  0.79299  0.69141  1.0000
  C   C1377     1.0  0.25912  0.85834  0.52292  1.0000
  C   C1378     1.0  0.43259  0.75320  0.96565  1.0000
  H   H1088     1.0  0.47374  0.88147  0.96223  1.0000
  H   H1089     1.0  0.25501  0.75406  0.98139  1.0000
  H   H1090     1.0  0.39687  0.76145  0.88020  1.0000
  C   C1379     1.0  0.38354  0.82414  0.97031  1.0000
  C   C1380     1.0  0.36586  0.82191  0.96083  1.0000
  H   H1091     1.0  0.24901  0.95546  0.51116  1.0000
  C   C1381     1.0  0.46700  0.77214  0.65742  1.0000
  H   H1092     1.0  0.36315  0.82369  0.93338  1.0000
  C   C1382     1.0  0.45524  0.75972  0.52994  1.0000
  C   C1383     1.0  0.25867  0.98127  0.84411  1.0000
  H   H1093     1.0  0.32008  0.90567  0.83925  1.0000
  C   C1384     1.0  0.32451  0.82131  0.87731  1.0000
  C   C1385     1.0  0.31159  0.80683  0.89623  1.0000
  C   C1386     1.0  0.30368  0.81012  0.92733  1.0000
  C   C1387     1.0  0.30898  0.82781  0.94012  1.0000
  C   C1388     1.0  0.32213  0.84238  0.92149  1.0000
  C   C1389     1.0  0.32955  0.83907  0.88956  1.0000
  P   P47       1.0  0.32796  0.86551  0.93562  1.0000
  C   C1390     1.0  0.31524  0.87531  0.90824  1.0000
  C   C1391     1.0  0.36504  0.76354  0.57309  1.0000
  C   C1392     1.0  0.46036  0.74551  0.51807  1.0000
  C   C1393     1.0  0.26620  0.92258  0.49505  1.0000
  H   H1094     1.0  0.43626  0.77335  0.52474  1.0000
  C   C1394     1.0  0.26895  0.97017  0.84472  1.0000
  H   H1095     1.0  0.45471  0.77072  0.64388  1.0000
  C   C1395     1.0  0.32369  0.88827  0.88107  1.0000
  C   C1396     1.0  0.29641  0.86911  0.91282  1.0000
  C   C1397     1.0  0.35209  0.87734  0.93243  1.0000
  C   C1398     1.0  0.36370  0.86745  0.93294  1.0000
  C   C1399     1.0  0.38236  0.87653  0.93353  1.0000
  C   C1400     1.0  0.38960  0.89560  0.93410  1.0000
  C   C1401     1.0  0.37815  0.90556  0.93440  1.0000
  C   C1402     1.0  0.35945  0.89646  0.93393  1.0000
  C   C1403     1.0  0.35661  0.75934  0.54066  1.0000
  S   S197      1.0  0.24615  0.88196  0.55673  1.0000
  H   H1096     1.0  0.29325  0.79896  0.94126  1.0000
  H   H1097     1.0  0.30263  0.83010  0.96420  1.0000
  H   H1098     1.0  0.33926  0.85023  0.87414  1.0000
  H   H1099     1.0  0.45880  0.90148  0.93412  1.0000
  H   H1100     1.0  0.33812  0.81562  0.97872  1.0000
  H   H1101     1.0  0.26332  0.95652  0.85666  1.0000
  H   H1102     1.0  0.47853  0.88299  0.84099  1.0000
  H   H1103     1.0  0.33804  0.89258  0.87571  1.0000
  C   C1404     1.0  0.26143  0.93540  0.51359  1.0000
  H   H1104     1.0  0.35840  0.85269  0.93386  1.0000
  H   H1105     1.0  0.39112  0.86866  0.93420  1.0000
  H   H1106     1.0  0.40406  0.90260  0.93491  1.0000
  H   H1107     1.0  0.38376  0.92031  0.93557  1.0000
  H   H1108     1.0  0.35071  0.90429  0.93541  1.0000
  C   C1405     1.0  0.25165  0.84995  0.96138  1.0000
  C   C1406     1.0  0.47655  0.83991  0.75795  1.0000
  H   H1109     1.0  0.42756  0.88338  0.91825  1.0000
  H   H1110     1.0  0.24210  0.79154  0.95795  1.0000
  C   C1407     1.0  0.38426  0.74155  0.92210  1.0000
  C   C1408     1.0  0.32277  0.86628  0.98207  1.0000
  C   C1409     1.0  0.45999  0.75452  0.81151  1.0000
  C   C1410     1.0  0.38917  0.75426  0.55166  1.0000
  H   H1111     1.0  0.33048  0.81880  0.85294  1.0000
  H   H1112     1.0  0.34608  0.79481  0.53443  1.0000
  H   H1113     1.0  0.39318  0.78722  0.91206  1.0000
  H   H1114     1.0  0.24825  0.84143  0.93862  1.0000
  C   C1411     1.0  0.38099  0.77079  0.95862  1.0000
  C   C1412     1.0  0.36445  0.75261  0.51339  1.0000
  S   S198      1.0  0.46773  0.77360  0.56307  1.0000
  H   H1115     1.0  0.42180  0.86507  0.86440  1.0000
  C   C1413     1.0  0.26059  0.98384  0.56808  1.0000
  C   C1414     1.0  0.44969  0.74947  0.84297  1.0000
  C   C1415     1.0  0.45650  0.89361  0.91044  1.0000
  S   S199      1.0  0.24148  0.92644  0.90948  1.0000
  H   H1116     1.0  0.47215  0.74370  0.52834  1.0000
  H   H1117     1.0  0.40193  0.75253  0.55570  1.0000
  H   H1118     1.0  0.28552  0.94960  0.66172  1.0000
  H   H1119     1.0  0.24533  0.97634  0.85639  1.0000
  H   H1120     1.0  0.28487  0.96258  0.72069  1.0000
  H   H1121     1.0  0.26305  0.97671  0.95117  1.0000
  C   C1416     1.0  0.24818  0.96065  0.65334  1.0000
  C   C1417     1.0  0.43877  0.88359  0.90130  1.0000
  H   H1122     1.0  0.23838  0.85423  0.88012  1.0000
  H   H1123     1.0  0.23805  0.95990  0.63417  1.0000
  H   H1124     1.0  0.26337  0.85573  0.54879  1.0000
  H   H1125     1.0  0.26215  0.94850  0.61868  1.0000
  H   H1126     1.0  0.45664  0.76279  0.79151  1.0000
  C   C1418     1.0  0.31352  0.89560  0.86009  1.0000
  H   H1127     1.0  0.38795  0.76453  0.60356  1.0000
  C   C1419     1.0  0.39044  0.75908  0.90628  1.0000
  C   C1420     1.0  0.28631  0.87658  0.89205  1.0000
  C   C1421     1.0  0.47109  0.89301  0.88964  1.0000
  C   C1422     1.0  0.44054  0.84540  0.51023  1.0000
  C   C1423     1.0  0.26157  0.98953  0.94435  1.0000
  H   H1128     1.0  0.23031  0.78998  0.51454  1.0000
  H   H1129     1.0  0.44742  0.86517  0.82568  1.0000
  C   C1424     1.0  0.44991  0.87331  0.84915  1.0000
  C   C1425     1.0  0.24979  0.87044  0.51919  1.0000
  H   H1130     1.0  0.26340  0.97137  0.56894  1.0000
  H   H1131     1.0  0.43848  0.75399  0.84769  1.0000
  C   C1426     1.0  0.26111  0.96877  0.71077  1.0000
  Fe  Fe99      1.0  0.46635  0.83247  0.96272  1.0000
  H   H1132     1.0  0.34419  0.76167  0.53689  1.0000
  H   H1133     1.0  0.27188  0.91376  0.50890  1.0000
  H   H1134     1.0  0.47860  0.80443  0.82809  1.0000
  H   H1135     1.0  0.26339  0.93649  0.54180  1.0000
  C   C1427     1.0  0.24758  0.96779  0.68679  1.0000
  C   C1428     1.0  0.42741  0.84187  0.54162  1.0000
  C   C1429     1.0  0.41548  0.82259  0.55246  1.0000
  C   C1430     1.0  0.41631  0.80676  0.53121  1.0000
  C   C1431     1.0  0.38131  0.76102  0.57859  1.0000
  C   C1432     1.0  0.24289  0.98295  0.56314  1.0000
  H   H1136     1.0  0.42607  0.85324  0.55549  1.0000
  H   H1137     1.0  0.40582  0.82018  0.57432  1.0000
  H   H1138     1.0  0.40710  0.79304  0.53769  1.0000
  H   H1139     1.0  0.27183  0.87206  0.89638  1.0000
  C   C1433     1.0  0.44016  0.76227  0.51591  1.0000
  C   C1434     1.0  0.28658  0.97684  0.83071  1.0000
  H   H1140     1.0  0.37983  0.78230  0.97234  1.0000
  C   C1435     1.0  0.43549  0.87330  0.87086  1.0000
  C   C1436     1.0  0.46763  0.88329  0.85824  1.0000
  C   C1437     1.0  0.27474  0.96221  0.70178  1.0000
  S   S200      1.0  0.47188  0.81593  0.91953  1.0000
  H   H1141     1.0  0.24095  0.90540  0.74620  1.0000
  H   H1142     1.0  0.30658  0.88325  0.97580  1.0000
  C   C1438     1.0  0.26191  0.95423  0.64436  1.0000
  C   C1439     1.0  0.47515  0.75650  0.97596  1.0000
  C   C1440     1.0  0.46943  0.83532  0.72414  1.0000
  Fe  Fe100     1.0  0.23040  0.90463  0.95233  1.0000
  C   C1441     1.0  0.35435  0.80361  0.51339  1.0000
  H   H1143     1.0  0.37928  0.80441  0.53584  1.0000
  H   H1144     1.0  0.30753  0.79307  0.88663  1.0000
  C   C1442     1.0  0.24544  0.98940  0.92997  1.0000
  C   C1443     1.0  0.38081  0.75011  0.51920  1.0000
  C   C1444     1.0  0.42946  0.81020  0.50012  1.0000
  H   H1145     1.0  0.26101  0.97440  0.73657  1.0000
  H   H1146     1.0  0.29467  0.96834  0.83199  1.0000
  H   H1147     1.0  0.47255  0.75246  0.62593  1.0000
  C   C1445     1.0  0.47477  0.74915  0.80621  1.0000
  H   H1148     1.0  0.44802  0.85937  0.50165  1.0000
  H   H1149     1.0  0.47686  0.77963  0.87135  1.0000
  H   H1150     1.0  0.27040  0.84051  0.49665  1.0000
  S   S201      1.0  0.24790  0.89772  0.99287  1.0000
  H   H1151     1.0  0.47818  0.83922  0.70075  1.0000
  H   H1152     1.0  0.22917  0.86703  0.82656  1.0000
  H   H1153     1.0  0.47559  0.77043  0.97713  1.0000
  C   C1446     1.0  0.26022  0.84494  0.98969  1.0000
  H   H1154     1.0  0.47744  0.85722  0.50239  1.0000
  C   C1447     1.0  0.25332  0.94618  0.49611  1.0000
  H   H1155     1.0  0.24679  0.76094  0.50144  1.0000
  H   H1156     1.0  0.38732  0.74524  0.49844  1.0000
  C   C1448     1.0  0.24366  0.74133  0.98498  1.0000
  C   C1449     1.0  0.25238  0.87726  0.99113  1.0000
  C   C1450     1.0  0.23604  0.74779  0.49964  1.0000
  C   C1451     1.0  0.47726  0.76180  0.64719  1.0000
  H   H1157     1.0  0.47672  0.75721  0.91970  1.0000
  H   H1158     1.0  0.23015  0.80165  0.58220  1.0000
  S   S202      1.0  0.22971  0.90530  0.81882  1.0000
  P   P48       1.0  0.22994  0.97613  0.69879  1.0000
  H   H1159     1.0  0.23176  0.74330  0.55618  1.0000
  H   H1160     1.0  0.50688  0.16163  0.25998  1.0000
  C   C1452     1.0  0.67507  0.11227  0.19675  1.0000
  S   S203      1.0  0.69442  0.09139  0.39585  1.0000
  Fe  Fe101     1.0  0.51822  0.18943  0.42259  1.0000
  S   S204      1.0  0.51333  0.20528  0.37619  1.0000
  S   S205      1.0  0.54629  0.18794  0.42411  1.0000
  H   H1161     1.0  0.55690  0.22432  0.36707  1.0000
  C   C1453     1.0  0.69027  0.99720  0.27008  1.0000
  Fe  Fe102     1.0  0.49911  0.21663  0.41586  1.0000
  S   S206      1.0  0.72093  0.09332  0.46187  1.0000
  C   C1454     1.0  0.51218  0.10339  0.00593  1.0000
  S   S207      1.0  0.50581  0.20231  0.46238  1.0000
  S   S208      1.0  0.68350  0.12992  0.06743  1.0000
  C   C1455     1.0  0.54461  0.22335  0.07701  1.0000
  S   S209      1.0  0.70390  0.09318  0.09605  1.0000
  C   C1456     1.0  0.54163  0.12185  0.02651  1.0000
  C   C1457     1.0  0.68647  0.01719  0.01645  1.0000
  C   C1458     1.0  0.51197  0.23902  0.30162  1.0000
  C   C1459     1.0  0.66308  0.14680  0.03426  1.0000
  H   H1162     1.0  0.69455  0.20858  0.32258  1.0000
  C   C1460     1.0  0.55481  0.18017  0.02511  1.0000
  Fe  Fe103     1.0  0.49358  0.17976  0.05343  1.0000
  H   H1163     1.0  0.65029  0.00736  0.09163  1.0000
  S   S210      1.0  0.49281  0.20633  0.07270  1.0000
  C   C1461     1.0  0.66016  0.99547  0.04903  1.0000
  C   C1462     1.0  0.68672  0.03171  0.03795  1.0000
  C   C1463     1.0  0.67914  0.17189  0.49225  1.0000
  C   C1464     1.0  0.66032  0.01002  0.07048  1.0000
  C   C1465     1.0  0.67339  0.02796  0.06491  1.0000
  H   H1164     1.0  0.67328  0.03890  0.08152  1.0000
  C   C1466     1.0  0.52400  0.23797  0.11850  1.0000
  C   C1467     1.0  0.72041  0.21744  0.34755  1.0000
  C   C1468     1.0  0.52635  0.22194  0.12983  1.0000
  H   H1165     1.0  0.71931  0.16834  0.32960  1.0000
  H   H1166     1.0  0.72310  0.19642  0.07881  1.0000
  H   H1167     1.0  0.66051  0.15064  0.06050  1.0000
  C   C1469     1.0  0.57146  0.21226  0.19260  1.0000
  H   H1168     1.0  0.64985  0.23010  0.40882  1.0000
  C   C1470     1.0  0.61459  0.02573  0.19582  1.0000
  C   C1471     1.0  0.72372  0.16773  0.01371  1.0000
  C   C1472     1.0  0.55876  0.23751  0.22356  1.0000
  H   H1169     1.0  0.64001  0.07519  0.12242  1.0000
  C   C1473     1.0  0.62885  0.05370  0.04460  1.0000
  C   C1474     1.0  0.68854  0.02353  0.41442  1.0000
  C   C1475     1.0  0.67252  0.02168  0.43300  1.0000
  C   C1476     1.0  0.65890  0.00418  0.43947  1.0000
  C   C1477     1.0  0.69046  0.00741  0.40232  1.0000
  H   H1170     1.0  0.67065  0.03373  0.44273  1.0000
  H   H1171     1.0  0.64675  0.00312  0.45418  1.0000
  C   C1478     1.0  0.56687  0.21063  0.22871  1.0000
  C   C1479     1.0  0.53082  0.10757  0.00632  1.0000
  C   C1480     1.0  0.56046  0.19416  0.46077  1.0000
  C   C1481     1.0  0.65557  0.15248  0.00496  1.0000
  H   H1172     1.0  0.66630  0.21119  0.43288  1.0000
  S   S211      1.0  0.70642  0.04543  0.40516  1.0000
  C   C1482     1.0  0.69220  0.15228  0.46148  1.0000
  C   C1483     1.0  0.68961  0.16904  0.46424  1.0000
  H   H1173     1.0  0.70000  0.15013  0.43947  1.0000
  H   H1174     1.0  0.69551  0.17972  0.44422  1.0000
  H   H1175     1.0  0.55609  0.12526  0.02645  1.0000
  C   C1484     1.0  0.67399  0.13633  0.02981  1.0000
  C   C1485     1.0  0.67198  0.10322  0.22983  1.0000
  H   H1176     1.0  0.52602  0.19393  0.24911  1.0000
  C   C1486     1.0  0.70863  0.02762  0.24714  1.0000
  C   C1487     1.0  0.54162  0.18673  0.32919  1.0000
  Fe  Fe104     1.0  0.70573  0.11821  0.06336  1.0000
  C   C1488     1.0  0.72829  0.19125  0.05651  1.0000
  H   H1177     1.0  0.48020  0.10375  0.15554  1.0000
  C   C1489     1.0  0.53825  0.18177  0.01689  1.0000
  S   S212      1.0  0.70398  0.05403  0.02973  1.0000
  C   C1490     1.0  0.62718  0.05798  0.07982  1.0000
  C   C1491     1.0  0.51982  0.22993  0.99392  1.0000
  C   C1492     1.0  0.57290  0.22676  0.31890  1.0000
  C   C1493     1.0  0.71591  0.05842  0.14898  1.0000
  C   C1494     1.0  0.53652  0.21456  0.10893  1.0000
  C   C1495     1.0  0.67339  0.99933  0.02185  1.0000
  H   H1178     1.0  0.71363  0.22030  0.46901  1.0000
  C   C1496     1.0  0.70577  0.20484  0.33062  1.0000
  C   C1497     1.0  0.61313  0.02030  0.16076  1.0000
  C   C1498     1.0  0.65719  0.08088  0.07561  1.0000
  H   H1179     1.0  0.60259  0.02225  0.21274  1.0000
  H   H1180     1.0  0.62849  0.99284  0.00627  1.0000
  C   C1499     1.0  0.53049  0.16848  0.33535  1.0000
  Fe  Fe105     1.0  0.70410  0.10929  0.44274  1.0000
  C   C1500     1.0  0.51674  0.16861  0.27909  1.0000
  H   H1181     1.0  0.62754  0.18502  0.47757  1.0000
  P   P49       1.0  0.48029  0.10889  0.02487  1.0000
  H   H1182     1.0  0.51953  0.21477  0.15394  1.0000
  H   H1183     1.0  0.53755  0.20161  0.11674  1.0000
  H   H1184     1.0  0.55187  0.21696  0.06090  1.0000
  S   S213      1.0  0.49246  0.16541  0.41613  1.0000
  S   S214      1.0  0.72690  0.13073  0.41286  1.0000
  S   S215      1.0  0.71569  0.12351  0.31306  1.0000
  H   H1185     1.0  0.58288  0.23310  0.40603  1.0000
  H   H1186     1.0  0.55119  0.19319  0.34893  1.0000
  H   H1187     1.0  0.53137  0.16148  0.35989  1.0000
  H   H1188     1.0  0.67851  0.10995  0.14076  1.0000
  C   C1501     1.0  0.71667  0.03184  0.27985  1.0000
  H   H1189     1.0  0.60006  0.01246  0.15056  1.0000
  H   H1190     1.0  0.55674  0.17581  0.05152  1.0000
  C   C1502     1.0  0.68980  0.22388  0.39884  1.0000
  H   H1191     1.0  0.69659  0.01972  0.99546  1.0000
  C   C1503     1.0  0.71187  0.01870  0.30745  1.0000
  C   C1504     1.0  0.59049  0.23133  0.30471  1.0000
  H   H1192     1.0  0.67141  0.08402  0.02577  1.0000
  C   C1505     1.0  0.70540  0.18723  0.32422  1.0000
  C   C1506     1.0  0.56898  0.18426  0.99952  1.0000
  C   C1507     1.0  0.72031  0.22910  0.49008  1.0000
  Fe  Fe106     1.0  0.71481  0.08416  0.04787  1.0000
  C   C1508     1.0  0.51797  0.15944  0.31042  1.0000
  H   H1193     1.0  0.72200  0.03913  0.11648  1.0000
  C   C1509     1.0  0.50423  0.11354  0.02580  1.0000
  H   H1194     1.0  0.56557  0.22163  0.00316  1.0000
  H   H1195     1.0  0.63344  0.08856  0.99927  1.0000
  S   S216      1.0  0.52072  0.17575  0.05001  1.0000
  H   H1196     1.0  0.65321  0.99267  0.22500  1.0000
  S   S217      1.0  0.71506  0.10857  0.01414  1.0000
  H   H1197     1.0  0.64725  0.16061  0.00871  1.0000
  H   H1198     1.0  0.69231  0.21845  0.01092  1.0000
  C   C1510     1.0  0.71712  0.17523  0.04134  1.0000
  C   C1511     1.0  0.71741  0.12417  0.24049  1.0000
  H   H1199     1.0  0.67676  0.12658  0.19461  1.0000
  Fe  Fe107     1.0  0.71281  0.07671  0.41268  1.0000
  C   C1512     1.0  0.66318  0.23195  0.39827  1.0000
  C   C1513     1.0  0.69897  0.00133  0.30242  1.0000
  H   H1200     1.0  0.71254  0.03777  0.22562  1.0000
  H   H1201     1.0  0.69397  0.17749  0.31154  1.0000
  C   C1514     1.0  0.54001  0.19631  0.29841  1.0000
  C   C1515     1.0  0.52760  0.18698  0.27315  1.0000
  H   H1202     1.0  0.59605  0.22082  0.99468  1.0000
  H   H1203     1.0  0.68966  0.00735  0.21662  1.0000
  P   P50       1.0  0.72041  0.24013  0.35538  1.0000
  H   H1204     1.0  0.70343  0.16840  0.05152  1.0000
  H   H1205     1.0  0.51542  0.21516  0.28172  1.0000
  H   H1206     1.0  0.71806  0.02204  0.33287  1.0000
  C   C1516     1.0  0.67608  0.10287  0.16640  1.0000
  C   C1517     1.0  0.69591  0.02714  0.14270  1.0000
  C   C1518     1.0  0.71224  0.04132  0.13444  1.0000
  C   C1519     1.0  0.65905  0.07648  0.04054  1.0000
  C   C1520     1.0  0.70304  0.06158  0.17092  1.0000
  C   C1521     1.0  0.68628  0.04762  0.17814  1.0000
  C   C1522     1.0  0.68309  0.03019  0.16488  1.0000
  P   P51       1.0  0.66917  0.05165  0.20512  1.0000
  C   C1523     1.0  0.64716  0.03964  0.18768  1.0000
  C   C1524     1.0  0.67189  0.04506  0.25012  1.0000
  C   C1525     1.0  0.65955  0.02907  0.26648  1.0000
  C   C1526     1.0  0.66100  0.02510  0.30223  1.0000
  C   C1527     1.0  0.67516  0.03660  0.32154  1.0000
  C   C1528     1.0  0.68796  0.05211  0.30508  1.0000
  C   C1529     1.0  0.68644  0.05627  0.26942  1.0000
  C   C1530     1.0  0.64541  0.03509  0.15189  1.0000
  C   C1531     1.0  0.62853  0.02515  0.13871  1.0000
  C   C1532     1.0  0.58506  0.23281  0.37770  1.0000
  H   H1207     1.0  0.56809  0.19941  0.24434  1.0000
  C   C1533     1.0  0.63151  0.03556  0.20914  1.0000
  C   C1534     1.0  0.67161  0.07542  0.20233  1.0000
  C   C1535     1.0  0.67420  0.08446  0.16917  1.0000
  Fe  Fe108     1.0  0.71883  0.11166  0.36718  1.0000
  H   H1208     1.0  0.50895  0.14547  0.31567  1.0000
  C   C1536     1.0  0.72310  0.12035  0.20707  1.0000
  C   C1537     1.0  0.67007  0.08482  0.23264  1.0000
  H   H1209     1.0  0.69302  0.01389  0.13118  1.0000
  C   C1538     1.0  0.54046  0.23417  0.30101  1.0000
  H   H1210     1.0  0.64371  0.16453  0.46111  1.0000
  H   H1211     1.0  0.70613  0.07501  0.18164  1.0000
  H   H1212     1.0  0.67050  0.01904  0.17082  1.0000
  H   H1213     1.0  0.64866  0.01975  0.25204  1.0000
  H   H1214     1.0  0.65096  0.01325  0.31521  1.0000
  H   H1215     1.0  0.67621  0.03355  0.34932  1.0000
  H   H1216     1.0  0.69893  0.06100  0.32022  1.0000
  H   H1217     1.0  0.69640  0.06849  0.25717  1.0000
  H   H1218     1.0  0.65704  0.03920  0.13399  1.0000
  H   H1219     1.0  0.71984  0.12628  0.18330  1.0000
  C   C1539     1.0  0.64135  0.07162  0.09532  1.0000
  H   H1220     1.0  0.62743  0.02125  0.11130  1.0000
  H   H1221     1.0  0.63238  0.03990  0.23621  1.0000
  H   H1222     1.0  0.67482  0.07722  0.14554  1.0000
  C   C1540     1.0  0.67247  0.22133  0.41190  1.0000
  C   C1541     1.0  0.51521  0.12786  0.04602  1.0000
  H   H1223     1.0  0.47974  0.20338  0.29728  1.0000
  H   H1224     1.0  0.66744  0.07812  0.25854  1.0000
  H   H1225     1.0  0.69679  0.21553  0.40988  1.0000
  H   H1226     1.0  0.58425  0.19599  0.43021  1.0000
  H   H1227     1.0  0.50447  0.23403  0.48657  1.0000
  H   H1228     1.0  0.50943  0.13611  0.06102  1.0000
  H   H1229     1.0  0.66792  0.09182  0.08724  1.0000
  C   C1542     1.0  0.53379  0.13192  0.04646  1.0000
  H   H1230     1.0  0.70276  0.00839  0.38838  1.0000
  H   H1231     1.0  0.67133  0.11052  0.25346  1.0000
  C   C1543     1.0  0.55081  0.23786  0.44074  1.0000
  C   C1544     1.0  0.57889  0.19710  0.45618  1.0000
  C   C1545     1.0  0.56046  0.22323  0.24445  1.0000
  H   H1232     1.0  0.54212  0.14311  0.06189  1.0000
  C   C1546     1.0  0.69550  0.01037  0.24224  1.0000
  H   H1233     1.0  0.72458  0.22234  0.04616  1.0000
  H   H1234     1.0  0.56092  0.23169  0.48940  1.0000
  C   C1547     1.0  0.72175  0.11682  0.27170  1.0000
  H   H1235     1.0  0.51373  0.23074  0.01916  1.0000
  C   C1548     1.0  0.68428  0.13816  0.48670  1.0000
  H   H1236     1.0  0.60457  0.20356  0.48126  1.0000
  H   H1237     1.0  0.67994  0.18601  0.99585  1.0000
  S   S218      1.0  0.68622  0.11643  0.48327  1.0000
  H   H1238     1.0  0.63372  0.13303  0.48669  1.0000
  H   H1239     1.0  0.61480  0.05093  0.09494  1.0000
  H   H1240     1.0  0.57620  0.20237  0.18053  1.0000
  H   H1241     1.0  0.70980  0.13309  0.24218  1.0000
  C   C1549     1.0  0.57035  0.22777  0.35554  1.0000
  H   H1242     1.0  0.61753  0.04345  0.03275  1.0000
  H   H1243     1.0  0.54640  0.22391  0.43225  1.0000
  C   C1550     1.0  0.52208  0.22823  0.29341  1.0000
  C   C1551     1.0  0.54781  0.14996  0.48758  1.0000
  C   C1552     1.0  0.64481  0.06292  0.02468  1.0000
  H   H1244     1.0  0.47945  0.21681  0.23704  1.0000
  P   P52       1.0  0.55363  0.22025  0.29069  1.0000
  H   H1245     1.0  0.59292  0.23094  0.27659  1.0000
  C   C1553     1.0  0.63189  0.15951  0.47863  1.0000
  C   C1554     1.0  0.59042  0.20131  0.48506  1.0000
  H   H1246     1.0  0.54770  0.15370  0.45984  1.0000
  H   H1247     1.0  0.49177  0.10194  0.09538  1.0000
  C   C1555     1.0  0.69804  0.23719  0.37206  1.0000
  Fe  Fe109     1.0  0.48671  0.18224  0.37196  1.0000
  C   C1556     1.0  0.60522  0.23657  0.32693  1.0000
  C   C1557     1.0  0.71968  0.18206  0.33439  1.0000
  H   H1248     1.0  0.49775  0.23429  0.29625  1.0000
  H   H1249     1.0  0.58161  0.18295  0.00625  1.0000
  H   H1250     1.0  0.72379  0.23240  0.27973  1.0000
  H   H1251     1.0  0.72654  0.04534  0.28386  1.0000
  H   H1252     1.0  0.57424  0.14898  0.48350  1.0000
  H   H1253     1.0  0.69568  0.99117  0.32389  1.0000
  H   H1254     1.0  0.71517  0.15504  0.00262  1.0000
  H   H1255     1.0  0.57307  0.22760  0.14387  1.0000
  C   C1558     1.0  0.56969  0.22647  0.17194  1.0000
  C   C1559     1.0  0.57714  0.23377  0.00794  1.0000
  C   C1560     1.0  0.60250  0.23724  0.36341  1.0000
  C   C1561     1.0  0.59440  0.23324  0.00316  1.0000
  C   C1562     1.0  0.62273  0.17103  0.48779  1.0000
  C   C1563     1.0  0.48021  0.10598  0.09864  1.0000
  C   C1564     1.0  0.56333  0.23907  0.18740  1.0000
  H   H1256     1.0  0.64652  0.02551  0.01247  1.0000
  Fe  Fe110     1.0  0.47935  0.17976  0.45217  1.0000
  S   S219      1.0  0.67521  0.19275  0.49286  1.0000
  H   H1257     1.0  0.72865  0.06936  0.14263  1.0000
  H   H1258     1.0  0.61876  0.24006  0.31588  1.0000
  C   C1565     1.0  0.54254  0.23961  0.06552  1.0000
  S   S220      1.0  0.66789  0.23797  0.99830  1.0000
  C   C1566     1.0  0.62619  0.14170  0.49300  1.0000
  C   C1567     1.0  0.67712  0.13134  0.99579  1.0000
  Fe  Fe111     1.0  0.65307  0.20705  0.61502  1.0000
  S   S221      1.0  0.63712  0.18785  0.57395  1.0000
  S   S222      1.0  0.65540  0.19451  0.66904  1.0000
  H   H1259     1.0  0.53358  0.20558  0.62010  1.0000
  H   H1260     1.0  0.59740  0.00659  0.92675  1.0000
  H   H1261     1.0  0.56678  0.21975  0.62525  1.0000
  Fe  Fe112     1.0  0.62680  0.21029  0.55943  1.0000
  S   S223      1.0  0.59718  0.20697  0.55637  1.0000
  Fe  Fe113     1.0  0.66050  0.20223  0.53619  1.0000
  C   C1568     1.0  0.53260  0.22391  0.57760  1.0000
  H   H1262     1.0  0.61522  0.03929  0.93254  1.0000
  S   S224      1.0  0.67714  0.21976  0.57814  1.0000
  Fe  Fe114     1.0  0.64581  0.21146  0.87690  1.0000
  S   S225      1.0  0.62423  0.18404  0.88906  1.0000
  S   S226      1.0  0.65501  0.22635  0.82307  1.0000
  Fe  Fe115     1.0  0.65221  0.21916  0.95584  1.0000
  S   S227      1.0  0.63090  0.19219  0.97380  1.0000
  H   H1263     1.0  0.54843  0.19632  0.93080  1.0000
  Fe  Fe116     1.0  0.64292  0.18051  0.93052  1.0000
  S   S228      1.0  0.64984  0.15469  0.93324  1.0000
  Fe  Fe117     1.0  0.61384  0.19786  0.93152  1.0000
  S   S229      1.0  0.58435  0.19610  0.93219  1.0000
  S   S230      1.0  0.66525  0.20713  0.91528  1.0000
  S   S231      1.0  0.63444  0.22566  0.91686  1.0000
  H   H1264     1.0  0.62232  0.15819  0.65691  1.0000
  C   C1569     1.0  0.56679  0.19009  0.96531  1.0000
  H   H1265     1.0  0.60938  0.13878  0.60642  1.0000
  C   C1570     1.0  0.67414  0.14118  0.51513  1.0000
  H   H1266     1.0  0.71743  0.24033  0.97538  1.0000
  S   S232      1.0  0.64869  0.22302  0.51813  1.0000
  C   C1571     1.0  0.65887  0.14769  0.97089  1.0000
  C   C1572     1.0  0.63784  0.07405  0.91648  1.0000
  C   C1573     1.0  0.48730  0.15272  0.95707  1.0000
  C   C1574     1.0  0.61851  0.02940  0.94841  1.0000
  C   C1575     1.0  0.50879  0.22110  0.96661  1.0000
  C   C1576     1.0  0.69396  0.05565  0.94398  1.0000
  H   H1267     1.0  0.67186  0.13287  0.94030  1.0000
  C   C1577     1.0  0.56337  0.14311  0.53740  1.0000
  C   C1578     1.0  0.71997  0.22006  0.93987  1.0000
  C   C1579     1.0  0.61145  0.16007  0.64250  1.0000
  H   H1268     1.0  0.71352  0.14104  0.54134  1.0000
  H   H1269     1.0  0.55968  0.20036  0.54939  1.0000
  C   C1580     1.0  0.65432  0.20344  0.71150  1.0000
  C   C1581     1.0  0.65203  0.19195  0.74176  1.0000
  C   C1582     1.0  0.65170  0.19857  0.77603  1.0000
  C   C1583     1.0  0.65400  0.21691  0.78048  1.0000
  Fe  Fe118     1.0  0.66425  0.23969  0.56199  1.0000
  C   C1584     1.0  0.65636  0.22171  0.71591  1.0000
  H   H1270     1.0  0.65048  0.17780  0.73870  1.0000
  H   H1271     1.0  0.64992  0.18955  0.79900  1.0000
  C   C1585     1.0  0.67941  0.08278  0.95302  1.0000
  C   C1586     1.0  0.57025  0.10279  0.53586  1.0000
  C   C1587     1.0  0.60156  0.14664  0.52474  1.0000
  P   P53       1.0  0.64582  0.05882  0.97811  1.0000
  H   H1272     1.0  0.62630  0.11173  0.96453  1.0000
  C   C1588     1.0  0.63358  0.08723  0.89698  1.0000
  H   H1273     1.0  0.66802  0.13036  0.53484  1.0000
  H   H1274     1.0  0.63404  0.08729  0.86836  1.0000
  C   C1589     1.0  0.56997  0.23997  0.58373  1.0000
  C   C1590     1.0  0.56296  0.14746  0.50128  1.0000
  H   H1275     1.0  0.51815  0.21765  0.57493  1.0000
  C   C1591     1.0  0.62905  0.10089  0.95121  1.0000
  H   H1276     1.0  0.58816  0.18875  0.63769  1.0000
  C   C1592     1.0  0.60556  0.17420  0.65136  1.0000
  H   H1277     1.0  0.69405  0.16060  0.63469  1.0000
  C   C1593     1.0  0.69812  0.18936  0.95111  1.0000
  H   H1278     1.0  0.52354  0.18923  0.97621  1.0000
  C   C1594     1.0  0.66945  0.13686  0.96651  1.0000
  H   H1279     1.0  0.61183  0.18311  0.67263  1.0000
  C   C1595     1.0  0.53855  0.23782  0.98855  1.0000
  C   C1596     1.0  0.56513  0.19957  0.52335  1.0000
  C   C1597     1.0  0.60769  0.16466  0.51096  1.0000
  H   H1280     1.0  0.49431  0.21505  0.97118  1.0000
  C   C1598     1.0  0.55025  0.19177  0.95715  1.0000
  C   C1599     1.0  0.54810  0.14060  0.55918  1.0000
  C   C1600     1.0  0.59048  0.15204  0.59439  1.0000
  H   H1281     1.0  0.50789  0.21329  0.91238  1.0000
  H   H1282     1.0  0.69594  0.22650  0.65807  1.0000
  C   C1601     1.0  0.59219  0.17732  0.63181  1.0000
  C   C1602     1.0  0.58471  0.16633  0.60337  1.0000
  C   C1603     1.0  0.63264  0.03492  0.97223  1.0000
  H   H1283     1.0  0.66352  0.15998  0.53966  1.0000
  C   C1604     1.0  0.60407  0.14912  0.61394  1.0000
  C   C1605     1.0  0.70797  0.22810  0.82474  1.0000
  H   H1284     1.0  0.72638  0.19672  0.52845  1.0000
  H   H1285     1.0  0.54795  0.13674  0.58687  1.0000
  H   H1286     1.0  0.54103  0.22756  0.90199  1.0000
  C   C1606     1.0  0.55364  0.19551  0.49447  1.0000
  C   C1607     1.0  0.61186  0.99766  0.96597  1.0000
  H   H1287     1.0  0.57508  0.16968  0.58757  1.0000
  H   H1288     1.0  0.62661  0.11134  0.89933  1.0000
  H   H1289     1.0  0.69212  0.17522  0.94376  1.0000
  C   C1608     1.0  0.69513  0.18126  0.59540  1.0000
  C   C1609     1.0  0.70436  0.19140  0.56554  1.0000
  H   H1290     1.0  0.57120  0.10820  0.50897  1.0000
  H   H1291     1.0  0.68305  0.18305  0.60561  1.0000
  H   H1292     1.0  0.69941  0.20092  0.55227  1.0000
  C   C1610     1.0  0.62931  0.10072  0.91435  1.0000
  C   C1611     1.0  0.67159  0.15796  0.51797  1.0000
  C   C1612     1.0  0.71342  0.23001  0.85975  1.0000
  C   C1613     1.0  0.57318  0.10731  0.59887  1.0000
  H   H1293     1.0  0.57615  0.11608  0.62131  1.0000
  C   C1614     1.0  0.70439  0.07387  0.93543  1.0000
  C   C1615     1.0  0.56732  0.08838  0.60494  1.0000
  H   H1294     1.0  0.71619  0.22810  0.77026  1.0000
  H   H1295     1.0  0.53948  0.19321  0.49838  1.0000
  C   C1616     1.0  0.53301  0.14322  0.54540  1.0000
  H   H1296     1.0  0.56611  0.08278  0.63172  1.0000
  C   C1617     1.0  0.66880  0.06447  0.96175  1.0000
  C   C1618     1.0  0.60823  0.01082  0.94524  1.0000
  C   C1619     1.0  0.63751  0.07405  0.95359  1.0000
  P   P54       1.0  0.58246  0.13901  0.55548  1.0000
  C   C1620     1.0  0.53291  0.14802  0.50965  1.0000
  C   C1621     1.0  0.72482  0.13659  0.54446  1.0000
  C   C1622     1.0  0.58352  0.20237  0.51887  1.0000
  C   C1623     1.0  0.63311  0.08763  0.97082  1.0000
  H   H1297     1.0  0.69983  0.04522  0.94177  1.0000
  C   C1624     1.0  0.54610  0.23722  0.95494  1.0000
  C   C1625     1.0  0.70132  0.16859  0.61173  1.0000
  C   C1626     1.0  0.65639  0.22843  0.75021  1.0000
  H   H1298     1.0  0.55851  0.06201  0.58126  1.0000
  C   C1627     1.0  0.69706  0.08741  0.93965  1.0000
  H   H1299     1.0  0.69397  0.22556  0.81887  1.0000
  H   H1300     1.0  0.71937  0.23202  0.61076  1.0000
  C   C1628     1.0  0.54127  0.21715  0.60302  1.0000
  H   H1301     1.0  0.64191  0.06418  0.90264  1.0000
  C   C1629     1.0  0.56300  0.07667  0.57653  1.0000
  C   C1630     1.0  0.71088  0.23748  0.51035  1.0000
  H   H1302     1.0  0.71723  0.19691  0.90746  1.0000
  H   H1303     1.0  0.60099  0.17386  0.51866  1.0000
  H   H1304     1.0  0.52138  0.14158  0.56241  1.0000
  C   C1631     1.0  0.57500  0.11466  0.56419  1.0000
  S   S233      1.0  0.64155  0.22862  0.60259  1.0000
  C   C1632     1.0  0.62569  0.00305  0.99010  1.0000
  H   H1305     1.0  0.65813  0.23073  0.69294  1.0000
  H   H1306     1.0  0.70525  0.10158  0.93348  1.0000
  C   C1633     1.0  0.71970  0.18891  0.55190  1.0000
  H   H1307     1.0  0.67413  0.09356  0.95674  1.0000
  H   H1308     1.0  0.48368  0.19441  0.58353  1.0000
  C   C1634     1.0  0.69829  0.21374  0.98908  1.0000
  C   C1635     1.0  0.71232  0.20168  0.93064  1.0000
  C   C1636     1.0  0.56438  0.08387  0.54201  1.0000
  H   H1309     1.0  0.66873  0.03677  0.96402  1.0000
  C   C1637     1.0  0.72050  0.22955  0.79736  1.0000
  C   C1638     1.0  0.67625  0.05093  0.95710  1.0000
  C   C1639     1.0  0.71674  0.16608  0.59819  1.0000
  C   C1640     1.0  0.51643  0.22020  0.93349  1.0000
  H   H1310     1.0  0.60728  0.12162  0.52762  1.0000
  H   H1311     1.0  0.72137  0.15618  0.61102  1.0000
  C   C1641     1.0  0.55995  0.22517  0.60606  1.0000
  H   H1312     1.0  0.70834  0.10836  0.53778  1.0000
  H   H1313     1.0  0.70350  0.22899  0.88054  1.0000
  C   C1642     1.0  0.61112  0.13528  0.51614  1.0000
  C   C1643     1.0  0.49038  0.14103  0.98245  1.0000
  C   C1644     1.0  0.71258  0.22608  0.96882  1.0000
  C   C1645     1.0  0.53610  0.18776  0.98281  1.0000
  H   H1314     1.0  0.71687  0.17647  0.85452  1.0000
  C   C1646     1.0  0.72601  0.17621  0.56807  1.0000
  H   H1315     1.0  0.52135  0.15033  0.49895  1.0000
  H   H1316     1.0  0.72392  0.18718  0.79202  1.0000
  H   H1317     1.0  0.49827  0.16502  0.94808  1.0000
  H   H1318     1.0  0.56092  0.07479  0.51999  1.0000
  H   H1319     1.0  0.68539  0.12319  0.99205  1.0000
  C   C1647     1.0  0.69120  0.19539  0.98044  1.0000
  H   H1320     1.0  0.71828  0.07753  0.92632  1.0000
  C   C1648     1.0  0.72180  0.11798  0.54227  1.0000
  C   C1649     1.0  0.53508  0.22828  0.92765  1.0000
  C   C1650     1.0  0.54258  0.23869  0.55526  1.0000
  H   H1321     1.0  0.53694  0.09985  0.99067  1.0000
  C   C1651     1.0  0.63593  0.02158  0.99342  1.0000
  C   C1652     1.0  0.70557  0.24023  0.65247  1.0000
  H   H1322     1.0  0.50413  0.09238  0.98989  1.0000
  H   H1323     1.0  0.50381  0.14463  0.99246  1.0000
  H   H1324     1.0  0.69694  0.23516  0.50488  1.0000
  Fe  Fe119     1.0  0.65203  0.46455  0.41148  1.0000
  S   S234      1.0  0.63185  0.46330  0.45460  1.0000
  S   S235      1.0  0.67439  0.45377  0.42128  1.0000
  S   S236      1.0  0.61093  0.48060  0.04973  1.0000
  C   C1653     1.0  0.60650  0.39817  0.46124  1.0000
  C   C1654     1.0  0.71689  0.39245  0.43111  1.0000
  Fe  Fe120     1.0  0.61090  0.45225  0.41393  1.0000
  S   S237      1.0  0.58582  0.42568  0.41995  1.0000
  S   S238      1.0  0.63113  0.45172  0.37144  1.0000
  H   H1325     1.0  0.62546  0.31147  0.99719  1.0000
  C   C1655     1.0  0.52863  0.46367  0.38538  1.0000
  S   S239      1.0  0.62135  0.46319  0.14533  1.0000
  H   H1326     1.0  0.56503  0.40108  0.25898  1.0000
  H   H1327     1.0  0.58899  0.27805  0.03178  1.0000
  H   H1328     1.0  0.56611  0.44706  0.45011  1.0000
  Fe  Fe121     1.0  0.62047  0.46327  0.01373  1.0000
  H   H1329     1.0  0.71540  0.45269  0.37636  1.0000
  S   S240      1.0  0.63832  0.45833  0.05493  1.0000
  C   C1656     1.0  0.66977  0.44048  0.99617  1.0000
  H   H1330     1.0  0.52276  0.34061  0.03859  1.0000
  H   H1331     1.0  0.54852  0.37319  0.22639  1.0000
  C   C1657     1.0  0.56527  0.45141  0.06567  1.0000
  C   C1658     1.0  0.71387  0.40855  0.02484  1.0000
  H   H1332     1.0  0.58360  0.43707  0.06148  1.0000
  C   C1659     1.0  0.72779  0.25039  0.04599  1.0000
  H   H1333     1.0  0.51027  0.28426  0.43128  1.0000
  C   C1660     1.0  0.51027  0.28509  0.48822  1.0000
  H   H1334     1.0  0.51208  0.26384  0.32472  1.0000
  C   C1661     1.0  0.70817  0.28967  0.44564  1.0000
  C   C1662     1.0  0.62723  0.47212  0.18803  1.0000
  H   H1335     1.0  0.68350  0.36775  0.05665  1.0000
  H   H1336     1.0  0.55368  0.24729  0.23494  1.0000
  C   C1663     1.0  0.71636  0.38300  0.46315  1.0000
  H   H1337     1.0  0.59243  0.24387  0.49118  1.0000
  H   H1338     1.0  0.68293  0.48382  0.16035  1.0000
  C   C1664     1.0  0.54348  0.35114  0.07682  1.0000
  H   H1339     1.0  0.70909  0.38516  0.40943  1.0000
  C   C1665     1.0  0.60956  0.24873  0.00891  1.0000
  H   H1340     1.0  0.58347  0.43114  0.16079  1.0000
  H   H1341     1.0  0.70730  0.45083  0.44552  1.0000
  C   C1666     1.0  0.54927  0.45172  0.08090  1.0000
  C   C1667     1.0  0.69218  0.46867  0.44502  1.0000
  H   H1342     1.0  0.51660  0.40474  0.47226  1.0000
  H   H1343     1.0  0.52747  0.39087  0.36744  1.0000
  C   C1668     1.0  0.55438  0.36665  0.09410  1.0000
  H   H1344     1.0  0.59692  0.45288  0.31335  1.0000
  H   H1345     1.0  0.71290  0.29574  0.03380  1.0000
  H   H1346     1.0  0.56297  0.25674  0.32040  1.0000
  H   H1347     1.0  0.55789  0.39015  0.42406  1.0000
  C   C1669     1.0  0.62664  0.46629  0.25216  1.0000
  H   H1348     1.0  0.54473  0.33804  0.08201  1.0000
  C   C1670     1.0  0.63573  0.41997  0.47549  1.0000
  H   H1349     1.0  0.53676  0.41238  0.13076  1.0000
  H   H1350     1.0  0.66990  0.32130  0.06523  1.0000
  C   C1671     1.0  0.69523  0.27207  0.45059  1.0000
  H   H1351     1.0  0.60444  0.41715  0.13814  1.0000
  H   H1352     1.0  0.69171  0.26310  0.42863  1.0000
  C   C1672     1.0  0.53183  0.24664  0.08628  1.0000
  C   C1673     1.0  0.55906  0.24232  0.47316  1.0000
  H   H1353     1.0  0.61388  0.24116  0.38066  1.0000
  C   C1674     1.0  0.70701  0.46386  0.45312  1.0000
  C   C1675     1.0  0.55281  0.26909  0.43148  1.0000
  C   C1676     1.0  0.50809  0.47764  0.40822  1.0000
  C   C1677     1.0  0.53827  0.43302  0.40240  1.0000
  C   C1678     1.0  0.71155  0.37855  0.06926  1.0000
  H   H1354     1.0  0.61919  0.27681  0.02402  1.0000
  C   C1679     1.0  0.56969  0.46171  0.44918  1.0000
  H   H1355     1.0  0.62337  0.45673  0.27453  1.0000
  H   H1356     1.0  0.56374  0.31191  0.07024  1.0000
  C   C1680     1.0  0.53688  0.41970  0.37737  1.0000
  C   C1681     1.0  0.53056  0.42750  0.43644  1.0000
  C   C1682     1.0  0.49998  0.27145  0.02071  1.0000
  H   H1357     1.0  0.53754  0.37151  0.47274  1.0000
  H   H1358     1.0  0.68085  0.39771  0.29802  1.0000
  Fe  Fe122     1.0  0.62988  0.47665  0.09006  1.0000
  Fe  Fe123     1.0  0.63382  0.48048  0.35637  1.0000
  C   C1683     1.0  0.57118  0.43705  0.07380  1.0000
  C   C1684     1.0  0.57220  0.41265  0.45654  1.0000
  C   C1685     1.0  0.65708  0.28034  0.02563  1.0000
  C   C1686     1.0  0.62302  0.45990  0.21757  1.0000
  H   H1359     1.0  0.58230  0.43003  0.22587  1.0000
  H   H1360     1.0  0.52662  0.43786  0.11618  1.0000
  C   C1687     1.0  0.58192  0.47214  0.47338  1.0000
  C   C1688     1.0  0.60745  0.26481  0.01940  1.0000
  C   C1689     1.0  0.57375  0.41904  0.49100  1.0000
  H   H1361     1.0  0.48521  0.27703  0.37798  1.0000
  H   H1362     1.0  0.71390  0.24768  0.03936  1.0000
  C   C1690     1.0  0.70661  0.41577  0.36858  1.0000
  H   H1363     1.0  0.66555  0.41628  0.39506  1.0000
  C   C1691     1.0  0.67563  0.41373  0.37854  1.0000
  C   C1692     1.0  0.67122  0.40649  0.34519  1.0000
  C   C1693     1.0  0.68432  0.40347  0.32378  1.0000
  C   C1694     1.0  0.70193  0.40802  0.33541  1.0000
  H   H1364     1.0  0.66357  0.33104  0.00618  1.0000
  H   H1365     1.0  0.59562  0.47635  0.26961  1.0000
  S   S241      1.0  0.50400  0.24695  0.41396  1.0000
  C   C1695     1.0  0.69362  0.27008  0.01728  1.0000
  H   H1366     1.0  0.53128  0.47719  0.43537  1.0000
  C   C1696     1.0  0.70552  0.28826  0.01195  1.0000
  H   H1367     1.0  0.71252  0.44063  0.06807  1.0000
  H   H1368     1.0  0.65767  0.40331  0.33593  1.0000
  C   C1697     1.0  0.52010  0.25581  0.31734  1.0000
  H   H1369     1.0  0.56443  0.28742  0.47270  1.0000
  C   C1698     1.0  0.72671  0.39201  0.49111  1.0000
  C   C1699     1.0  0.50965  0.27659  0.45569  1.0000
  C   C1700     1.0  0.56553  0.40146  0.23032  1.0000
  C   C1701     1.0  0.52827  0.40114  0.38660  1.0000
  H   H1370     1.0  0.59665  0.39163  0.44173  1.0000
  C   C1702     1.0  0.55936  0.30320  0.04788  1.0000
  C   C1703     1.0  0.55935  0.28537  0.04930  1.0000
  H   H1371     1.0  0.51233  0.27698  0.03490  1.0000
  H   H1372     1.0  0.66572  0.28886  0.07797  1.0000
  C   C1704     1.0  0.56157  0.46176  0.34999  1.0000
  C   C1705     1.0  0.56111  0.27362  0.46394  1.0000
  H   H1373     1.0  0.56385  0.28044  0.07291  1.0000
  H   H1374     1.0  0.54478  0.46286  0.07431  1.0000
  C   C1706     1.0  0.55918  0.39531  0.45048  1.0000
  C   C1707     1.0  0.54773  0.25123  0.41985  1.0000
  H   H1375     1.0  0.71777  0.25400  0.42662  1.0000
  C   C1708     1.0  0.56094  0.42284  0.09733  1.0000
  S   S242      1.0  0.71848  0.29673  0.40348  1.0000
  H   H1376     1.0  0.56173  0.24992  0.17123  1.0000
  H   H1377     1.0  0.49389  0.45785  0.32990  1.0000
  H   H1378     1.0  0.69475  0.45024  0.02258  1.0000
  H   H1379     1.0  0.69633  0.42384  0.41620  1.0000
  H   H1380     1.0  0.54232  0.42355  0.35074  1.0000
  S   S243      1.0  0.61212  0.48048  0.39605  1.0000
  C   C1709     1.0  0.52965  0.36949  0.04510  1.0000
  H   H1381     1.0  0.58754  0.46550  0.49274  1.0000
  H   H1382     1.0  0.52893  0.25843  0.07721  1.0000
  C   C1710     1.0  0.69736  0.39392  0.03029  1.0000
  C   C1711     1.0  0.56274  0.47024  0.42337  1.0000
  C   C1712     1.0  0.68686  0.44050  0.00411  1.0000
  C   C1713     1.0  0.55317  0.27383  0.02075  1.0000
  C   C1714     1.0  0.66522  0.31136  0.04484  1.0000
  H   H1383     1.0  0.68529  0.39402  0.01794  1.0000
  H   H1384     1.0  0.67735  0.25218  0.48732  1.0000
  C   C1715     1.0  0.54871  0.25149  0.31531  1.0000
  C   C1716     1.0  0.50739  0.25803  0.45481  1.0000
  C   C1717     1.0  0.53850  0.26214  0.32384  1.0000
  C   C1718     1.0  0.66287  0.29310  0.05204  1.0000
  H   H1385     1.0  0.71904  0.26522  0.12514  1.0000
  H   H1386     1.0  0.51441  0.38140  0.42806  1.0000
  C   C1719     1.0  0.68862  0.24785  0.35852  1.0000
  C   C1720     1.0  0.56115  0.47533  0.32549  1.0000
  C   C1721     1.0  0.72468  0.45029  0.05544  1.0000
  H   H1387     1.0  0.48543  0.47546  0.37605  1.0000
  H   H1388     1.0  0.71076  0.36699  0.08634  1.0000
  C   C1722     1.0  0.52354  0.47328  0.41178  1.0000
  C   C1723     1.0  0.57317  0.48030  0.29624  1.0000
  C   C1724     1.0  0.54487  0.42327  0.11265  1.0000
  C   C1725     1.0  0.53907  0.43765  0.10444  1.0000
  C   C1726     1.0  0.50650  0.24830  0.48666  1.0000
  H   H1389     1.0  0.53118  0.43754  0.45599  1.0000
  H   H1390     1.0  0.71171  0.40538  0.31840  1.0000
  C   C1727     1.0  0.48975  0.25262  0.02354  1.0000
  H   H1391     1.0  0.56437  0.36550  0.11204  1.0000
  C   C1728     1.0  0.69182  0.48547  0.45548  1.0000
  C   C1729     1.0  0.58662  0.45879  0.31619  1.0000
  C   C1730     1.0  0.49748  0.47219  0.37862  1.0000
  H   H1392     1.0  0.53934  0.39798  0.05538  1.0000
  C   C1731     1.0  0.59019  0.26541  0.02397  1.0000
  H   H1393     1.0  0.63412  0.42095  0.11258  1.0000
  H   H1394     1.0  0.59389  0.30962  0.99544  1.0000
  C   C1732     1.0  0.52205  0.40895  0.44561  1.0000
  H   H1395     1.0  0.69361  0.40991  0.48590  1.0000
  H   H1396     1.0  0.57300  0.46227  0.04720  1.0000
  C   C1733     1.0  0.67124  0.24518  0.37154  1.0000
  H   H1397     1.0  0.61691  0.44538  0.21364  1.0000
  C   C1734     1.0  0.54038  0.38497  0.06256  1.0000
  C   C1735     1.0  0.55258  0.38362  0.08786  1.0000
  C   C1736     1.0  0.58593  0.47207  0.29165  1.0000
  P   P55       1.0  0.56776  0.40386  0.10813  1.0000
  C   C1737     1.0  0.59004  0.40742  0.09012  1.0000
  H   H1398     1.0  0.54075  0.24757  0.39531  1.0000
  C   C1738     1.0  0.50227  0.46230  0.35259  1.0000
  H   H1399     1.0  0.70822  0.36858  0.46604  1.0000
  C   C1739     1.0  0.57484  0.24987  0.01827  1.0000
  C   C1740     1.0  0.63420  0.48506  0.25772  1.0000
  C   C1741     1.0  0.72617  0.25433  0.31533  1.0000
  C   C1742     1.0  0.59208  0.40352  0.05465  1.0000
  C   C1743     1.0  0.60906  0.40559  0.04034  1.0000
  C   C1744     1.0  0.62418  0.41162  0.06129  1.0000
  C   C1745     1.0  0.62232  0.41564  0.09659  1.0000
  C   C1746     1.0  0.60535  0.41359  0.11099  1.0000
  C   C1747     1.0  0.56702  0.40247  0.15599  1.0000
  C   C1748     1.0  0.72171  0.47601  0.47060  1.0000
  C   C1749     1.0  0.62332  0.41089  0.45037  1.0000
  H   H1400     1.0  0.52114  0.45004  0.33595  1.0000
  C   C1750     1.0  0.55691  0.38625  0.17490  1.0000
  C   C1751     1.0  0.57593  0.41830  0.17476  1.0000
  P   P56       1.0  0.54796  0.45708  0.39036  1.0000
  H   H1401     1.0  0.55191  0.48244  0.32932  1.0000
  H   H1402     1.0  0.65540  0.26619  0.03116  1.0000
  H   H1403     1.0  0.54925  0.37405  0.16141  1.0000
  C   C1752     1.0  0.52084  0.39578  0.42067  1.0000
  C   C1753     1.0  0.55629  0.38574  0.21192  1.0000
  C   C1754     1.0  0.69318  0.41815  0.39036  1.0000
  C   C1755     1.0  0.57527  0.41775  0.21172  1.0000
  H   H1404     1.0  0.58058  0.39922  0.03775  1.0000
  H   H1405     1.0  0.61052  0.40321  0.01257  1.0000
  H   H1406     1.0  0.63741  0.41380  0.04985  1.0000
  H   H1407     1.0  0.52039  0.37072  0.02544  1.0000
  H   H1408     1.0  0.57570  0.44390  0.36470  1.0000
  Fe  Fe124     1.0  0.66016  0.48364  0.03349  1.0000
  H   H1409     1.0  0.69467  0.25841  0.33836  1.0000
  C   C1756     1.0  0.57454  0.45371  0.34529  1.0000
  H   H1410     1.0  0.69186  0.26367  0.04339  1.0000
  H   H1411     1.0  0.62648  0.41422  0.42247  1.0000
  C   C1757     1.0  0.69624  0.37898  0.05242  1.0000
  C   C1758     1.0  0.66178  0.31685  0.01122  1.0000
  C   C1759     1.0  0.56431  0.26022  0.48509  1.0000
  C   C1760     1.0  0.54758  0.38469  0.47809  1.0000
  H   H1412     1.0  0.51533  0.24311  0.13393  1.0000
  P   P57       1.0  0.55239  0.25050  0.02333  1.0000
  C   C1761     1.0  0.53109  0.35256  0.05236  1.0000
  H   H1413     1.0  0.54968  0.27925  0.41591  1.0000
  C   C1762     1.0  0.68706  0.26586  0.48396  1.0000
  C   C1763     1.0  0.51774  0.45797  0.35602  1.0000
  C   C1764     1.0  0.71252  0.30131  0.47415  1.0000
  C   C1765     1.0  0.56854  0.48939  0.42160  1.0000
  H   H1414     1.0  0.66420  0.25369  0.36147  1.0000
  C   C1766     1.0  0.49438  0.28309  0.99920  1.0000
  H   H1415     1.0  0.54477  0.27520  0.33596  1.0000
  H   H1416     1.0  0.49408  0.24373  0.04015  1.0000
  H   H1417     1.0  0.64847  0.43018  0.46674  1.0000
  C   C1767     1.0  0.72687  0.24689  0.28217  1.0000
  H   H1418     1.0  0.72473  0.48732  0.01212  1.0000
  H   H1419     1.0  0.50424  0.48509  0.42865  1.0000
  H   H1420     1.0  0.68037  0.48924  0.44966  1.0000
  C   C1768     1.0  0.72799  0.39302  0.06390  1.0000
  C   C1769     1.0  0.55327  0.30966  0.01792  1.0000
  H   H1421     1.0  0.51167  0.29929  0.48867  1.0000
  H   H1422     1.0  0.55267  0.32325  0.01705  1.0000
  S   S244      1.0  0.68935  0.48580  0.03142  1.0000
  H   H1423     1.0  0.62289  0.24817  0.00514  1.0000
  H   H1424     1.0  0.66481  0.45016  0.00840  1.0000
  H   H1425     1.0  0.72213  0.31510  0.47023  1.0000
  C   C1770     1.0  0.72786  0.41100  0.42672  1.0000
  P   P58       1.0  0.71576  0.42819  0.99690  1.0000
  S   S245      1.0  0.50811  0.30642  0.99400  1.0000
  H   H1426     1.0  0.62319  0.24388  0.49263  1.0000
  H   H1427     1.0  0.58385  0.43216  0.49637  1.0000
  H   H1428     1.0  0.54227  0.39574  0.88948  1.0000
  H   H1429     1.0  0.50828  0.25688  0.93847  1.0000
  Fe  Fe125     1.0  0.50079  0.30962  0.56346  1.0000
  S   S246      1.0  0.50071  0.32812  0.51749  1.0000
  S   S247      1.0  0.50927  0.28509  0.56139  1.0000
  Fe  Fe126     1.0  0.51051  0.35100  0.55557  1.0000
  S   S248      1.0  0.53388  0.37897  0.54805  1.0000
  S   S249      1.0  0.51263  0.33251  0.60081  1.0000
  Fe  Fe127     1.0  0.49835  0.32428  0.95834  1.0000
  S   S250      1.0  0.68152  0.26971  0.55503  1.0000
  H   H1430     1.0  0.50627  0.24907  0.54355  1.0000
  Fe  Fe128     1.0  0.49602  0.33756  0.88200  1.0000
  C   C1771     1.0  0.57257  0.28664  0.54196  1.0000
  C   C1772     1.0  0.68356  0.26033  0.98936  1.0000
  Fe  Fe129     1.0  0.50481  0.36444  0.94350  1.0000
  C   C1773     1.0  0.69362  0.42839  0.98763  1.0000
  S   S251      1.0  0.51797  0.34576  0.92226  1.0000
  C   C1774     1.0  0.70736  0.29691  0.97866  1.0000
  C   C1775     1.0  0.69219  0.37018  0.91804  1.0000
  C   C1776     1.0  0.70402  0.29522  0.50752  1.0000
  H   H1431     1.0  0.51282  0.42896  0.77145  1.0000
  S   S252      1.0  0.52009  0.39362  0.96160  1.0000
  C   C1777     1.0  0.54738  0.29839  0.98925  1.0000
  C   C1778     1.0  0.58525  0.30342  0.52915  1.0000
  H   H1432     1.0  0.53570  0.24369  0.53550  1.0000
  H   H1433     1.0  0.71930  0.43535  0.50925  1.0000
  H   H1434     1.0  0.68804  0.40697  0.94978  1.0000
  C   C1779     1.0  0.54955  0.42354  0.97943  1.0000
  H   H1435     1.0  0.48290  0.46472  0.77618  1.0000
  H   H1436     1.0  0.53059  0.42091  0.88908  1.0000
  H   H1437     1.0  0.57239  0.44761  0.99191  1.0000
  P   P59       1.0  0.57420  0.26538  0.52798  1.0000
  H   H1438     1.0  0.56743  0.33245  0.56648  1.0000
  C   C1780     1.0  0.63962  0.39898  0.58926  1.0000
  S   S253      1.0  0.50529  0.33328  0.82588  1.0000
  H   H1439     1.0  0.58470  0.40116  0.96108  1.0000
  H   H1440     1.0  0.51137  0.45970  0.76283  1.0000
  H   H1441     1.0  0.63299  0.42418  0.67225  1.0000
  H   H1442     1.0  0.66033  0.26330  0.83751  1.0000
  H   H1443     1.0  0.72567  0.26508  0.88807  1.0000
  C   C1781     1.0  0.50659  0.33327  0.75288  1.0000
  C   C1782     1.0  0.49953  0.33190  0.71865  1.0000
  C   C1783     1.0  0.64413  0.45093  0.54423  1.0000
  S   S254      1.0  0.48384  0.35767  0.90111  1.0000
  H   H1444     1.0  0.52071  0.33552  0.75575  1.0000
  H   H1445     1.0  0.50820  0.33312  0.69560  1.0000
  C   C1784     1.0  0.54872  0.39132  0.51229  1.0000
  H   H1446     1.0  0.68574  0.29192  0.84910  1.0000
  C   C1785     1.0  0.56202  0.40850  0.51854  1.0000
  H   H1447     1.0  0.72667  0.38458  0.51563  1.0000
  H   H1448     1.0  0.56318  0.41375  0.54490  1.0000
  C   C1786     1.0  0.61922  0.31073  0.97189  1.0000
  C   C1787     1.0  0.69981  0.48641  0.98968  1.0000
  H   H1449     1.0  0.58859  0.38548  0.50552  1.0000
  H   H1450     1.0  0.69877  0.29379  0.92490  1.0000
  S   S255      1.0  0.72185  0.31990  0.97124  1.0000
  H   H1451     1.0  0.63773  0.28771  0.56495  1.0000
  S   S256      1.0  0.64343  0.48739  0.98904  1.0000
  C   C1788     1.0  0.48128  0.32894  0.71432  1.0000
  C   C1789     1.0  0.60199  0.39471  0.49725  1.0000
  P   P60       1.0  0.70944  0.47313  0.67871  1.0000
  C   C1790     1.0  0.65705  0.46689  0.52890  1.0000
  H   H1452     1.0  0.61030  0.40151  0.55013  1.0000
  C   C1791     1.0  0.66206  0.46031  0.73614  1.0000
  H   H1453     1.0  0.64227  0.43379  0.75012  1.0000
  H   H1454     1.0  0.65821  0.24263  0.75331  1.0000
  C   C1792     1.0  0.50791  0.37985  0.70710  1.0000
  C   C1793     1.0  0.55803  0.28667  0.56364  1.0000
  H   H1455     1.0  0.52970  0.36985  0.84946  1.0000
  H   H1456     1.0  0.65778  0.40702  0.93620  1.0000
  C   C1794     1.0  0.68950  0.48710  0.63351  1.0000
  H   H1457     1.0  0.71369  0.45806  0.54710  1.0000
  C   C1795     1.0  0.64017  0.42673  0.61673  1.0000
  P   P61       1.0  0.65180  0.31139  0.94101  1.0000
  S   S257      1.0  0.48639  0.34334  0.98246  1.0000
  H   H1458     1.0  0.67770  0.26163  0.93430  1.0000
  H   H1459     1.0  0.59577  0.30797  0.88219  1.0000
  H   H1460     1.0  0.59626  0.30373  0.51155  1.0000
  P   P62       1.0  0.48649  0.39405  0.79643  1.0000
  H   H1461     1.0  0.63139  0.25548  0.87094  1.0000
  C   C1796     1.0  0.49321  0.37416  0.68501  1.0000
  H   H1462     1.0  0.71916  0.44934  0.93126  1.0000
  C   C1797     1.0  0.64036  0.27979  0.90170  1.0000
  C   C1798     1.0  0.56906  0.31976  0.55997  1.0000
  C   C1799     1.0  0.69732  0.28719  0.95072  1.0000
  C   C1800     1.0  0.70558  0.43392  0.51624  1.0000
  H   H1463     1.0  0.54493  0.30305  0.58894  1.0000
  C   C1801     1.0  0.72678  0.42787  0.95492  1.0000
  H   H1464     1.0  0.62739  0.30986  0.88324  1.0000
  H   H1465     1.0  0.72305  0.43374  0.59122  1.0000
  C   C1802     1.0  0.71880  0.24343  0.62559  1.0000
  C   C1803     1.0  0.62780  0.27848  0.54832  1.0000
  S   S258      1.0  0.60449  0.43764  0.98312  1.0000
  C   C1804     1.0  0.48934  0.38634  0.75280  1.0000
  C   C1805     1.0  0.50146  0.26262  0.91985  1.0000
  C   C1806     1.0  0.50970  0.28069  0.90736  1.0000
  C   C1807     1.0  0.50062  0.28831  0.88447  1.0000
  H   H1466     1.0  0.62772  0.27587  0.91668  1.0000
  C   C1808     1.0  0.63859  0.48422  0.54586  1.0000
  C   C1809     1.0  0.67302  0.28869  0.86354  1.0000
  C   C1810     1.0  0.71650  0.27253  0.66398  1.0000
  C   C1811     1.0  0.52553  0.41004  0.87053  1.0000
  C   C1812     1.0  0.63253  0.26617  0.52805  1.0000
  C   C1813     1.0  0.71679  0.45059  0.62965  1.0000
  H   H1467     1.0  0.52296  0.28893  0.91593  1.0000
  H   H1468     1.0  0.50695  0.30239  0.87488  1.0000
  H   H1469     1.0  0.59319  0.33277  0.52796  1.0000
  H   H1470     1.0  0.61736  0.43931  0.56859  1.0000
  C   C1814     1.0  0.50032  0.43100  0.77745  1.0000
  H   H1471     1.0  0.66889  0.46652  0.51490  1.0000
  H   H1472     1.0  0.51777  0.39071  0.75699  1.0000
  H   H1473     1.0  0.70855  0.45486  0.61180  1.0000
  C   C1815     1.0  0.71930  0.24863  0.53793  1.0000
  P   P63       1.0  0.64724  0.42926  0.54360  1.0000
  H   H1474     1.0  0.64253  0.44119  0.61551  1.0000
  C   C1816     1.0  0.64199  0.41756  0.58631  1.0000
  H   H1475     1.0  0.64127  0.39176  0.56618  1.0000
  H   H1476     1.0  0.64606  0.26594  0.52894  1.0000
  H   H1477     1.0  0.68255  0.45514  0.56338  1.0000
  C   C1817     1.0  0.71768  0.48718  0.98797  1.0000
  C   C1818     1.0  0.50500  0.39537  0.82434  1.0000
  C   C1819     1.0  0.60234  0.30876  0.90724  1.0000
  H   H1478     1.0  0.55212  0.38352  0.95297  1.0000
  C   C1820     1.0  0.66752  0.33442  0.93146  1.0000
  H   H1479     1.0  0.49450  0.36881  0.65933  1.0000
  C   C1821     1.0  0.60129  0.30966  0.97106  1.0000
  C   C1822     1.0  0.63470  0.38950  0.62188  1.0000
  H   H1480     1.0  0.54219  0.27199  0.96833  1.0000
  C   C1823     1.0  0.70642  0.48613  0.64069  1.0000
  C   C1824     1.0  0.59733  0.26645  0.52642  1.0000
  C   C1825     1.0  0.63222  0.39855  0.65176  1.0000
  H   H1481     1.0  0.52065  0.37907  0.69830  1.0000
  Fe  Fe130     1.0  0.48392  0.32855  0.61549  1.0000
  C   C1826     1.0  0.49559  0.33180  0.78333  1.0000
  C   C1827     1.0  0.68049  0.44135  0.70002  1.0000
  C   C1828     1.0  0.61437  0.40386  0.52245  1.0000
  C   C1829     1.0  0.68473  0.44523  0.54623  1.0000
  H   H1482     1.0  0.63260  0.37508  0.62388  1.0000
  C   C1830     1.0  0.55638  0.30316  0.57270  1.0000
  C   C1831     1.0  0.72395  0.48804  0.71049  1.0000
  C   C1832     1.0  0.66588  0.41628  0.95528  1.0000
  H   H1483     1.0  0.65001  0.27574  0.97150  1.0000
  C   C1833     1.0  0.55643  0.39741  0.96176  1.0000
  C   C1834     1.0  0.48349  0.45123  0.77997  1.0000
  C   C1835     1.0  0.65927  0.42840  0.97186  1.0000
  C   C1836     1.0  0.56134  0.24685  0.55815  1.0000
  C   C1837     1.0  0.54359  0.40542  0.96810  1.0000
  C   C1838     1.0  0.64240  0.26812  0.87600  1.0000
  C   C1839     1.0  0.50898  0.27517  0.52002  1.0000
  C   C1840     1.0  0.65873  0.27252  0.85705  1.0000
  C   C1841     1.0  0.72651  0.44023  0.92769  1.0000
  H   H1484     1.0  0.54766  0.27406  0.57304  1.0000
  C   C1842     1.0  0.66207  0.34747  0.91402  1.0000
  C   C1843     1.0  0.67096  0.30057  0.88880  1.0000
  C   C1844     1.0  0.65456  0.29629  0.90791  1.0000
  C   C1845     1.0  0.65630  0.30415  0.98429  1.0000
  C   C1846     1.0  0.48509  0.41633  0.79021  1.0000
  C   C1847     1.0  0.48314  0.27801  0.87461  1.0000
  C   C1848     1.0  0.57493  0.40747  0.96642  1.0000
  C   C1849     1.0  0.48407  0.25216  0.90962  1.0000
  C   C1850     1.0  0.68302  0.41633  0.96300  1.0000
  H   H1485     1.0  0.67014  0.37527  0.89377  1.0000
  C   C1851     1.0  0.58352  0.31989  0.53824  1.0000
  H   H1486     1.0  0.68399  0.48473  0.71910  1.0000
  H   H1487     1.0  0.62805  0.39111  0.67686  1.0000
  C   C1852     1.0  0.69772  0.35726  0.93525  1.0000
  C   C1853     1.0  0.62026  0.30984  0.90795  1.0000
  C   C1854     1.0  0.60218  0.25396  0.50654  1.0000
  C   C1855     1.0  0.70440  0.25477  0.67161  1.0000
  C   C1856     1.0  0.70240  0.44670  0.53777  1.0000
  H   H1488     1.0  0.71169  0.25503  0.55327  1.0000
  H   H1489     1.0  0.68228  0.31293  0.89348  1.0000
  C   C1857     1.0  0.65491  0.44123  0.73605  1.0000
  C   C1858     1.0  0.50609  0.38616  0.74068  1.0000
  C   C1859     1.0  0.49953  0.44840  0.77251  1.0000
  C   C1860     1.0  0.56803  0.43356  0.98423  1.0000
  H   H1490     1.0  0.64839  0.34399  0.90548  1.0000
  H   H1491     1.0  0.71153  0.36094  0.94348  1.0000
  C   C1861     1.0  0.67340  0.41840  0.51072  1.0000
  C   C1862     1.0  0.52500  0.38119  0.84851  1.0000
  C   C1863     1.0  0.51132  0.38086  0.82570  1.0000
  H   H1492     1.0  0.65866  0.41696  0.71815  1.0000
  C   C1864     1.0  0.62798  0.45164  0.55855  1.0000
  H   H1493     1.0  0.69009  0.32957  0.95490  1.0000
  C   C1865     1.0  0.62884  0.31074  0.94031  1.0000
  C   C1866     1.0  0.50739  0.25684  0.51907  1.0000
  H   H1494     1.0  0.65494  0.46765  0.75024  1.0000
  C   C1867     1.0  0.53209  0.39576  0.87095  1.0000
  H   H1495     1.0  0.50545  0.36913  0.80948  1.0000
  H   H1496     1.0  0.70729  0.30432  0.52944  1.0000
  C   C1868     1.0  0.68552  0.26892  0.95592  1.0000
  C   C1869     1.0  0.67008  0.43141  0.53183  1.0000
  C   C1870     1.0  0.71966  0.45734  0.66390  1.0000
  C   C1871     1.0  0.51201  0.40987  0.84735  1.0000
  C   C1872     1.0  0.63501  0.41717  0.64918  1.0000
  H   H1497     1.0  0.68739  0.43370  0.68633  1.0000
  H   H1498     1.0  0.57897  0.30781  0.93816  1.0000
  C   C1873     1.0  0.63149  0.41636  0.51168  1.0000
  H   H1499     1.0  0.54220  0.30332  0.96651  1.0000
  C   C1874     1.0  0.69145  0.27736  0.51264  1.0000
  H   H1500     1.0  0.61281  0.46875  0.57059  1.0000
  H   H1501     1.0  0.69240  0.48641  0.90137  1.0000
  C   C1875     1.0  0.67439  0.36528  0.90735  1.0000
  C   C1876     1.0  0.61024  0.27853  0.54781  1.0000
  C   C1877     1.0  0.58088  0.42557  0.97801  1.0000
  C   C1878     1.0  0.66414  0.43176  0.71805  1.0000
  H   H1502     1.0  0.60669  0.28768  0.56480  1.0000
  H   H1503     1.0  0.70174  0.38396  0.91280  1.0000
  C   C1879     1.0  0.68549  0.33945  0.94178  1.0000
  H   H1504     1.0  0.67692  0.48539  0.95938  1.0000
  C   C1880     1.0  0.69071  0.48610  0.95836  1.0000
  C   C1881     1.0  0.72478  0.43844  0.61804  1.0000
  C   C1882     1.0  0.69950  0.48664  0.92551  1.0000
  H   H1505     1.0  0.50676  0.42078  0.84827  1.0000
  C   C1883     1.0  0.59285  0.30864  0.93878  1.0000
  C   C1884     1.0  0.68784  0.46053  0.70023  1.0000
  H   H1506     1.0  0.70875  0.47292  0.75686  1.0000
  H   H1507     1.0  0.58445  0.24572  0.58622  1.0000
  C   C1885     1.0  0.62532  0.46827  0.55971  1.0000
  C   C1886     1.0  0.54728  0.28055  0.99059  1.0000
  H   H1508     1.0  0.53981  0.42998  0.98417  1.0000
  H   H1509     1.0  0.64610  0.42865  0.96565  1.0000
  H   H1510     1.0  0.67780  0.48019  0.65042  1.0000
  C   C1887     1.0  0.72031  0.48441  0.74704  1.0000
  C   C1888     1.0  0.67849  0.46993  0.71843  1.0000
  C   C1889     1.0  0.69110  0.41972  0.50285  1.0000
  S   S259      1.0  0.48209  0.34835  0.57239  1.0000
  C   C1890     1.0  0.71742  0.48757  0.92381  1.0000
  C   C1891     1.0  0.61970  0.25385  0.50735  1.0000
  C   C1892     1.0  0.65433  0.48350  0.53003  1.0000
  H   H1511     1.0  0.69395  0.25227  0.69205  1.0000
  C   C1893     1.0  0.65403  0.28584  0.99171  1.0000
  H   H1512     1.0  0.71542  0.28382  0.67853  1.0000
  H   H1513     1.0  0.66237  0.40729  0.50009  1.0000
  H   H1514     1.0  0.56047  0.24360  0.94972  1.0000
  C   C1894     1.0  0.72642  0.48767  0.95516  1.0000
  S   S260      1.0  0.72816  0.48844  0.88224  1.0000
  C   C1895     1.0  0.69633  0.50774  0.12703  1.0000
  C   C1896     1.0  0.67993  0.72917  0.47393  1.0000
  H   H1515     1.0  0.70463  0.56190  0.48315  1.0000
  C   C1897     1.0  0.67488  0.69882  0.45316  1.0000
  C   C1898     1.0  0.68862  0.69231  0.35712  1.0000
  Fe  Fe131     1.0  0.63516  0.50442  0.02777  1.0000
  S   S261      1.0  0.63451  0.53258  0.01306  1.0000
  H   H1516     1.0  0.65211  0.55702  0.25696  1.0000
  H   H1517     1.0  0.49178  0.64851  0.05868  1.0000
  C   C1899     1.0  0.70643  0.49757  0.47310  1.0000
  C   C1900     1.0  0.49564  0.65980  0.07650  1.0000
  C   C1901     1.0  0.50143  0.73727  0.10826  1.0000
  C   C1902     1.0  0.66276  0.55877  0.23727  1.0000
  C   C1903     1.0  0.68721  0.55593  0.08667  1.0000
  C   C1904     1.0  0.69822  0.73454  0.46443  1.0000
  H   H1518     1.0  0.58540  0.51459  0.44421  1.0000
  C   C1905     1.0  0.49895  0.67956  0.23892  1.0000
  C   C1906     1.0  0.50380  0.70262  0.19184  1.0000
  C   C1907     1.0  0.53342  0.72544  0.14279  1.0000
  C   C1908     1.0  0.72393  0.55042  0.03209  1.0000
  H   H1519     1.0  0.68334  0.50157  0.21379  1.0000
  C   C1909     1.0  0.71077  0.63079  0.03787  1.0000
  H   H1520     1.0  0.49306  0.70309  0.03405  1.0000
  H   H1521     1.0  0.53472  0.72734  0.08557  1.0000
  H   H1522     1.0  0.48730  0.68448  0.28785  1.0000
  C   C1910     1.0  0.68682  0.66499  0.43006  1.0000
  H   H1523     1.0  0.49689  0.72592  0.20620  1.0000
  H   H1524     1.0  0.64490  0.54200  0.19963  1.0000
  C   C1911     1.0  0.72263  0.71049  0.32513  1.0000
  C   C1912     1.0  0.72573  0.60380  0.04911  1.0000
  C   C1913     1.0  0.72836  0.69591  0.47373  1.0000
  C   C1914     1.0  0.65142  0.53601  0.47928  1.0000
  C   C1915     1.0  0.49764  0.71301  0.21499  1.0000
  H   H1525     1.0  0.52439  0.72573  0.02959  1.0000
  C   C1916     1.0  0.70713  0.70726  0.30561  1.0000
  C   C1917     1.0  0.58742  0.49118  0.47179  1.0000
  C   C1918     1.0  0.69330  0.70401  0.44413  1.0000
  P   P64       1.0  0.70188  0.68834  0.42294  1.0000
  C   C1919     1.0  0.72291  0.68873  0.44048  1.0000
  H   H1526     1.0  0.49880  0.73216  0.38274  1.0000
  C   C1920     1.0  0.54184  0.73193  0.10958  1.0000
  C   C1921     1.0  0.69013  0.69823  0.32164  1.0000
  C   C1922     1.0  0.67406  0.58392  0.09777  1.0000
  H   H1527     1.0  0.68368  0.57517  0.27007  1.0000
  C   C1923     1.0  0.67385  0.55781  0.06541  1.0000
  H   H1528     1.0  0.48620  0.71403  0.26681  1.0000
  C   C1924     1.0  0.66052  0.54645  0.44953  1.0000
  C   C1925     1.0  0.68063  0.65851  0.46458  1.0000
  C   C1926     1.0  0.48301  0.66156  0.10085  1.0000
  C   C1927     1.0  0.51316  0.67273  0.07482  1.0000
  H   H1529     1.0  0.49926  0.66652  0.24816  1.0000
  P   P65       1.0  0.50994  0.71030  0.14625  1.0000
  C   C1928     1.0  0.50502  0.69014  0.12004  1.0000
  H   H1530     1.0  0.57299  0.49092  0.27762  1.0000
  S   S262      1.0  0.63701  0.51260  0.47686  1.0000
  C   C1929     1.0  0.53397  0.72067  0.46738  1.0000
  C   C1930     1.0  0.66826  0.71139  0.46795  1.0000
  C   C1931     1.0  0.51795  0.68770  0.09686  1.0000
  C   C1932     1.0  0.49520  0.72193  0.13165  1.0000
  H   H1531     1.0  0.68412  0.66768  0.48645  1.0000
  H   H1532     1.0  0.69132  0.54479  0.08095  1.0000
  C   C1933     1.0  0.63532  0.49086  0.19348  1.0000
  S   S263      1.0  0.68408  0.59798  0.48614  1.0000
  H   H1533     1.0  0.69645  0.49995  0.10378  1.0000
  C   C1934     1.0  0.68884  0.49863  0.15887  1.0000
  H   H1534     1.0  0.72437  0.60631  0.12033  1.0000
  H   H1535     1.0  0.65639  0.57267  0.05507  1.0000
  C   C1935     1.0  0.69080  0.56284  0.18600  1.0000
  H   H1536     1.0  0.68747  0.60892  0.02010  1.0000
  H   H1537     1.0  0.65953  0.61332  0.44937  1.0000
  H   H1538     1.0  0.67475  0.73870  0.48614  1.0000
  H   H1539     1.0  0.53168  0.69720  0.09517  1.0000
  C   C1936     1.0  0.68321  0.65259  0.40255  1.0000
  C   C1937     1.0  0.66708  0.57161  0.07118  1.0000
  H   H1540     1.0  0.64461  0.51178  0.23217  1.0000
  S   S264      1.0  0.65313  0.50183  0.07127  1.0000
  S   S265      1.0  0.65643  0.49335  0.39369  1.0000
  H   H1541     1.0  0.63860  0.50044  0.17109  1.0000
  C   C1938     1.0  0.69587  0.52774  0.18658  1.0000
  H   H1542     1.0  0.70615  0.51065  0.48048  1.0000
  C   C1939     1.0  0.68057  0.56900  0.24453  1.0000
  S   S266      1.0  0.63750  0.49409  0.30083  1.0000
  C   C1940     1.0  0.68899  0.50864  0.18884  1.0000
  C   C1941     1.0  0.72742  0.59203  0.17598  1.0000
  C   C1942     1.0  0.67064  0.56528  0.45236  1.0000
  S   S267      1.0  0.50109  0.70648  0.43625  1.0000
  H   H1543     1.0  0.65936  0.54015  0.42414  1.0000
  C   C1943     1.0  0.52045  0.71421  0.01258  1.0000
  H   H1544     1.0  0.72534  0.60215  0.19273  1.0000
  C   C1944     1.0  0.49231  0.68970  0.26137  1.0000
  H   H1545     1.0  0.71814  0.67623  0.03662  1.0000
  C   C1945     1.0  0.50258  0.70151  0.01484  1.0000
  C   C1946     1.0  0.69393  0.56765  0.11482  1.0000
  P   P66       1.0  0.70770  0.56273  0.15022  1.0000
  H   H1546     1.0  0.56024  0.73113  0.49061  1.0000
  H   H1547     1.0  0.70757  0.57843  0.22879  1.0000
  H   H1548     1.0  0.70044  0.58528  0.02980  1.0000
  C   C1947     1.0  0.72116  0.70464  0.36065  1.0000
  H   H1549     1.0  0.69170  0.59119  0.14101  1.0000
  C   C1948     1.0  0.54326  0.73159  0.17336  1.0000
  H   H1550     1.0  0.52294  0.67136  0.05583  1.0000
  H   H1551     1.0  0.68860  0.65703  0.37606  1.0000
  H   H1552     1.0  0.66555  0.68513  0.44889  1.0000
  C   C1949     1.0  0.49175  0.70645  0.24947  1.0000
  C   C1950     1.0  0.63869  0.49726  0.22814  1.0000
  H   H1553     1.0  0.66858  0.54468  0.15605  1.0000
  C   C1951     1.0  0.50473  0.68600  0.20431  1.0000
  H   H1554     1.0  0.67719  0.57330  0.42896  1.0000
  C   C1952     1.0  0.68737  0.58203  0.11932  1.0000
  H   H1555     1.0  0.50958  0.67780  0.18717  1.0000
  C   C1953     1.0  0.69445  0.57093  0.21963  1.0000
  C   C1954     1.0  0.72700  0.59467  0.13103  1.0000
  C   C1955     1.0  0.70187  0.53730  0.15374  1.0000
  H   H1556     1.0  0.69587  0.53483  0.21071  1.0000
  H   H1557     1.0  0.71384  0.52281  0.01408  1.0000
  C   C1956     1.0  0.70310  0.52684  0.12472  1.0000
  H   H1558     1.0  0.67061  0.62442  0.38839  1.0000
  C   C1957     1.0  0.65872  0.55037  0.20504  1.0000
  C   C1958     1.0  0.71640  0.53703  0.00739  1.0000
  C   C1959     1.0  0.70828  0.59918  0.03622  1.0000
  H   H1559     1.0  0.70829  0.71190  0.27817  1.0000
  C   C1960     1.0  0.67220  0.57389  0.48502  1.0000
  H   H1560     1.0  0.66880  0.59465  0.10227  1.0000
  H   H1561     1.0  0.70905  0.53313  0.09995  1.0000
  H   H1562     1.0  0.66852  0.54827  0.04466  1.0000
  H   H1563     1.0  0.65407  0.70728  0.47537  1.0000
  C   C1961     1.0  0.67311  0.63406  0.40943  1.0000
  C   C1962     1.0  0.70084  0.61260  0.03071  1.0000
  H   H1564     1.0  0.53935  0.72403  0.44058  1.0000
  C   C1963     1.0  0.67246  0.55220  0.18005  1.0000
  C   C1964     1.0  0.70485  0.72207  0.44922  1.0000
  C   C1965     1.0  0.48766  0.67664  0.12249  1.0000
  C   C1966     1.0  0.70414  0.69523  0.37673  1.0000
  H   H1565     1.0  0.67809  0.69595  0.30665  1.0000
  H   H1566     1.0  0.67536  0.68556  0.36938  1.0000
  C   C1967     1.0  0.51525  0.71196  0.47337  1.0000
  H   H1567     1.0  0.70511  0.64122  0.03279  1.0000
  H   H1568     1.0  0.53729  0.72685  0.19939  1.0000
  C   C1968     1.0  0.66680  0.62778  0.44380  1.0000
  H   H1569     1.0  0.72785  0.54631  0.05660  1.0000
  C   C1969     1.0  0.58074  0.49980  0.44591  1.0000
  H   H1570     1.0  0.64282  0.57093  0.99713  1.0000
  C   C1970     1.0  0.72666  0.56877  0.02434  1.0000
  C   C1971     1.0  0.67056  0.63999  0.47136  1.0000
  H   H1571     1.0  0.71901  0.72646  0.44157  1.0000
  H   H1572     1.0  0.56387  0.49628  0.40107  1.0000
  C   C1972     1.0  0.72149  0.49296  0.48035  1.0000
  Fe  Fe132     1.0  0.63481  0.49160  0.43416  1.0000
  C   C1973     1.0  0.72542  0.68658  0.01682  1.0000
  H   H1573     1.0  0.72028  0.70171  0.48913  1.0000
  H   H1574     1.0  0.72853  0.67351  0.39775  1.0000
  C   C1974     1.0  0.72821  0.63560  0.05034  1.0000
  H   H1575     1.0  0.72239  0.59495  0.48709  1.0000
  H   H1576     1.0  0.59725  0.49928  0.48999  1.0000
  Fe  Fe133     1.0  0.70653  0.65850  0.55206  1.0000
  S   S268      1.0  0.68811  0.63093  0.57368  1.0000
  C   C1975     1.0  0.66742  0.71473  0.56139  1.0000
  H   H1577     1.0  0.67065  0.64353  0.75604  1.0000
  Fe  Fe134     1.0  0.69820  0.61867  0.52801  1.0000
  C   C1976     1.0  0.66232  0.54293  0.96212  1.0000
  C   C1977     1.0  0.72331  0.57370  0.98996  1.0000
  C   C1978     1.0  0.58660  0.73940  0.74507  1.0000
  Fe  Fe135     1.0  0.69686  0.65801  0.91430  1.0000
  S   S269      1.0  0.69188  0.63783  0.87049  1.0000
  S   S270      1.0  0.67436  0.66926  0.92837  1.0000
  C   C1979     1.0  0.70260  0.55394  0.64828  1.0000
  H   H1578     1.0  0.70980  0.69333  0.83960  1.0000
  C   C1980     1.0  0.65307  0.54458  0.51201  1.0000
  Fe  Fe136     1.0  0.70278  0.62120  0.90656  1.0000
  S   S271      1.0  0.69423  0.59002  0.91043  1.0000
  C   C1981     1.0  0.62927  0.60970  0.66209  1.0000
  S   S272      1.0  0.70567  0.63999  0.95171  1.0000
  C   C1982     1.0  0.68659  0.67798  0.65982  1.0000
  S   S273      1.0  0.59252  0.72339  0.90839  1.0000
  H   H1579     1.0  0.67423  0.49729  0.59782  1.0000
  H   H1580     1.0  0.69541  0.71882  0.56957  1.0000
  H   H1581     1.0  0.71680  0.69812  0.73904  1.0000
  C   C1983     1.0  0.62824  0.67904  0.62932  1.0000
  H   H1582     1.0  0.53982  0.73910  0.92311  1.0000
  S   S274      1.0  0.63137  0.70907  0.54631  1.0000
  C   C1984     1.0  0.62570  0.69348  0.64658  1.0000
  C   C1985     1.0  0.72451  0.55348  0.50863  1.0000
  C   C1986     1.0  0.68377  0.69116  0.82092  1.0000
  C   C1987     1.0  0.64327  0.60371  0.65297  1.0000
  C   C1988     1.0  0.65066  0.54831  0.98335  1.0000
  H   H1583     1.0  0.71916  0.70401  0.93743  1.0000
  H   H1584     1.0  0.69204  0.56701  0.84906  1.0000
  H   H1585     1.0  0.71039  0.69154  0.62711  1.0000
  H   H1586     1.0  0.53745  0.69553  0.94740  1.0000
  C   C1989     1.0  0.70210  0.56936  0.66530  1.0000
  C   C1990     1.0  0.66683  0.68831  0.92560  1.0000
  H   H1587     1.0  0.58977  0.73919  0.68812  1.0000
  C   C1991     1.0  0.67692  0.72366  0.71898  1.0000
  C   C1992     1.0  0.65358  0.71783  0.92437  1.0000
  C   C1993     1.0  0.64248  0.70027  0.93642  1.0000
  C   C1994     1.0  0.64908  0.68575  0.93720  1.0000
  C   C1995     1.0  0.53257  0.72130  0.87908  1.0000
  H   H1588     1.0  0.69146  0.70816  0.90356  1.0000
  H   H1589     1.0  0.67149  0.73717  0.63516  1.0000
  C   C1996     1.0  0.50988  0.68473  0.96806  1.0000
  C   C1997     1.0  0.67705  0.57431  0.93838  1.0000
  H   H1590     1.0  0.50589  0.67324  0.95081  1.0000
  S   S275      1.0  0.64627  0.73705  0.92392  1.0000
  C   C1998     1.0  0.68089  0.69119  0.55430  1.0000
  C   C1999     1.0  0.65063  0.70256  0.55127  1.0000
  H   H1591     1.0  0.66405  0.49572  0.51730  1.0000
  C   C2000     1.0  0.63098  0.65378  0.79989  1.0000
  C   C2001     1.0  0.67129  0.72039  0.91243  1.0000
  H   H1592     1.0  0.68352  0.55123  0.92204  1.0000
  C   C2002     1.0  0.71374  0.63253  0.69636  1.0000
  C   C2003     1.0  0.66539  0.57973  0.95962  1.0000
  C   C2004     1.0  0.72609  0.70251  0.96096  1.0000
  H   H1593     1.0  0.62351  0.67604  0.60269  1.0000
  H   H1594     1.0  0.69443  0.57712  0.65448  1.0000
  H   H1595     1.0  0.64035  0.67238  0.94717  1.0000
  H   H1596     1.0  0.66249  0.66510  0.53859  1.0000
  H   H1597     1.0  0.66439  0.56974  0.54017  1.0000
  C   C2005     1.0  0.63720  0.66883  0.64592  1.0000
  H   H1598     1.0  0.65054  0.71237  0.85201  1.0000
  Fe  Fe137     1.0  0.58458  0.73809  0.56594  1.0000
  H   H1599     1.0  0.61934  0.69930  0.87547  1.0000
  C   C2006     1.0  0.64910  0.68461  0.54321  1.0000
  C   C2007     1.0  0.65961  0.64658  0.76802  1.0000
  H   H1600     1.0  0.49419  0.70093  0.51321  1.0000
  S   S276      1.0  0.70061  0.68522  0.55458  1.0000
  S   S277      1.0  0.72139  0.61622  0.55758  1.0000
  C   C2008     1.0  0.50102  0.71051  0.86442  1.0000
  S   S278      1.0  0.71485  0.64648  0.50418  1.0000
  H   H1601     1.0  0.63637  0.49705  0.54606  1.0000
  C   C2009     1.0  0.50852  0.70769  0.50822  1.0000
  H   H1602     1.0  0.47893  0.68462  0.64134  1.0000
  H   H1603     1.0  0.69940  0.60942  0.73111  1.0000
  C   C2010     1.0  0.69018  0.68179  0.72290  1.0000
  H   H1604     1.0  0.72320  0.73489  0.95361  1.0000
  C   C2011     1.0  0.51853  0.71082  0.85820  1.0000
  C   C2012     1.0  0.60783  0.70510  0.82777  1.0000
  H   H1605     1.0  0.68490  0.67937  0.74979  1.0000
  C   C2013     1.0  0.67509  0.55576  0.93918  1.0000
  S   S279      1.0  0.55616  0.72726  0.99045  1.0000
  C   C2014     1.0  0.64978  0.65476  0.74778  1.0000
  C   C2015     1.0  0.71225  0.54196  0.97397  1.0000
  H   H1606     1.0  0.62888  0.69794  0.94583  1.0000
  H   H1607     1.0  0.49020  0.70208  0.84845  1.0000
  C   C2016     1.0  0.72084  0.56132  0.78626  1.0000
  S   S280      1.0  0.72553  0.67402  0.89665  1.0000
  C   C2017     1.0  0.71611  0.56036  0.96505  1.0000
  C   C2018     1.0  0.71562  0.69619  0.68237  1.0000
  C   C2019     1.0  0.63975  0.71237  0.83518  1.0000
  H   H1608     1.0  0.70619  0.53151  0.95501  1.0000
  C   C2020     1.0  0.71246  0.54397  0.66240  1.0000
  C   C2021     1.0  0.72383  0.65128  0.69474  1.0000
  C   C2022     1.0  0.70832  0.69269  0.71686  1.0000
  H   H1609     1.0  0.71708  0.53906  0.50573  1.0000
  H   H1610     1.0  0.63627  0.67507  0.53509  1.0000
  H   H1611     1.0  0.57332  0.72883  0.74589  1.0000
  C   C2023     1.0  0.62915  0.72055  0.78020  1.0000
  Fe  Fe138     1.0  0.72077  0.65324  0.85414  1.0000
  H   H1612     1.0  0.66129  0.52881  0.96297  1.0000
  H   H1613     1.0  0.50939  0.73926  0.93358  1.0000
  H   H1614     1.0  0.70254  0.68119  0.98347  1.0000
  C   C2024     1.0  0.72092  0.49460  0.61668  1.0000
  C   C2025     1.0  0.70203  0.50566  0.58053  1.0000
  C   C2026     1.0  0.71967  0.54359  0.79661  1.0000
  H   H1615     1.0  0.61903  0.70153  0.63324  1.0000
  C   C2027     1.0  0.67785  0.70581  0.91284  1.0000
  Fe  Fe139     1.0  0.71287  0.63065  0.60143  1.0000
  H   H1616     1.0  0.67807  0.67649  0.82556  1.0000
  H   H1617     1.0  0.63821  0.64333  0.84813  1.0000
  H   H1618     1.0  0.61542  0.60103  0.65790  1.0000
  H   H1619     1.0  0.59411  0.69973  0.83844  1.0000
  C   C2028     1.0  0.63498  0.65767  0.76375  1.0000
  H   H1620     1.0  0.68218  0.71445  0.73243  1.0000
  C   C2029     1.0  0.70900  0.71968  0.82417  1.0000
  C   C2030     1.0  0.71162  0.57498  0.69617  1.0000
  H   H1621     1.0  0.52123  0.70273  0.83758  1.0000
  H   H1622     1.0  0.69526  0.54972  0.62423  1.0000
  H   H1623     1.0  0.66306  0.63621  0.81949  1.0000
  C   C2031     1.0  0.49102  0.71390  0.64505  1.0000
  C   C2032     1.0  0.49749  0.72092  0.89129  1.0000
  H   H1624     1.0  0.72597  0.58783  0.98228  1.0000
  C   C2033     1.0  0.66877  0.73391  0.73808  1.0000
  C   C2034     1.0  0.65535  0.64238  0.80398  1.0000
  C   C2035     1.0  0.63313  0.62686  0.67663  1.0000
  C   C2036     1.0  0.67922  0.67415  0.69444  1.0000
  H   H1625     1.0  0.71260  0.53187  0.64943  1.0000
  C   C2037     1.0  0.70168  0.70070  0.82915  1.0000
  Fe  Fe140     1.0  0.57982  0.73590  0.94965  1.0000
  H   H1626     1.0  0.72690  0.53663  0.78183  1.0000
  H   H1627     1.0  0.49584  0.71296  0.67120  1.0000
  H   H1628     1.0  0.62630  0.66269  0.74855  1.0000
  C   C2038     1.0  0.53921  0.72033  0.53051  1.0000
  C   C2039     1.0  0.64334  0.67273  0.68041  1.0000
  C   C2040     1.0  0.70474  0.68889  0.65389  1.0000
  P   P67       1.0  0.66677  0.73193  0.78584  1.0000
  C   C2041     1.0  0.65205  0.56670  0.98145  1.0000
  C   C2042     1.0  0.52909  0.73146  0.90616  1.0000
  C   C2043     1.0  0.64126  0.64629  0.82007  1.0000
  H   H1629     1.0  0.65940  0.69283  0.80078  1.0000
  H   H1630     1.0  0.62215  0.63128  0.68386  1.0000
  H   H1631     1.0  0.49088  0.73499  0.82774  1.0000
  H   H1632     1.0  0.61980  0.65643  0.81225  1.0000
  H   H1633     1.0  0.49625  0.73769  0.72027  1.0000
  C   C2044     1.0  0.72214  0.54968  0.69314  1.0000
  H   H1634     1.0  0.63140  0.72687  0.75406  1.0000
  H   H1635     1.0  0.60035  0.71310  0.77761  1.0000
  H   H1636     1.0  0.67197  0.61010  0.65182  1.0000
  C   C2045     1.0  0.47925  0.73872  0.83235  1.0000
  C   C2046     1.0  0.71882  0.50470  0.58739  1.0000
  H   H1637     1.0  0.70870  0.52123  0.83488  1.0000
  C   C2047     1.0  0.66354  0.56333  0.51498  1.0000
  C   C2048     1.0  0.67321  0.70051  0.80729  1.0000
  C   C2049     1.0  0.52045  0.71191  0.53660  1.0000
  C   C2050     1.0  0.72227  0.65226  0.75933  1.0000
  H   H1638     1.0  0.66626  0.63496  0.49820  1.0000
  C   C2051     1.0  0.48860  0.73150  0.59329  1.0000
  H   H1639     1.0  0.68390  0.71668  0.66728  1.0000
  C   C2052     1.0  0.62201  0.70485  0.84856  1.0000
  H   H1640     1.0  0.70040  0.51307  0.55708  1.0000
  H   H1641     1.0  0.66645  0.59386  0.95878  1.0000
  H   H1642     1.0  0.67900  0.64019  0.67769  1.0000
  H   H1643     1.0  0.71029  0.58272  0.79645  1.0000
  H   H1644     1.0  0.51514  0.70839  0.56341  1.0000
  C   C2053     1.0  0.67102  0.73649  0.66384  1.0000
  C   C2054     1.0  0.53329  0.71206  0.98869  1.0000
  S   S281      1.0  0.71014  0.61914  0.65816  1.0000
  C   C2055     1.0  0.71154  0.63368  0.76089  1.0000
  S   S282      1.0  0.55373  0.72500  0.56715  1.0000
  H   H1645     1.0  0.64631  0.69130  0.72322  1.0000
  C   C2056     1.0  0.51168  0.73138  0.91219  1.0000
  H   H1646     1.0  0.63037  0.70916  0.69359  1.0000
  C   C2057     1.0  0.68037  0.71965  0.80296  1.0000
  C   C2058     1.0  0.52779  0.69740  0.96595  1.0000
  Fe  Fe141     1.0  0.62131  0.73265  0.55831  1.0000
  H   H1647     1.0  0.54612  0.72139  0.87460  1.0000
  C   C2059     1.0  0.61139  0.71274  0.79349  1.0000
  P   P68       1.0  0.65570  0.66014  0.70134  1.0000
  H   H1648     1.0  0.66896  0.72860  0.56731  1.0000
  C   C2060     1.0  0.70737  0.62386  0.72954  1.0000
  H   H1649     1.0  0.67993  0.73374  0.90235  1.0000
  H   H1650     1.0  0.71089  0.58687  0.70904  1.0000
  C   C2061     1.0  0.63210  0.69773  0.68055  1.0000
  H   H1651     1.0  0.70689  0.62675  0.78627  1.0000
  C   C2062     1.0  0.65106  0.63825  0.68172  1.0000
  H   H1652     1.0  0.63957  0.65815  0.63143  1.0000
  H   H1653     1.0  0.64597  0.53672  0.53514  1.0000
  C   C2063     1.0  0.69942  0.54325  0.84555  1.0000
  C   C2064     1.0  0.66505  0.63198  0.67315  1.0000
  H   H1654     1.0  0.71320  0.56439  0.93904  1.0000
  H   H1655     1.0  0.67839  0.67243  0.63731  1.0000
  H   H1656     1.0  0.69126  0.53637  0.86862  1.0000
  S   S283      1.0  0.60081  0.72772  0.60326  1.0000
  C   C2065     1.0  0.71038  0.56946  0.80479  1.0000
  C   C2066     1.0  0.66112  0.61480  0.65867  1.0000
  C   C2067     1.0  0.64355  0.72055  0.80107  1.0000
  C   C2068     1.0  0.64104  0.68752  0.69728  1.0000
  H   H1657     1.0  0.64032  0.59045  0.64157  1.0000
  H   H1658     1.0  0.72281  0.72714  0.83076  1.0000
  C   C2069     1.0  0.49474  0.73093  0.62767  1.0000
  C   C2070     1.0  0.68244  0.70911  0.56258  1.0000
  C   C2071     1.0  0.67799  0.72493  0.68199  1.0000
  C   C2072     1.0  0.66401  0.67890  0.54507  1.0000
  C   C2073     1.0  0.69988  0.56053  0.83453  1.0000
  C   C2074     1.0  0.70922  0.53473  0.82648  1.0000
  C   C2075     1.0  0.71663  0.68940  0.98693  1.0000
  C   C2076     1.0  0.72224  0.56558  0.70961  1.0000
  C   C2077     1.0  0.69844  0.72913  0.81107  1.0000
  C   C2078     1.0  0.51999  0.73821  0.74702  1.0000
  C   C2079     1.0  0.72822  0.66103  0.72612  1.0000
  H   H1659     1.0  0.51283  0.73282  0.77187  1.0000
  C   C2080     1.0  0.48142  0.69774  0.62816  1.0000
  H   H1660     1.0  0.72877  0.65814  0.66941  1.0000
  S   S284      1.0  0.58160  0.73988  0.81706  1.0000
  H   H1661     1.0  0.54593  0.74034  0.76687  1.0000
  C   C2081     1.0  0.68734  0.49677  0.60348  1.0000
  C   C2082     1.0  0.71759  0.56633  0.49560  1.0000
  C   C2083     1.0  0.54588  0.72478  0.49571  1.0000
  C   C2084     1.0  0.49723  0.68652  0.99286  1.0000
  C   C2085     1.0  0.72760  0.58497  0.49787  1.0000
  C   C2086     1.0  0.47898  0.71533  0.57655  1.0000
  Fe  Fe142     1.0  0.62651  0.94131  0.05412  1.0000
  S   S285      1.0  0.59817  0.93309  0.07734  1.0000
  S   S286      1.0  0.64334  0.97281  0.05691  1.0000
  Fe  Fe143     1.0  0.62061  0.89963  0.04484  1.0000
  S   S287      1.0  0.59263  0.88985  0.06939  1.0000
  S   S288      1.0  0.63337  0.87908  0.02578  1.0000
  Fe  Fe144     1.0  0.58885  0.91196  0.03549  1.0000
  H   H1662     1.0  0.59123  0.75619  0.45238  1.0000
  Fe  Fe145     1.0  0.60441  0.91167  0.10945  1.0000
  S   S289      1.0  0.59551  0.90840  0.16803  1.0000
  S   S290      1.0  0.63279  0.92009  0.08763  1.0000
  H   H1663     1.0  0.56934  0.82920  0.03475  1.0000
  Fe  Fe146     1.0  0.63199  0.93511  0.42426  1.0000
  S   S291      1.0  0.61088  0.92386  0.38294  1.0000
  S   S292      1.0  0.64275  0.96627  0.43625  1.0000
  Fe  Fe147     1.0  0.63118  0.89578  0.44320  1.0000
  S   S293      1.0  0.61128  0.88288  0.40197  1.0000
  C   C2087     1.0  0.65511  0.98255  0.20813  1.0000
  Fe  Fe148     1.0  0.62707  0.90702  0.36648  1.0000
  S   S294      1.0  0.63620  0.90406  0.31004  1.0000
  Fe  Fe149     1.0  0.59652  0.90056  0.42195  1.0000
  S   S295      1.0  0.56595  0.88517  0.42575  1.0000
  S   S296      1.0  0.64870  0.91887  0.40638  1.0000
  S   S297      1.0  0.61599  0.91284  0.46475  1.0000
  H   H1664     1.0  0.58654  0.83631  0.44226  1.0000
  C   C2088     1.0  0.68927  0.89469  0.47839  1.0000
  H   H1665     1.0  0.56590  0.74917  0.08104  1.0000
  C   C2089     1.0  0.63068  0.84372  0.45602  1.0000
  C   C2090     1.0  0.62774  0.82487  0.45894  1.0000
  H   H1666     1.0  0.63020  0.85002  0.43053  1.0000
  H   H1667     1.0  0.62490  0.81681  0.43551  1.0000
  C   C2091     1.0  0.60768  0.90840  0.20700  1.0000
  C   C2092     1.0  0.59879  0.90696  0.24009  1.0000
  C   C2093     1.0  0.60746  0.90604  0.27180  1.0000
  C   C2094     1.0  0.62516  0.90643  0.27084  1.0000
  C   C2095     1.0  0.63422  0.90822  0.23780  1.0000
  C   C2096     1.0  0.62557  0.90929  0.20603  1.0000
  H   H1668     1.0  0.58498  0.90632  0.24117  1.0000
  H   H1669     1.0  0.60031  0.90467  0.29696  1.0000
  H   H1670     1.0  0.64794  0.90862  0.23673  1.0000
  H   H1671     1.0  0.63264  0.91052  0.18084  1.0000
  H   H1672     1.0  0.52661  0.80637  0.11347  1.0000
  H   H1673     1.0  0.57725  0.75296  0.39373  1.0000
  C   C2097     1.0  0.69198  0.91269  0.46703  1.0000
  H   H1674     1.0  0.53436  0.77753  0.11265  1.0000
  H   H1675     1.0  0.50094  0.88693  0.38544  1.0000
  C   C2098     1.0  0.53703  0.87779  0.03224  1.0000
  H   H1676     1.0  0.51460  0.85611  0.05767  1.0000
  H   H1677     1.0  0.54517  0.88037  0.05547  1.0000
  H   H1678     1.0  0.67702  0.91748  0.31468  1.0000
  C   C2099     1.0  0.54688  0.82660  0.39624  1.0000
  H   H1679     1.0  0.67859  0.97784  0.39881  1.0000
  C   C2100     1.0  0.51711  0.78061  0.47970  1.0000
  H   H1680     1.0  0.69783  0.91776  0.44101  1.0000
  C   C2101     1.0  0.58074  0.83379  0.11710  1.0000
  H   H1681     1.0  0.64990  0.85949  0.33174  1.0000
  C   C2102     1.0  0.59324  0.79844  0.09603  1.0000
  H   H1682     1.0  0.54836  0.82363  0.46693  1.0000
  C   C2103     1.0  0.53526  0.86317  0.46253  1.0000
  C   C2104     1.0  0.50319  0.74691  0.37981  1.0000
  C   C2105     1.0  0.59735  0.78163  0.04592  1.0000
  C   C2106     1.0  0.51459  0.78493  0.37241  1.0000
  C   C2107     1.0  0.60313  0.78959  0.07822  1.0000
  C   C2108     1.0  0.53189  0.76975  0.16788  1.0000
  H   H1683     1.0  0.64921  0.88473  0.36865  1.0000
  H   H1684     1.0  0.57476  0.81271  0.17947  1.0000
  C   C2109     1.0  0.57524  0.84341  0.14292  1.0000
  C   C2110     1.0  0.51966  0.86401  0.03339  1.0000
  C   C2111     1.0  0.48187  0.86369  0.47665  1.0000
  H   H1685     1.0  0.51512  0.74259  0.09808  1.0000
  H   H1686     1.0  0.58295  0.86771  0.17378  1.0000
  H   H1687     1.0  0.66832  0.89336  0.42031  1.0000
  H   H1688     1.0  0.50787  0.90302  0.04872  1.0000
  H   H1689     1.0  0.58153  0.85940  0.35145  1.0000
  C   C2112     1.0  0.65368  0.96970  0.29241  1.0000
  C   C2113     1.0  0.63480  0.85446  0.48589  1.0000
  C   C2114     1.0  0.52516  0.82388  0.03123  1.0000
  H   H1690     1.0  0.68971  0.85134  0.39792  1.0000
  C   C2115     1.0  0.58095  0.83247  0.36610  1.0000
  H   H1691     1.0  0.72286  0.95102  0.25067  1.0000
  C   C2116     1.0  0.56102  0.74411  0.17064  1.0000
  C   C2117     1.0  0.58589  0.83794  0.47046  1.0000
  C   C2118     1.0  0.55532  0.82509  0.04305  1.0000
  H   H1692     1.0  0.56174  0.83793  0.15461  1.0000
  H   H1693     1.0  0.52344  0.75130  0.41837  1.0000
  C   C2119     1.0  0.71887  0.89251  0.43461  1.0000
  C   C2120     1.0  0.72514  0.89001  0.40090  1.0000
  H   H1694     1.0  0.58081  0.86294  0.46520  1.0000
  C   C2121     1.0  0.57111  0.81570  0.38321  1.0000
  C   C2122     1.0  0.62169  0.95261  0.30344  1.0000
  C   C2123     1.0  0.48856  0.80508  0.43863  1.0000
  H   H1695     1.0  0.49338  0.77998  0.33502  1.0000
  H   H1696     1.0  0.52008  0.75757  0.16488  1.0000
  C   C2124     1.0  0.68402  0.92987  0.29899  1.0000
  H   H1697     1.0  0.59633  0.85462  0.01119  1.0000
  C   C2125     1.0  0.57365  0.76079  0.41372  1.0000
  C   C2126     1.0  0.49543  0.88055  0.41092  1.0000
  H   H1698     1.0  0.57710  0.80536  0.38471  1.0000
  P   P69       1.0  0.67355  0.97470  0.26395  1.0000
  H   H1699     1.0  0.61367  0.88092  0.14690  1.0000
  C   C2127     1.0  0.66523  0.97216  0.21955  1.0000
  C   C2128     1.0  0.50356  0.88849  0.44181  1.0000
  H   H1700     1.0  0.53379  0.82472  0.40797  1.0000
  H   H1701     1.0  0.49138  0.83287  0.44604  1.0000
  C   C2129     1.0  0.57668  0.77239  0.47280  1.0000
  S   S298      1.0  0.64010  0.87859  0.48326  1.0000
  H   H1702     1.0  0.55556  0.76799  0.38049  1.0000
  C   C2130     1.0  0.55640  0.77917  0.43249  1.0000
  C   C2131     1.0  0.55957  0.74441  0.10691  1.0000
  S   S299      1.0  0.62466  0.79247  0.49345  1.0000
  H   H1703     1.0  0.56051  0.79254  0.23089  1.0000
  C   C2132     1.0  0.48040  0.86427  0.41287  1.0000
  C   C2133     1.0  0.60549  0.84808  0.00258  1.0000
  H   H1704     1.0  0.50535  0.81260  0.07323  1.0000
  C   C2134     1.0  0.55677  0.84333  0.37920  1.0000
  C   C2135     1.0  0.63747  0.95605  0.28305  1.0000
  H   H1705     1.0  0.50280  0.80784  0.44121  1.0000
  C   C2136     1.0  0.70153  0.96157  0.25752  1.0000
  C   C2137     1.0  0.49666  0.88016  0.47463  1.0000
  C   C2138     1.0  0.48899  0.89142  0.00801  1.0000
  C   C2139     1.0  0.66990  0.85384  0.36264  1.0000
  H   H1706     1.0  0.63694  0.94794  0.26003  1.0000
  H   H1707     1.0  0.49475  0.75789  0.07959  1.0000
  C   C2140     1.0  0.68669  0.92412  0.48880  1.0000
  P   P70       1.0  0.54152  0.79126  0.42230  1.0000
  C   C2141     1.0  0.50468  0.90406  0.02126  1.0000
  H   H1708     1.0  0.57731  0.77623  0.00633  1.0000
  C   C2142     1.0  0.65389  0.97945  0.32312  1.0000
  S   S300      1.0  0.61673  0.92151  0.00941  1.0000
  C   C2143     1.0  0.55190  0.87775  0.46453  1.0000
  H   H1709     1.0  0.60929  0.94198  0.29614  1.0000
  H   H1710     1.0  0.66639  0.84525  0.46502  1.0000
  H   H1711     1.0  0.66998  0.84257  0.34675  1.0000
  C   C2144     1.0  0.64681  0.97942  0.17549  1.0000
  C   C2145     1.0  0.64843  0.96579  0.15416  1.0000
  H   H1712     1.0  0.53167  0.85616  0.43800  1.0000
  C   C2146     1.0  0.50021  0.77385  0.35289  1.0000
  C   C2147     1.0  0.60456  0.86773  0.13875  1.0000
  C   C2148     1.0  0.54941  0.81633  0.07618  1.0000
  C   C2149     1.0  0.54324  0.82875  0.02059  1.0000
  P   P71       1.0  0.69582  0.88002  0.44947  1.0000
  C   C2150     1.0  0.53135  0.81211  0.08729  1.0000
  H   H1713     1.0  0.59795  0.80469  0.12092  1.0000
  H   H1714     1.0  0.55140  0.85422  0.37810  1.0000
  C   C2151     1.0  0.58157  0.78230  0.03161  1.0000
  P   P72       1.0  0.56545  0.81168  0.10424  1.0000
  C   C2152     1.0  0.56418  0.78067  0.46569  1.0000
  H   H1715     1.0  0.66261  0.94003  0.30588  1.0000
  H   H1716     1.0  0.60520  0.77512  0.03170  1.0000
  C   C2153     1.0  0.57172  0.79128  0.04917  1.0000
  C   C2154     1.0  0.58146  0.76251  0.44679  1.0000
  H   H1717     1.0  0.61547  0.78916  0.08907  1.0000
  C   C2155     1.0  0.57769  0.79971  0.08123  1.0000
  C   C2156     1.0  0.53990  0.78117  0.13849  1.0000
  C   C2157     1.0  0.55493  0.79725  0.14249  1.0000
  H   H1718     1.0  0.59425  0.83488  0.35471  1.0000
  H   H1719     1.0  0.63831  0.98336  0.36736  1.0000
  H   H1720     1.0  0.65943  0.94467  0.14875  1.0000
  C   C2158     1.0  0.58719  0.86023  0.15392  1.0000
  C   C2159     1.0  0.66927  0.88258  0.40415  1.0000
  C   C2160     1.0  0.65855  0.86328  0.35422  1.0000
  H   H1721     1.0  0.50676  0.78368  0.01039  1.0000
  H   H1722     1.0  0.70725  0.74835  0.46896  1.0000
  C   C2161     1.0  0.67579  0.94270  0.29379  1.0000
  C   C2162     1.0  0.51925  0.81573  0.06468  1.0000
  C   C2163     1.0  0.53922  0.77391  0.20121  1.0000
  H   H1723     1.0  0.55967  0.79180  0.03733  1.0000
  H   H1724     1.0  0.70836  0.97369  0.24105  1.0000
  C   C2164     1.0  0.56260  0.80098  0.17588  1.0000
  C   C2165     1.0  0.70976  0.94874  0.26286  1.0000
  C   C2166     1.0  0.62197  0.96265  0.33351  1.0000
  C   C2167     1.0  0.54358  0.88858  0.00142  1.0000
  C   C2168     1.0  0.55465  0.78943  0.20514  1.0000
  C   C2169     1.0  0.70097  0.93286  0.28348  1.0000
  C   C2170     1.0  0.55401  0.81265  0.39874  1.0000
  C   C2171     1.0  0.52336  0.77705  0.39594  1.0000
  H   H1725     1.0  0.52121  0.76119  0.02453  1.0000
  C   C2172     1.0  0.60989  0.85861  0.11203  1.0000
  C   C2173     1.0  0.57380  0.84629  0.36421  1.0000
  H   H1726     1.0  0.58289  0.76026  0.13531  1.0000
  H   H1727     1.0  0.51580  0.82680  0.01387  1.0000
  H   H1728     1.0  0.71632  0.88067  0.38292  1.0000
  C   C2174     1.0  0.50883  0.86041  0.00347  1.0000
  C   C2175     1.0  0.68103  0.87346  0.41240  1.0000
  C   C2176     1.0  0.59798  0.84181  0.10092  1.0000
  H   H1729     1.0  0.60229  0.83533  0.07944  1.0000
  C   C2177     1.0  0.68442  0.95856  0.27279  1.0000
  C   C2178     1.0  0.63807  0.97593  0.34349  1.0000
  C   C2179     1.0  0.65820  0.87759  0.37502  1.0000
  C   C2180     1.0  0.56126  0.76920  0.40644  1.0000
  C   C2181     1.0  0.53711  0.81233  0.47829  1.0000
  C   C2182     1.0  0.66682  0.95850  0.19785  1.0000
  H   H1730     1.0  0.67391  0.94977  0.20633  1.0000
  C   C2183     1.0  0.53126  0.79507  0.46300  1.0000
  H   H1731     1.0  0.62313  0.86479  0.09929  1.0000
  C   C2184     1.0  0.68107  0.85887  0.39163  1.0000
  H   H1732     1.0  0.51864  0.79958  0.36915  1.0000
  C   C2185     1.0  0.48985  0.74609  0.09757  1.0000
  C   C2186     1.0  0.65850  0.95542  0.16522  1.0000
  C   C2187     1.0  0.51737  0.75790  0.39976  1.0000
  H   H1733     1.0  0.56077  0.78839  0.48595  1.0000
  H   H1734     1.0  0.70721  0.92279  0.28727  1.0000
  C   C2188     1.0  0.62402  0.85697  0.00681  1.0000
  C   C2189     1.0  0.52542  0.76999  0.00101  1.0000
  C   C2190     1.0  0.62827  0.81632  0.49185  1.0000
  H   H1735     1.0  0.64160  0.96300  0.12931  1.0000
  C   C2191     1.0  0.58276  0.85304  0.48343  1.0000
  H   H1736     1.0  0.52932  0.92666  0.00866  1.0000
  H   H1737     1.0  0.51539  0.90094  0.44038  1.0000
  H   H1738     1.0  0.53304  0.76499  0.22392  1.0000
  H   H1739     1.0  0.60981  0.95981  0.34967  1.0000
  H   H1740     1.0  0.51266  0.76700  0.46937  1.0000
  C   C2192     1.0  0.49454  0.75483  0.35653  1.0000
  C   C2193     1.0  0.66077  0.98808  0.42726  1.0000
  H   H1741     1.0  0.68831  0.93781  0.47946  1.0000
  H   H1742     1.0  0.48334  0.74618  0.34159  1.0000
  C   C2194     1.0  0.67673  0.98993  0.40838  1.0000
  C   C2195     1.0  0.67841  0.84454  0.47671  1.0000
  C   C2196     1.0  0.56914  0.75058  0.13744  1.0000
  H   H1743     1.0  0.48177  0.77620  0.43170  1.0000
  C   C2197     1.0  0.69478  0.85946  0.47346  1.0000
  S   S301      1.0  0.48681  0.84314  0.00645  1.0000
  C   C2198     1.0  0.48198  0.81928  0.44162  1.0000
  H   H1744     1.0  0.56851  0.74881  0.19431  1.0000
  C   C2199     1.0  0.71010  0.85822  0.48942  1.0000
  H   H1745     1.0  0.67362  0.98849  0.00499  1.0000
  H   H1746     1.0  0.48010  0.88047  0.02518  1.0000
  C   C2200     1.0  0.51675  0.91742  0.99865  1.0000
  H   H1747     1.0  0.66604  0.98989  0.33154  1.0000
  H   H1748     1.0  0.72286  0.86953  0.48767  1.0000
  C   C2201     1.0  0.52299  0.85794  0.49174  1.0000
  S   S302      1.0  0.56481  0.90708  0.99913  1.0000
  H   H1749     1.0  0.54797  0.83561  0.99515  1.0000
  H   H1750     1.0  0.51017  0.84693  0.48988  1.0000
  H   H1751     1.0  0.59163  0.81388  0.48366  1.0000
  H   H1752     1.0  0.63872  0.98719  0.16695  1.0000
  H   H1753     1.0  0.72639  0.90685  0.48346  1.0000
  H   H1754     1.0  0.65001  0.85470  0.99861  1.0000
  C   C2202     1.0  0.63565  0.84808  0.99544  1.0000
  C   C2203     1.0  0.53861  0.74241  0.74427  1.0000
  H   H1755     1.0  0.54532  0.87579  0.85265  1.0000
  Fe  Fe150     1.0  0.60544  0.77546  0.93176  1.0000
  S   S303      1.0  0.57855  0.75760  0.91179  1.0000
  S   S304      1.0  0.60120  0.80170  0.94992  1.0000
  C   C2204     1.0  0.68844  0.76903  0.78539  1.0000
  C   C2205     1.0  0.52778  0.90771  0.87606  1.0000
  C   C2206     1.0  0.59591  0.74522  0.71227  1.0000
  S   S305      1.0  0.62003  0.76638  0.88785  1.0000
  Fe  Fe151     1.0  0.61786  0.77005  0.53763  1.0000
  S   S306      1.0  0.59763  0.76736  0.58180  1.0000
  H   H1756     1.0  0.48286  0.75324  0.78194  1.0000
  Fe  Fe152     1.0  0.61536  0.75713  0.61537  1.0000
  S   S307      1.0  0.62500  0.76741  0.67007  1.0000
  S   S308      1.0  0.63681  0.76187  0.57210  1.0000
  S   S309      1.0  0.51079  0.86343  0.55835  1.0000
  C   C2207     1.0  0.54050  0.90035  0.86470  1.0000
  C   C2208     1.0  0.56842  0.80805  0.84687  1.0000
  H   H1757     1.0  0.63821  0.82465  0.96977  1.0000
  C   C2209     1.0  0.52695  0.86759  0.52291  1.0000
  H   H1758     1.0  0.54620  0.75702  0.65839  1.0000
  H   H1759     1.0  0.55436  0.90925  0.85927  1.0000
  C   C2210     1.0  0.52163  0.80520  0.87608  1.0000
  C   C2211     1.0  0.72671  0.76532  0.88629  1.0000
  H   H1760     1.0  0.51567  0.80303  0.95582  1.0000
  S   S310      1.0  0.47989  0.81952  0.60965  1.0000
  C   C2212     1.0  0.63227  0.82704  0.52180  1.0000
  H   H1761     1.0  0.63298  0.82079  0.54722  1.0000
  H   H1762     1.0  0.63938  0.85422  0.54180  1.0000
  H   H1763     1.0  0.65613  0.75413  0.73370  1.0000
  H   H1764     1.0  0.58795  0.87725  0.63805  1.0000
  H   H1765     1.0  0.50810  0.97742  0.84629  1.0000
  C   C2213     1.0  0.61304  0.75894  0.71079  1.0000
  C   C2214     1.0  0.62090  0.76645  0.74253  1.0000
  C   C2215     1.0  0.61163  0.76054  0.77536  1.0000
  H   H1766     1.0  0.63417  0.77703  0.74171  1.0000
  H   H1767     1.0  0.61778  0.76657  0.79951  1.0000
  H   H1768     1.0  0.69178  0.81498  0.52525  1.0000
  C   C2216     1.0  0.62898  0.83093  0.97918  1.0000
  P   P73       1.0  0.50781  0.75203  0.64819  1.0000
  H   H1769     1.0  0.49352  0.93902  0.93442  1.0000
  C   C2217     1.0  0.48540  0.89203  0.97209  1.0000
  C   C2218     1.0  0.53304  0.75769  0.59288  1.0000
  C   C2219     1.0  0.49940  0.77678  0.69030  1.0000
  H   H1770     1.0  0.60396  0.98325  0.96352  1.0000
  C   C2220     1.0  0.53265  0.88509  0.97167  1.0000
  C   C2221     1.0  0.51561  0.87084  0.97243  1.0000
  H   H1771     1.0  0.53744  0.89345  0.94780  1.0000
  H   H1772     1.0  0.50742  0.86825  0.94943  1.0000
  C   C2222     1.0  0.54947  0.78699  0.56399  1.0000
  C   C2223     1.0  0.55637  0.85879  0.92772  1.0000
  C   C2224     1.0  0.54016  0.79510  0.58530  1.0000
  H   H1773     1.0  0.58095  0.86789  0.52912  1.0000
  C   C2225     1.0  0.57489  0.86397  0.93216  1.0000
  C   C2226     1.0  0.53577  0.79203  0.93894  1.0000
  C   C2227     1.0  0.54787  0.74922  0.71219  1.0000
  H   H1774     1.0  0.58283  0.77369  0.49839  1.0000
  C   C2228     1.0  0.67886  0.91775  0.52222  1.0000
  H   H1775     1.0  0.53247  0.82872  0.51958  1.0000
  H   H1776     1.0  0.49991  0.97019  0.91000  1.0000
  H   H1777     1.0  0.70723  0.75364  0.92889  1.0000
  H   H1778     1.0  0.56905  0.89793  0.49840  1.0000
  C   C2229     1.0  0.58334  0.85145  0.92628  1.0000
  C   C2230     1.0  0.52230  0.79349  0.96192  1.0000
  H   H1779     1.0  0.50649  0.80324  0.54702  1.0000
  Fe  Fe153     1.0  0.61957  0.74296  0.92514  1.0000
  H   H1780     1.0  0.69359  0.76704  0.75975  1.0000
  C   C2231     1.0  0.50086  0.95968  0.89289  1.0000
  C   C2232     1.0  0.61049  0.82231  0.97400  1.0000
  H   H1781     1.0  0.57895  0.77613  0.80146  1.0000
  H   H1782     1.0  0.53049  0.74318  0.59551  1.0000
  H   H1783     1.0  0.55588  0.77959  0.93238  1.0000
  C   C2233     1.0  0.53860  0.75183  0.68283  1.0000
  C   C2234     1.0  0.50520  0.79062  0.88229  1.0000
  H   H1784     1.0  0.50977  0.95320  0.80696  1.0000
  C   C2235     1.0  0.49878  0.92838  0.88479  1.0000
  H   H1785     1.0  0.57994  0.82395  0.91347  1.0000
  H   H1786     1.0  0.49743  0.77240  0.52256  1.0000
  P   P74       1.0  0.54166  0.80562  0.89816  1.0000
  C   C2236     1.0  0.58627  0.84342  0.54347  1.0000
  H   H1787     1.0  0.52029  0.79124  0.62673  1.0000
  C   C2237     1.0  0.50644  0.95012  0.83487  1.0000
  C   C2238     1.0  0.57324  0.83368  0.91643  1.0000
  C   C2239     1.0  0.66893  0.75755  0.83730  1.0000
  H   H1788     1.0  0.53529  0.82999  0.84468  1.0000
  C   C2240     1.0  0.52819  0.81529  0.50841  1.0000
  C   C2241     1.0  0.57758  0.80071  0.82334  1.0000
  H   H1789     1.0  0.56230  0.75250  0.70997  1.0000
  H   H1790     1.0  0.65874  0.74671  0.85234  1.0000
  C   C2242     1.0  0.55469  0.82853  0.91102  1.0000
  H   H1791     1.0  0.57314  0.82271  0.84925  1.0000
  C   C2243     1.0  0.49068  0.80439  0.84082  1.0000
  C   C2244     1.0  0.66325  0.74702  0.68265  1.0000
  H   H1792     1.0  0.52465  0.84175  0.59687  1.0000
  C   C2245     1.0  0.69267  0.82738  0.51085  1.0000
  C   C2246     1.0  0.53544  0.88149  0.86114  1.0000
  C   C2247     1.0  0.51769  0.86998  0.86912  1.0000
  C   C2248     1.0  0.50500  0.87730  0.88060  1.0000
  C   C2249     1.0  0.50983  0.89625  0.88352  1.0000
  C   C2250     1.0  0.51314  0.91812  0.96276  1.0000
  C   C2251     1.0  0.71969  0.75396  0.91616  1.0000
  C   C2252     1.0  0.57163  0.78184  0.81918  1.0000
  C   C2253     1.0  0.67738  0.82855  0.49519  1.0000
  S   S311      1.0  0.60690  0.75359  0.96990  1.0000
  C   C2254     1.0  0.49735  0.90552  0.94921  1.0000
  H   H1793     1.0  0.59770  0.85540  0.93016  1.0000
  C   C2255     1.0  0.58910  0.82809  0.53015  1.0000
  H   H1794     1.0  0.54986  0.86846  0.93267  1.0000
  H   H1795     1.0  0.58265  0.87759  0.94078  1.0000
  C   C2256     1.0  0.51720  0.78253  0.99287  1.0000
  H   H1796     1.0  0.51366  0.85532  0.86676  1.0000
  H   H1797     1.0  0.49150  0.86806  0.88780  1.0000
  H   H1798     1.0  0.71957  0.77363  0.87566  1.0000
  H   H1799     1.0  0.54267  0.80948  0.58173  1.0000
  H   H1800     1.0  0.58451  0.82431  0.98302  1.0000
  C   C2257     1.0  0.49738  0.94201  0.90671  1.0000
  H   H1801     1.0  0.52301  0.92809  0.94541  1.0000
  H   H1802     1.0  0.54586  0.75941  0.98547  1.0000
  C   C2258     1.0  0.50839  0.78359  0.51000  1.0000
  C   C2259     1.0  0.49360  0.76408  0.66341  1.0000
  C   C2260     1.0  0.67598  0.77475  0.85204  1.0000
  C   C2261     1.0  0.68922  0.78913  0.83348  1.0000
  C   C2262     1.0  0.69545  0.78628  0.80016  1.0000
  H   H1803     1.0  0.67102  0.77682  0.87791  1.0000
  H   H1804     1.0  0.69456  0.80248  0.84490  1.0000
  H   H1805     1.0  0.70568  0.79745  0.78571  1.0000
  H   H1806     1.0  0.58945  0.80962  0.80864  1.0000
  C   C2263     1.0  0.55349  0.79648  0.86711  1.0000
  C   C2264     1.0  0.53366  0.83538  0.64680  1.0000
  C   C2265     1.0  0.54826  0.83439  0.66544  1.0000
  C   C2266     1.0  0.56506  0.83861  0.64822  1.0000
  C   C2267     1.0  0.56733  0.84358  0.61200  1.0000
  C   C2268     1.0  0.54586  0.76826  0.56765  1.0000
  P   P75       1.0  0.58900  0.84854  0.58982  1.0000
  C   C2269     1.0  0.60238  0.87256  0.59236  1.0000
  C   C2270     1.0  0.60032  0.83468  0.60998  1.0000
  C   C2271     1.0  0.61904  0.84177  0.61438  1.0000
  C   C2272     1.0  0.62771  0.83075  0.62907  1.0000
  C   C2273     1.0  0.61780  0.81262  0.63948  1.0000
  C   C2274     1.0  0.59918  0.80546  0.63520  1.0000
  C   C2275     1.0  0.59047  0.81639  0.62035  1.0000
  C   C2276     1.0  0.61634  0.88086  0.56719  1.0000
  C   C2277     1.0  0.62625  0.89960  0.56756  1.0000
  C   C2278     1.0  0.62243  0.91021  0.59339  1.0000
  C   C2279     1.0  0.60871  0.90203  0.61889  1.0000
  C   C2280     1.0  0.59868  0.88326  0.61841  1.0000
  C   C2281     1.0  0.55277  0.84528  0.59385  1.0000
  C   C2282     1.0  0.52383  0.76581  0.61485  1.0000
  H   H1807     1.0  0.67442  0.92649  0.53874  1.0000
  C   C2283     1.0  0.54384  0.88172  0.52537  1.0000
  C   C2284     1.0  0.63583  0.84602  0.51865  1.0000
  Fe  Fe154     1.0  0.59305  0.74678  0.87204  1.0000
  C   C2285     1.0  0.52739  0.78462  0.61071  1.0000
  C   C2286     1.0  0.70902  0.84222  0.50801  1.0000
  H   H1808     1.0  0.54656  0.83046  0.69329  1.0000
  H   H1809     1.0  0.57627  0.83795  0.66321  1.0000
  H   H1810     1.0  0.55188  0.75567  0.83492  1.0000
  H   H1811     1.0  0.62702  0.85570  0.60619  1.0000
  H   H1812     1.0  0.64217  0.83620  0.63216  1.0000
  H   H1813     1.0  0.62453  0.80403  0.65066  1.0000
  H   H1814     1.0  0.59159  0.79133  0.64303  1.0000
  H   H1815     1.0  0.57610  0.81048  0.61660  1.0000
  H   H1816     1.0  0.61935  0.87289  0.54678  1.0000
  H   H1817     1.0  0.63666  0.90586  0.54730  1.0000
  H   H1818     1.0  0.62998  0.92479  0.59337  1.0000
  H   H1819     1.0  0.60567  0.91030  0.63875  1.0000
  S   S312      1.0  0.60386  0.74103  0.52010  1.0000
  H   H1820     1.0  0.49084  0.84735  0.76032  1.0000
  C   C2287     1.0  0.54469  0.78018  0.94840  1.0000
  H   H1821     1.0  0.49359  0.79694  0.72109  1.0000
  H   H1822     1.0  0.59236  0.81860  0.54731  1.0000
  H   H1823     1.0  0.50429  0.77952  0.90056  1.0000
  C   C2288     1.0  0.67636  0.89996  0.53396  1.0000
  C   C2289     1.0  0.50304  0.93246  0.84867  1.0000
  H   H1824     1.0  0.55940  0.79520  0.54460  1.0000
  C   C2290     1.0  0.59883  0.83089  0.98650  1.0000
  H   H1825     1.0  0.50773  0.82944  0.81462  1.0000
  H   H1826     1.0  0.53207  0.92228  0.87964  1.0000
  C   C2291     1.0  0.52262  0.81892  0.85073  1.0000
  H   H1827     1.0  0.54708  0.88925  0.54943  1.0000
  C   C2292     1.0  0.55634  0.77030  0.83808  1.0000
  C   C2293     1.0  0.48972  0.79041  0.86519  1.0000
  C   C2294     1.0  0.58285  0.85576  0.51976  1.0000
  H   H1828     1.0  0.55417  0.84973  0.56633  1.0000
  C   C2295     1.0  0.59431  0.74713  0.77674  1.0000
  C   C2296     1.0  0.50714  0.81856  0.83338  1.0000
  H   H1829     1.0  0.53181  0.83732  0.91519  1.0000
  H   H1830     1.0  0.70441  0.74383  0.80760  1.0000
  P   P76       1.0  0.49398  0.90549  0.90213  1.0000
  Fe  Fe155     1.0  0.48319  0.84055  0.56598  1.0000
  C   C2297     1.0  0.54718  0.77759  0.86172  1.0000
  H   H1831     1.0  0.51212  0.77908  0.70275  1.0000
  H   H1832     1.0  0.49145  0.74446  0.57921  1.0000
  H   H1833     1.0  0.52059  0.83215  0.66000  1.0000
  H   H1834     1.0  0.50364  0.92196  0.83115  1.0000
  C   C2298     1.0  0.51990  0.74778  0.68537  1.0000
  C   C2299     1.0  0.50545  0.96375  0.85701  1.0000
  H   H1835     1.0  0.55299  0.76185  0.55102  1.0000
  C   C2300     1.0  0.53596  0.84086  0.61112  1.0000
  C   C2301     1.0  0.67504  0.75452  0.80383  1.0000
  C   C2302     1.0  0.53926  0.76892  0.97892  1.0000
  C   C2303     1.0  0.66226  0.74587  0.71961  1.0000
  H   H1836     1.0  0.67882  0.87451  0.52126  1.0000
  C   C2304     1.0  0.54623  0.84113  0.91748  1.0000
  H   H1837     1.0  0.53537  0.76846  0.87621  1.0000
  H   H1838     1.0  0.66982  0.89484  0.55944  1.0000
  H   H1839     1.0  0.72085  0.84129  0.52027  1.0000
  C   C2305     1.0  0.51363  0.80098  0.52395  1.0000
  H   H1840     1.0  0.65775  0.75595  0.66858  1.0000
  C   C2306     1.0  0.68151  0.88843  0.51213  1.0000
  C   C2307     1.0  0.48901  0.78700  0.70066  1.0000
  H   H1841     1.0  0.50316  0.88615  0.49861  1.0000
  H   H1842     1.0  0.66467  0.81704  0.49743  1.0000
  C   C2308     1.0  0.72877  0.74312  0.92992  1.0000
  C   C2309     1.0  0.51066  0.74093  0.71774  1.0000
  C   C2310     1.0  0.55634  0.88667  0.49648  1.0000
  C   C2311     1.0  0.58873  0.82532  0.49383  1.0000
  H   H1843     1.0  0.73519  0.09968  0.29297  1.0000
  C   C2312     1.0  0.74469  0.18017  0.44390  1.0000
  C   C2313     1.0  0.75628  0.19792  0.12394  1.0000
  C   C2314     1.0  0.74607  0.20022  0.04353  1.0000
  C   C2315     1.0  0.81375  0.22940  0.04424  1.0000
  Fe  Fe156     1.0  0.74362  0.11452  0.43004  1.0000
  C   C2316     1.0  0.88931  0.23232  0.46635  1.0000
  H   H1844     1.0  0.78861  0.16437  0.04327  1.0000
  H   H1845     1.0  0.89073  0.22333  0.48731  1.0000
  C   C2317     1.0  0.80962  0.18632  0.01428  1.0000
  C   C2318     1.0  0.73471  0.21212  0.35780  1.0000
  C   C2319     1.0  0.79338  0.17086  0.01759  1.0000
  C   C2320     1.0  0.76334  0.07229  0.40859  1.0000
  C   C2321     1.0  0.79767  0.18368  0.45744  1.0000
  H   H1846     1.0  0.86046  0.23395  0.40259  1.0000
  Fe  Fe157     1.0  0.74335  0.12435  0.03229  1.0000
  H   H1847     1.0  0.78201  0.09898  0.41929  1.0000
  H   H1848     1.0  0.74591  0.09352  0.23415  1.0000
  C   C2322     1.0  0.77439  0.22663  0.16757  1.0000
  C   C2323     1.0  0.76254  0.06301  0.34797  1.0000
  C   C2324     1.0  0.75819  0.19726  0.43696  1.0000
  H   H1849     1.0  0.82381  0.22444  0.05449  1.0000
  C   C2325     1.0  0.73771  0.10187  0.23579  1.0000
  S   S313      1.0  0.73715  0.09671  0.38187  1.0000
  C   C2326     1.0  0.76248  0.21600  0.11014  1.0000
  C   C2327     1.0  0.77178  0.23028  0.13216  1.0000
  H   H1850     1.0  0.76979  0.20578  0.20865  1.0000
  S   S314      1.0  0.74397  0.09907  0.06182  1.0000
  S   S315      1.0  0.73366  0.13505  0.08030  1.0000
  H   H1851     1.0  0.75776  0.06977  0.43541  1.0000
  C   C2328     1.0  0.87227  0.23838  0.41868  1.0000
  C   C2329     1.0  0.75274  0.19235  0.01631  1.0000
  C   C2330     1.0  0.80981  0.18610  0.48521  1.0000
  C   C2331     1.0  0.75594  0.05942  0.38293  1.0000
  C   C2332     1.0  0.76784  0.20728  0.46468  1.0000
  C   C2333     1.0  0.79603  0.22237  0.05785  1.0000
  C   C2334     1.0  0.78517  0.16616  0.44950  1.0000
  H   H1852     1.0  0.75649  0.05320  0.32799  1.0000
  C   C2335     1.0  0.73361  0.10949  0.20462  1.0000
  S   S316      1.0  0.77122  0.12771  0.45660  1.0000
  H   H1853     1.0  0.77617  0.16469  0.42782  1.0000
  H   H1854     1.0  0.83621  0.15588  0.46703  1.0000
  H   H1855     1.0  0.83242  0.12317  0.46356  1.0000
  H   H1856     1.0  0.81695  0.10524  0.41322  1.0000
  H   H1857     1.0  0.74992  0.18643  0.10742  1.0000
  H   H1858     1.0  0.81717  0.19141  0.03763  1.0000
  C   C2336     1.0  0.74154  0.17624  0.00130  1.0000
  S   S317      1.0  0.74300  0.10616  0.16361  1.0000
  C   C2337     1.0  0.78487  0.15053  0.46860  1.0000
  H   H1859     1.0  0.76668  0.19829  0.00722  1.0000
  H   H1860     1.0  0.86428  0.21289  0.44875  1.0000
  H   H1861     1.0  0.79798  0.19548  0.44175  1.0000
  C   C2338     1.0  0.76772  0.20867  0.18128  1.0000
  H   H1862     1.0  0.79262  0.21211  0.07912  1.0000
  C   C2339     1.0  0.78294  0.22847  0.04380  1.0000
  C   C2340     1.0  0.75872  0.19433  0.15944  1.0000
  C   C2341     1.0  0.76534  0.13952  0.32539  1.0000
  C   C2342     1.0  0.76667  0.14082  0.28849  1.0000
  C   C2343     1.0  0.77840  0.13421  0.27038  1.0000
  C   C2344     1.0  0.78899  0.12650  0.28919  1.0000
  C   C2345     1.0  0.78817  0.12572  0.32635  1.0000
  C   C2346     1.0  0.77599  0.13195  0.34429  1.0000
  P   P77       1.0  0.80058  0.11450  0.35102  1.0000
  C   C2347     1.0  0.78409  0.09246  0.36431  1.0000
  C   C2348     1.0  0.81892  0.11282  0.32427  1.0000
  C   C2349     1.0  0.82206  0.09637  0.32267  1.0000
  C   C2350     1.0  0.83672  0.09557  0.30262  1.0000
  C   C2351     1.0  0.84844  0.11120  0.28446  1.0000
  C   C2352     1.0  0.84557  0.12769  0.28648  1.0000
  C   C2353     1.0  0.83094  0.12853  0.30648  1.0000
  C   C2354     1.0  0.77725  0.08883  0.39932  1.0000
  H   H1863     1.0  0.75388  0.18032  0.16980  1.0000
  C   C2355     1.0  0.77650  0.07951  0.33862  1.0000
  C   C2356     1.0  0.81145  0.12764  0.38811  1.0000
  C   C2357     1.0  0.81409  0.14628  0.38982  1.0000
  C   C2358     1.0  0.82309  0.15641  0.41813  1.0000
  P   P78       1.0  0.76050  0.22082  0.06374  1.0000
  H   H1864     1.0  0.76132  0.20274  0.41019  1.0000
  C   C2359     1.0  0.81850  0.11949  0.41445  1.0000
  H   H1865     1.0  0.75558  0.14383  0.33928  1.0000
  H   H1866     1.0  0.75802  0.14621  0.27388  1.0000
  H   H1867     1.0  0.77880  0.13450  0.24170  1.0000
  H   H1868     1.0  0.79745  0.12084  0.27456  1.0000
  H   H1869     1.0  0.77446  0.13060  0.37289  1.0000
  H   H1870     1.0  0.81337  0.08421  0.33711  1.0000
  H   H1871     1.0  0.83908  0.08284  0.30133  1.0000
  H   H1872     1.0  0.85981  0.11057  0.26901  1.0000
  H   H1873     1.0  0.85473  0.13985  0.27266  1.0000
  H   H1874     1.0  0.82899  0.14145  0.30817  1.0000
  H   H1875     1.0  0.74568  0.22601  0.48049  1.0000
  H   H1876     1.0  0.78105  0.08236  0.31120  1.0000
  H   H1877     1.0  0.80919  0.15306  0.36954  1.0000
  H   H1878     1.0  0.82464  0.17065  0.41994  1.0000
  H   H1879     1.0  0.74471  0.04692  0.39005  1.0000
  H   H1880     1.0  0.73705  0.17238  0.42252  1.0000
  H   H1881     1.0  0.77837  0.22051  0.45936  1.0000
  C   C2360     1.0  0.87444  0.22646  0.44466  1.0000
  C   C2361     1.0  0.82964  0.14807  0.44472  1.0000
  C   C2362     1.0  0.73162  0.10531  0.26917  1.0000
  C   C2363     1.0  0.73396  0.23593  0.05026  1.0000
  C   C2364     1.0  0.82740  0.12964  0.44284  1.0000
  H   H1882     1.0  0.74604  0.22134  0.37133  1.0000
  C   C2365     1.0  0.74113  0.17288  0.47850  1.0000
  H   H1883     1.0  0.74539  0.19040  0.35861  1.0000
  Fe  Fe158     1.0  0.73258  0.10911  0.10884  1.0000
  H   H1884     1.0  0.73072  0.15954  0.48328  1.0000
  H   H1885     1.0  0.78184  0.23768  0.18425  1.0000
  C   C2366     1.0  0.73436  0.19453  0.35096  1.0000
  C   C2367     1.0  0.75197  0.23929  0.05867  1.0000
  S   S318      1.0  0.82581  0.20869  0.49290  1.0000
  H   H1886     1.0  0.81828  0.17195  0.52640  1.0000
  C   C2368     1.0  0.80480  0.19449  0.82719  1.0000
  C   C2369     1.0  0.73146  0.23323  0.86773  1.0000
  Fe  Fe159     1.0  0.85302  0.23834  0.93934  1.0000
  C   C2370     1.0  0.79077  0.22440  0.92750  1.0000
  Fe  Fe160     1.0  0.84492  0.22894  0.53183  1.0000
  S   S319      1.0  0.76335  0.14343  0.98965  1.0000
  C   C2371     1.0  0.81631  0.19508  0.98116  1.0000
  H   H1887     1.0  0.82782  0.21930  0.81476  1.0000
  H   H1888     1.0  0.92263  0.22741  0.66923  1.0000
  C   C2372     1.0  0.79148  0.19206  0.75744  1.0000
  H   H1889     1.0  0.76995  0.15733  0.70301  1.0000
  C   C2373     1.0  0.73853  0.23294  0.80501  1.0000
  H   H1890     1.0  0.88598  0.23854  0.74086  1.0000
  C   C2374     1.0  0.73831  0.23216  0.49688  1.0000
  C   C2375     1.0  0.75817  0.21390  0.93090  1.0000
  C   C2376     1.0  0.82913  0.18428  0.86734  1.0000
  H   H1891     1.0  0.77980  0.24012  0.66796  1.0000
  C   C2377     1.0  0.80640  0.18790  0.95129  1.0000
  C   C2378     1.0  0.79039  0.17216  0.95447  1.0000
  H   H1892     1.0  0.81130  0.19425  0.92561  1.0000
  H   H1893     1.0  0.78318  0.16662  0.93098  1.0000
  H   H1894     1.0  0.76484  0.11963  0.54937  1.0000
  C   C2379     1.0  0.77808  0.17631  0.74529  1.0000
  C   C2380     1.0  0.81136  0.17220  0.86459  1.0000
  C   C2381     1.0  0.75871  0.23105  0.91820  1.0000
  H   H1895     1.0  0.84881  0.21048  0.85079  1.0000
  P   P79       1.0  0.74620  0.17338  0.55125  1.0000
  C   C2382     1.0  0.75095  0.18277  0.50650  1.0000
  H   H1896     1.0  0.74146  0.17664  0.89399  1.0000
  C   C2383     1.0  0.74228  0.14924  0.54951  1.0000
  P   P80       1.0  0.73827  0.23589  0.91314  1.0000
  C   C2384     1.0  0.78029  0.16949  0.71236  1.0000
  C   C2385     1.0  0.76402  0.20025  0.49938  1.0000
  S   S320      1.0  0.83724  0.23926  0.66358  1.0000
  C   C2386     1.0  0.80221  0.23600  0.82614  1.0000
  S   S321      1.0  0.83729  0.21440  0.97872  1.0000
  H   H1897     1.0  0.74559  0.20304  0.93797  1.0000
  C   C2387     1.0  0.79583  0.22535  0.79662  1.0000
  H   H1898     1.0  0.77365  0.19729  0.94467  1.0000
  H   H1899     1.0  0.79778  0.17282  0.66632  1.0000
  H   H1900     1.0  0.78785  0.22580  0.74231  1.0000
  C   C2388     1.0  0.79599  0.17815  0.69172  1.0000
  H   H1901     1.0  0.74911  0.18910  0.62235  1.0000
  H   H1902     1.0  0.74679  0.17003  0.98070  1.0000
  C   C2389     1.0  0.80913  0.17053  0.50502  1.0000
  C   C2390     1.0  0.75244  0.19282  0.79572  1.0000
  H   H1903     1.0  0.80393  0.22969  0.85086  1.0000
  H   H1904     1.0  0.80317  0.22200  0.93178  1.0000
  C   C2391     1.0  0.83493  0.20122  0.84926  1.0000
  H   H1905     1.0  0.75531  0.19752  0.76835  1.0000
  C   C2392     1.0  0.73069  0.18111  0.84437  1.0000
  C   C2393     1.0  0.74454  0.18123  0.86656  1.0000
  H   H1906     1.0  0.78572  0.16745  0.84174  1.0000
  H   H1907     1.0  0.77293  0.18782  0.87144  1.0000
  C   C2394     1.0  0.80952  0.19359  0.70401  1.0000
  C   C2395     1.0  0.75361  0.12432  0.54898  1.0000
  C   C2396     1.0  0.79930  0.17717  0.84419  1.0000
  P   P81       1.0  0.78937  0.20085  0.80028  1.0000
  C   C2397     1.0  0.79311  0.23378  0.76524  1.0000
  H   H1908     1.0  0.79707  0.14106  0.51133  1.0000
  H   H1909     1.0  0.83843  0.18053  0.88346  1.0000
  C   C2398     1.0  0.76510  0.18495  0.57860  1.0000
  C   C2399     1.0  0.76249  0.19133  0.61187  1.0000
  C   C2400     1.0  0.77732  0.20102  0.63184  1.0000
  C   C2401     1.0  0.79482  0.20454  0.61865  1.0000
  C   C2402     1.0  0.79753  0.19810  0.58579  1.0000
  C   C2403     1.0  0.78275  0.18835  0.56591  1.0000
  C   C2404     1.0  0.76237  0.18726  0.85345  1.0000
  H   H1910     1.0  0.76609  0.16907  0.76134  1.0000
  H   H1911     1.0  0.82184  0.20023  0.68829  1.0000
  C   C2405     1.0  0.73618  0.11185  0.54450  1.0000
  H   H1912     1.0  0.77142  0.20851  0.52042  1.0000
  H   H1913     1.0  0.77032  0.15226  0.55435  1.0000
  C   C2406     1.0  0.76639  0.19259  0.81763  1.0000
  H   H1914     1.0  0.87147  0.23634  0.68284  1.0000
  S   S322      1.0  0.86329  0.22716  0.57587  1.0000
  H   H1915     1.0  0.80693  0.15902  0.87849  1.0000
  H   H1916     1.0  0.77529  0.20595  0.65745  1.0000
  H   H1917     1.0  0.80631  0.21234  0.63378  1.0000
  H   H1918     1.0  0.81109  0.20091  0.57531  1.0000
  H   H1919     1.0  0.78511  0.18387  0.54011  1.0000
  C   C2407     1.0  0.73466  0.18705  0.80904  1.0000
  C   C2408     1.0  0.82287  0.20626  0.82906  1.0000
  C   C2409     1.0  0.80732  0.20046  0.73678  1.0000
  C   C2410     1.0  0.75667  0.14293  0.55157  1.0000
  H   H1920     1.0  0.81811  0.21222  0.74618  1.0000
  C   C2411     1.0  0.77414  0.21057  0.93507  1.0000
  C   C2412     1.0  0.74402  0.23479  0.84006  1.0000
  C   C2413     1.0  0.78367  0.16347  0.98763  1.0000
  H   H1921     1.0  0.73387  0.09748  0.54178  1.0000
  H   H1922     1.0  0.92359  0.23438  0.73298  1.0000
  H   H1923     1.0  0.74825  0.23413  0.78378  1.0000
  H   H1924     1.0  0.75802  0.23739  0.84533  1.0000
  C   C2414     1.0  0.86545  0.24001  0.70594  1.0000
  C   C2415     1.0  0.79696  0.15295  0.49647  1.0000
  Fe  Fe161     1.0  0.78564  0.32537  0.40294  1.0000
  S   S323      1.0  0.76519  0.31704  0.36065  1.0000
  S   S324      1.0  0.80455  0.30956  0.40358  1.0000
  Fe  Fe162     1.0  0.77223  0.35533  0.42733  1.0000
  S   S325      1.0  0.75085  0.34927  0.38633  1.0000
  H   H1925     1.0  0.87170  0.40267  0.45154  1.0000
  Fe  Fe163     1.0  0.74558  0.31980  0.40127  1.0000
  H   H1926     1.0  0.73995  0.39262  0.07659  1.0000
  Fe  Fe164     1.0  0.77219  0.34687  0.34852  1.0000
  S   S326      1.0  0.78028  0.35958  0.29273  1.0000
  S   S327      1.0  0.76541  0.32574  0.44464  1.0000
  S   S328      1.0  0.79409  0.35529  0.38867  1.0000
  Fe  Fe165     1.0  0.76797  0.37142  0.03185  1.0000
  S   S329      1.0  0.73987  0.35356  0.05004  1.0000
  S   S330      1.0  0.77259  0.40193  0.02929  1.0000
  Fe  Fe166     1.0  0.78066  0.33863  0.03388  1.0000
  S   S331      1.0  0.75346  0.31902  0.05268  1.0000
  C   C2416     1.0  0.82809  0.40067  0.36859  1.0000
  Fe  Fe167     1.0  0.74279  0.33335  0.01184  1.0000
  C   C2417     1.0  0.75541  0.25765  0.37768  1.0000
  Fe  Fe168     1.0  0.75307  0.34103  0.08970  1.0000
  H   H1927     1.0  0.74276  0.43438  0.31202  1.0000
  C   C2418     1.0  0.75957  0.39538  0.33843  1.0000
  S   S332      1.0  0.78093  0.35980  0.07378  1.0000
  H   H1928     1.0  0.77997  0.47976  0.40546  1.0000
  C   C2419     1.0  0.96213  0.27836  0.45137  1.0000
  C   C2420     1.0  0.73270  0.27154  0.13403  1.0000
  H   H1929     1.0  0.77723  0.31818  0.29023  1.0000
  S   S333      1.0  0.74153  0.33430  0.14643  1.0000
  C   C2421     1.0  0.89203  0.43753  0.35752  1.0000
  H   H1930     1.0  0.78843  0.26873  0.22625  1.0000
  H   H1931     1.0  0.83036  0.37257  0.13399  1.0000
  H   H1932     1.0  0.78381  0.40073  0.41200  1.0000
  H   H1933     1.0  0.88253  0.26550  0.39539  1.0000
  H   H1934     1.0  0.78075  0.32041  0.22592  1.0000
  H   H1935     1.0  0.79392  0.28670  0.10311  1.0000
  H   H1936     1.0  0.81901  0.28678  0.20296  1.0000
  C   C2422     1.0  0.72932  0.44807  0.02031  1.0000
  H   H1937     1.0  0.83219  0.24767  0.00587  1.0000
  H   H1938     1.0  0.78384  0.26619  0.29128  1.0000
  C   C2423     1.0  0.76982  0.35119  0.25233  1.0000
  C   C2424     1.0  0.77910  0.35838  0.22008  1.0000
  C   C2425     1.0  0.77092  0.35293  0.18740  1.0000
  C   C2426     1.0  0.75319  0.34042  0.18662  1.0000
  C   C2427     1.0  0.74410  0.33285  0.21884  1.0000
  C   C2428     1.0  0.75236  0.33813  0.25150  1.0000
  H   H1939     1.0  0.79264  0.36842  0.22038  1.0000
  H   H1940     1.0  0.77817  0.35882  0.16292  1.0000
  C   C2429     1.0  0.78737  0.43679  0.46450  1.0000
  H   H1941     1.0  0.74499  0.33259  0.27603  1.0000
  H   H1942     1.0  0.86055  0.46050  0.42442  1.0000
  H   H1943     1.0  0.81453  0.32933  0.21283  1.0000
  C   C2430     1.0  0.88034  0.30851  0.47902  1.0000
  H   H1944     1.0  0.77882  0.29110  0.32370  1.0000
  H   H1945     1.0  0.82663  0.44160  0.39367  1.0000
  H   H1946     1.0  0.74209  0.41891  0.03779  1.0000
  C   C2431     1.0  0.81349  0.30405  0.44271  1.0000
  C   C2432     1.0  0.93716  0.28916  0.44770  1.0000
  H   H1947     1.0  0.81251  0.35126  0.08995  1.0000
  C   C2433     1.0  0.75179  0.47720  0.05906  1.0000
  C   C2434     1.0  0.82240  0.29154  0.44135  1.0000
  C   C2435     1.0  0.90366  0.29628  0.46543  1.0000
  H   H1948     1.0  0.82326  0.28514  0.41673  1.0000
  H   H1949     1.0  0.76615  0.44659  0.39743  1.0000
  H   H1950     1.0  0.76449  0.38461  0.34564  1.0000
  H   H1951     1.0  0.82197  0.41382  0.03495  1.0000
  C   C2436     1.0  0.76839  0.26792  0.40081  1.0000
  H   H1952     1.0  0.76660  0.28591  0.06064  1.0000
  C   C2437     1.0  0.78626  0.27969  0.24003  1.0000
  C   C2438     1.0  0.76309  0.27330  0.43278  1.0000
  C   C2439     1.0  0.74218  0.26075  0.14592  1.0000
  H   H1953     1.0  0.89503  0.43704  0.32959  1.0000
  C   C2440     1.0  0.83196  0.41655  0.38814  1.0000
  H   H1954     1.0  0.94298  0.31672  0.46532  1.0000
  C   C2441     1.0  0.81374  0.27407  0.10428  1.0000
  H   H1955     1.0  0.86586  0.37246  0.47990  1.0000
  C   C2442     1.0  0.84326  0.43634  0.45413  1.0000
  C   C2443     1.0  0.74998  0.40153  0.36328  1.0000
  C   C2444     1.0  0.75683  0.41714  0.29478  1.0000
  C   C2445     1.0  0.82408  0.42934  0.37886  1.0000
  C   C2446     1.0  0.85791  0.39360  0.45642  1.0000
  C   C2447     1.0  0.77739  0.43495  0.99607  1.0000
  C   C2448     1.0  0.82601  0.26955  0.12477  1.0000
  C   C2449     1.0  0.77967  0.30731  0.27649  1.0000
  C   C2450     1.0  0.85467  0.37642  0.47253  1.0000
  C   C2451     1.0  0.80295  0.28273  0.11958  1.0000
  H   H1956     1.0  0.82968  0.31028  0.02834  1.0000
  C   C2452     1.0  0.72953  0.45822  0.38240  1.0000
  C   C2453     1.0  0.89984  0.26221  0.43631  1.0000
  C   C2454     1.0  0.87021  0.43033  0.40679  1.0000
  C   C2455     1.0  0.81655  0.39765  0.34019  1.0000
  H   H1957     1.0  0.80631  0.43606  0.34361  1.0000
  H   H1958     1.0  0.77318  0.28179  0.45011  1.0000
  H   H1959     1.0  0.88148  0.43969  0.45748  1.0000
  C   C2456     1.0  0.80547  0.24826  0.00176  1.0000
  P   P82       1.0  0.79028  0.29822  0.17429  1.0000
  C   C2457     1.0  0.80216  0.32204  0.16197  1.0000
  P   P83       1.0  0.91450  0.28594  0.43483  1.0000
  C   C2458     1.0  0.96247  0.28116  0.00366  1.0000
  C   C2459     1.0  0.91657  0.29610  0.39099  1.0000
  C   C2460     1.0  0.91802  0.31437  0.38616  1.0000
  C   C2461     1.0  0.92008  0.32233  0.35213  1.0000
  C   C2462     1.0  0.92103  0.31222  0.32277  1.0000
  C   C2463     1.0  0.92001  0.29415  0.32744  1.0000
  C   C2464     1.0  0.91787  0.28613  0.36145  1.0000
  H   H1960     1.0  0.91285  0.45355  0.43396  1.0000
  C   C2465     1.0  0.75855  0.29889  0.14470  1.0000
  H   H1961     1.0  0.91970  0.45229  0.37007  1.0000
  C   C2466     1.0  0.74742  0.42348  0.31964  1.0000
  H   H1962     1.0  0.81289  0.27121  0.07632  1.0000
  C   C2467     1.0  0.84344  0.39868  0.44638  1.0000
  S   S334      1.0  0.80364  0.32768  0.03112  1.0000
  H   H1963     1.0  0.91772  0.32254  0.40864  1.0000
  H   H1964     1.0  0.92108  0.33640  0.34855  1.0000
  H   H1965     1.0  0.92273  0.31844  0.29643  1.0000
  C   C2468     1.0  0.73180  0.25751  0.41915  1.0000
  H   H1966     1.0  0.77772  0.24544  0.00270  1.0000
  H   H1967     1.0  0.88419  0.29864  0.42829  1.0000
  C   C2469     1.0  0.75801  0.45494  0.39412  1.0000
  S   S335      1.0  0.79303  0.46082  0.46051  1.0000
  H   H1968     1.0  0.77760  0.26055  0.06847  1.0000
  H   H1969     1.0  0.76676  0.26057  0.16768  1.0000
  H   H1970     1.0  0.83121  0.36143  0.19558  1.0000
  C   C2470     1.0  0.76819  0.28814  0.15634  1.0000
  C   C2471     1.0  0.82306  0.35223  0.17643  1.0000
  H   H1971     1.0  0.76452  0.31365  0.14482  1.0000
  C   C2472     1.0  0.94451  0.27567  0.44158  1.0000
  C   C2473     1.0  0.94810  0.30583  0.46153  1.0000
  H   H1972     1.0  0.79993  0.40801  0.30899  1.0000
  C   C2474     1.0  0.88905  0.30100  0.45489  1.0000
  C   C2475     1.0  0.96422  0.29706  0.02144  1.0000
  H   H1973     1.0  0.76955  0.39760  0.28462  1.0000
  C   C2476     1.0  0.76361  0.25746  0.06269  1.0000
  C   C2477     1.0  0.82572  0.38641  0.45318  1.0000
  C   C2478     1.0  0.73579  0.46490  0.07460  1.0000
  C   C2479     1.0  0.82773  0.27402  0.16041  1.0000
  C   C2480     1.0  0.81325  0.33399  0.18627  1.0000
  C   C2481     1.0  0.81849  0.24246  0.01652  1.0000
  C   C2482     1.0  0.88428  0.43900  0.42952  1.0000
  H   H1974     1.0  0.79415  0.31937  0.10743  1.0000
  C   C2483     1.0  0.90593  0.44613  0.38032  1.0000
  C   C2484     1.0  0.73569  0.27705  0.25398  1.0000
  H   H1975     1.0  0.73330  0.47237  0.47602  1.0000
  H   H1976     1.0  0.79052  0.43421  0.40848  1.0000
  H   H1977     1.0  0.73214  0.25249  0.22612  1.0000
  H   H1978     1.0  0.80545  0.32175  0.47602  1.0000
  H   H1979     1.0  0.91736  0.27221  0.36475  1.0000
  C   C2485     1.0  0.75660  0.47499  0.02425  1.0000
  C   C2486     1.0  0.81252  0.42625  0.35042  1.0000
  C   C2487     1.0  0.72917  0.40792  0.04178  1.0000
  C   C2488     1.0  0.90206  0.44684  0.41631  1.0000
  S   S336      1.0  0.77555  0.37484  0.47266  1.0000
  C   C2489     1.0  0.88486  0.25623  0.41459  1.0000
  H   H1980     1.0  0.83450  0.26301  0.11276  1.0000
  C   C2490     1.0  0.75746  0.27191  0.05799  1.0000
  C   C2491     1.0  0.87424  0.42963  0.37065  1.0000
  C   C2492     1.0  0.74480  0.26820  0.44181  1.0000
  C   C2493     1.0  0.75978  0.26903  0.15742  1.0000
  H   H1981     1.0  0.93663  0.26299  0.42965  1.0000
  H   H1982     1.0  0.78259  0.27222  0.39359  1.0000
  C   C2494     1.0  0.78622  0.29539  0.22150  1.0000
  H   H1983     1.0  0.74768  0.39535  0.38966  1.0000
  C   C2495     1.0  0.78198  0.30870  0.23983  1.0000
  H   H1984     1.0  0.75943  0.42311  0.26820  1.0000
  C   C2496     1.0  0.81699  0.28277  0.17574  1.0000
  H   H1985     1.0  0.81398  0.38025  0.03715  1.0000
  H   H1986     1.0  0.73206  0.46657  0.10162  1.0000
  H   H1987     1.0  0.77197  0.43812  0.02039  1.0000
  C   C2497     1.0  0.73165  0.25825  0.25164  1.0000
  C   C2498     1.0  0.82259  0.35850  0.14181  1.0000
  H   H1988     1.0  0.95290  0.30161  0.02317  1.0000
  C   C2499     1.0  0.78361  0.40803  0.43578  1.0000
  C   C2500     1.0  0.74543  0.46055  0.00493  1.0000
  C   C2501     1.0  0.81237  0.31219  0.47467  1.0000
  H   H1989     1.0  0.83395  0.39057  0.37526  1.0000
  C   C2502     1.0  0.73962  0.44691  0.38695  1.0000
  H   H1990     1.0  0.81432  0.39000  0.44572  1.0000
  C   C2503     1.0  0.74089  0.29056  0.13335  1.0000
  C   C2504     1.0  0.83048  0.28745  0.47150  1.0000
  C   C2505     1.0  0.77985  0.39862  0.46855  1.0000
  C   C2506     1.0  0.85159  0.45527  0.44728  1.0000
  C   C2507     1.0  0.80882  0.41044  0.33105  1.0000
  H   H1991     1.0  0.86891  0.31194  0.47107  1.0000
  C   C2508     1.0  0.74343  0.41534  0.35374  1.0000
  H   H1992     1.0  0.74690  0.43418  0.45270  1.0000
  C   C2509     1.0  0.78054  0.29209  0.29512  1.0000
  C   C2510     1.0  0.81232  0.34652  0.11708  1.0000
  H   H1993     1.0  0.92101  0.28640  0.30470  1.0000
  H   H1994     1.0  0.86374  0.42313  0.35240  1.0000
  H   H1995     1.0  0.81343  0.38527  0.32538  1.0000
  C   C2511     1.0  0.83130  0.43005  0.48345  1.0000
  C   C2512     1.0  0.78743  0.42702  0.43386  1.0000
  H   H1996     1.0  0.77744  0.24418  0.12179  1.0000
  C   C2513     1.0  0.80415  0.28670  0.15564  1.0000
  C   C2514     1.0  0.78351  0.27812  0.27682  1.0000
  C   C2515     1.0  0.80198  0.32841  0.12710  1.0000
  C   C2516     1.0  0.80992  0.31590  0.99679  1.0000
  H   H1997     1.0  0.85410  0.48221  0.46355  1.0000
  P   P84       1.0  0.84725  0.42049  0.42423  1.0000
  H   H1998     1.0  0.83765  0.27101  0.17596  1.0000
  C   C2517     1.0  0.96569  0.30847  0.47130  1.0000
  C   C2518     1.0  0.82253  0.36929  0.46935  1.0000
  C   C2519     1.0  0.73955  0.26835  0.04951  1.0000
  C   C2520     1.0  0.82289  0.40678  0.01111  1.0000
  H   H1999     1.0  0.83753  0.27800  0.47004  1.0000
  H   H2000     1.0  0.96758  0.26771  0.44765  1.0000
  C   C2521     1.0  0.73814  0.41998  0.45508  1.0000
  H   H2001     1.0  0.75974  0.25430  0.35235  1.0000
  C   C2522     1.0  0.73751  0.47707  0.38678  1.0000
  H   H2002     1.0  0.80488  0.47620  0.05379  1.0000
  C   C2523     1.0  0.75563  0.48481  0.39532  1.0000
  C   C2524     1.0  0.76264  0.40289  0.30403  1.0000
  H   H2003     1.0  0.73938  0.28589  0.23039  1.0000
  C   C2525     1.0  0.81189  0.49015  0.00299  1.0000
  H   H2004     1.0  0.72945  0.48560  0.38472  1.0000
  H   H2005     1.0  0.73586  0.24599  0.14632  1.0000
  C   C2526     1.0  0.73745  0.41051  0.48716  1.0000
  C   C2527     1.0  0.97266  0.29470  0.46646  1.0000
  C   C2528     1.0  0.90190  0.25015  0.46234  1.0000
  H   H2006     1.0  0.97388  0.32106  0.48329  1.0000
  C   C2529     1.0  0.84798  0.46765  0.46936  1.0000
  H   H2007     1.0  0.82425  0.41561  0.48896  1.0000
  H   H2008     1.0  0.74063  0.27278  0.46612  1.0000
  C   C2530     1.0  0.82347  0.30871  0.00286  1.0000
  H   H2009     1.0  0.76051  0.48833  0.07405  1.0000
  H   H2010     1.0  0.76906  0.48434  0.01209  1.0000
  H   H2011     1.0  0.80878  0.35990  0.47423  1.0000
  H   H2012     1.0  0.73474  0.27949  0.04556  1.0000
  H   H2013     1.0  0.91285  0.25468  0.48047  1.0000
  C   C2531     1.0  0.83700  0.36426  0.47889  1.0000
  C   C2532     1.0  0.76592  0.47378  0.39858  1.0000
  H   H2014     1.0  0.73344  0.29886  0.12425  1.0000
  C   C2533     1.0  0.81814  0.38783  0.01228  1.0000
  C   C2534     1.0  0.78767  0.24105  0.01491  1.0000
  C   C2535     1.0  0.80592  0.48836  0.03834  1.0000
  C   C2536     1.0  0.73502  0.28452  0.28687  1.0000
  H   H2015     1.0  0.73821  0.29910  0.28882  1.0000
  C   C2537     1.0  0.73699  0.25210  0.38690  1.0000
  C   C2538     1.0  0.97705  0.27529  0.00110  1.0000
  C   C2539     1.0  0.73042  0.27326  0.31743  1.0000
  H   H2016     1.0  0.73040  0.32315  0.21857  1.0000
  P   P85       1.0  0.72942  0.42232  0.38396  1.0000
  H   H2017     1.0  0.73007  0.27935  0.34274  1.0000
  H   H2018     1.0  0.83451  0.35091  0.49107  1.0000
  S   S337      1.0  0.84167  0.29301  0.54042  1.0000
  S   S338      1.0  0.82950  0.28804  0.90725  1.0000
  S   S339      1.0  0.87072  0.27072  0.59119  1.0000
  H   H2019     1.0  0.97048  0.29774  0.78634  1.0000
  S   S340      1.0  0.76250  0.47272  0.53343  1.0000
  C   C2540     1.0  0.82078  0.30840  0.50465  1.0000
  C   C2541     1.0  0.82835  0.41660  0.97901  1.0000
  P   P86       1.0  0.74774  0.26538  0.58225  1.0000
  H   H2020     1.0  0.94661  0.32736  0.95454  1.0000
  S   S341      1.0  0.77362  0.47564  0.63330  1.0000
  Fe  Fe169     1.0  0.85183  0.26949  0.54695  1.0000
  C   C2542     1.0  0.79752  0.25272  0.76302  1.0000
  H   H2021     1.0  0.73365  0.28654  0.53381  1.0000
  C   C2543     1.0  0.80679  0.25496  0.82375  1.0000
  S   S342      1.0  0.87596  0.28210  0.87846  1.0000
  C   C2544     1.0  0.80207  0.31382  0.96371  1.0000
  H   H2022     1.0  0.86435  0.27882  0.66967  1.0000
  Fe  Fe170     1.0  0.84985  0.27360  0.91053  1.0000
  H   H2023     1.0  0.74565  0.41745  0.50869  1.0000
  C   C2545     1.0  0.75589  0.28923  0.56802  1.0000
  Fe  Fe171     1.0  0.86728  0.25269  0.86395  1.0000
  C   C2546     1.0  0.77983  0.40839  0.49923  1.0000
  S   S343      1.0  0.79960  0.46153  0.90288  1.0000
  H   H2024     1.0  0.73881  0.28968  0.63135  1.0000
  C   C2547     1.0  0.94088  0.30077  0.93300  1.0000
  C   C2548     1.0  0.94889  0.28921  0.91823  1.0000
  C   C2549     1.0  0.83000  0.29616  0.50308  1.0000
  C   C2550     1.0  0.81842  0.37859  0.98131  1.0000
  C   C2551     1.0  0.78139  0.48860  0.67131  1.0000
  C   C2552     1.0  0.84470  0.35889  0.94182  1.0000
  H   H2025     1.0  0.92597  0.26485  0.75159  1.0000
  C   C2553     1.0  0.79079  0.44466  0.93722  1.0000
  C   C2554     1.0  0.79267  0.42760  0.93414  1.0000
  C   C2555     1.0  0.84977  0.24894  0.76652  1.0000
  H   H2026     1.0  0.81404  0.36379  0.98257  1.0000
  C   C2556     1.0  0.78119  0.49024  0.73581  1.0000
  C   C2557     1.0  0.95965  0.27493  0.82315  1.0000
  C   C2558     1.0  0.89167  0.28714  0.68709  1.0000
  H   H2027     1.0  0.84366  0.25239  0.78972  1.0000
  H   H2028     1.0  0.86124  0.30832  0.68253  1.0000
  C   C2559     1.0  0.77826  0.32005  0.57002  1.0000
  C   C2560     1.0  0.87363  0.24124  0.73887  1.0000
  C   C2561     1.0  0.87377  0.30639  0.68779  1.0000
  C   C2562     1.0  0.78054  0.24713  0.64268  1.0000
  H   H2029     1.0  0.81840  0.43756  0.52787  1.0000
  H   H2030     1.0  0.73668  0.45166  0.87590  1.0000
  H   H2031     1.0  0.76730  0.46605  0.70729  1.0000
  C   C2563     1.0  0.96942  0.28038  0.55142  1.0000
  C   C2564     1.0  0.93718  0.27603  0.55657  1.0000
  C   C2565     1.0  0.90004  0.30577  0.52483  1.0000
  S   S344      1.0  0.86246  0.26731  0.95918  1.0000
  H   H2032     1.0  0.74206  0.42371  0.63149  1.0000
  C   C2566     1.0  0.93009  0.30156  0.75757  1.0000
  C   C2567     1.0  0.76653  0.25971  0.59763  1.0000
  C   C2568     1.0  0.80797  0.30495  0.93681  1.0000
  C   C2569     1.0  0.95244  0.31816  0.94330  1.0000
  Fe  Fe172     1.0  0.88298  0.25517  0.55625  1.0000
  C   C2570     1.0  0.80451  0.26332  0.79217  1.0000
  H   H2033     1.0  0.82032  0.31514  0.52904  1.0000
  C   C2571     1.0  0.85379  0.34662  0.94307  1.0000
  C   C2572     1.0  0.79780  0.26238  0.59027  1.0000
  C   C2573     1.0  0.76862  0.32625  0.54574  1.0000
  S   S345      1.0  0.91678  0.29418  0.94034  1.0000
  C   C2574     1.0  0.85422  0.33633  0.91371  1.0000
  H   H2034     1.0  0.77358  0.34047  0.53665  1.0000
  H   H2035     1.0  0.80845  0.25080  0.63241  1.0000
  C   C2575     1.0  0.82420  0.38836  0.94903  1.0000
  C   C2576     1.0  0.97316  0.28700  0.80085  1.0000
  C   C2577     1.0  0.83142  0.40800  0.81789  1.0000
  C   C2578     1.0  0.84986  0.41832  0.81829  1.0000
  C   C2579     1.0  0.86023  0.41548  0.84553  1.0000
  C   C2580     1.0  0.85214  0.40244  0.87256  1.0000
  C   C2581     1.0  0.83359  0.39216  0.87256  1.0000
  C   C2582     1.0  0.82329  0.39490  0.84482  1.0000
  P   P87       1.0  0.82345  0.37615  0.90890  1.0000
  C   C2583     1.0  0.83572  0.36075  0.91123  1.0000
  C   C2584     1.0  0.84153  0.24758  0.73360  1.0000
  C   C2585     1.0  0.74931  0.29459  0.94912  1.0000
  H   H2036     1.0  0.97100  0.27185  0.66924  1.0000
  H   H2037     1.0  0.92931  0.32408  0.65097  1.0000
  S   S346      1.0  0.87590  0.24536  0.81046  1.0000
  H   H2038     1.0  0.77644  0.25820  0.90025  1.0000
  C   C2586     1.0  0.97470  0.33643  0.64102  1.0000
  H   H2039     1.0  0.83285  0.47081  0.51497  1.0000
  H   H2040     1.0  0.74963  0.45915  0.97817  1.0000
  C   C2587     1.0  0.84567  0.33838  0.88295  1.0000
  C   C2588     1.0  0.83663  0.35069  0.88153  1.0000
  C   C2589     1.0  0.79972  0.36387  0.90254  1.0000
  C   C2590     1.0  0.79276  0.34481  0.89945  1.0000
  C   C2591     1.0  0.77421  0.33549  0.89670  1.0000
  C   C2592     1.0  0.76242  0.34504  0.89760  1.0000
  C   C2593     1.0  0.76924  0.36402  0.90051  1.0000
  C   C2594     1.0  0.78781  0.37340  0.90295  1.0000
  H   H2041     1.0  0.82340  0.41026  0.79677  1.0000
  H   H2042     1.0  0.85610  0.42857  0.79753  1.0000
  H   H2043     1.0  0.87453  0.42350  0.84587  1.0000
  H   H2044     1.0  0.86031  0.40051  0.89373  1.0000
  H   H2045     1.0  0.80902  0.38708  0.84380  1.0000
  C   C2595     1.0  0.78289  0.44817  0.96815  1.0000
  C   C2596     1.0  0.88811  0.32041  0.70208  1.0000
  C   C2597     1.0  0.82902  0.40746  0.94805  1.0000
  C   C2598     1.0  0.77182  0.30169  0.58153  1.0000
  C   C2599     1.0  0.82174  0.29803  0.94271  1.0000
  H   H2046     1.0  0.78413  0.27307  0.55266  1.0000
  C   C2600     1.0  0.86571  0.24542  0.76938  1.0000
  C   C2601     1.0  0.75364  0.26576  0.95552  1.0000
  H   H2047     1.0  0.84583  0.33014  0.86048  1.0000
  H   H2048     1.0  0.83002  0.35209  0.85749  1.0000
  H   H2049     1.0  0.80145  0.33697  0.89991  1.0000
  H   H2050     1.0  0.74799  0.33772  0.89671  1.0000
  H   H2051     1.0  0.75319  0.24572  0.64634  1.0000
  H   H2052     1.0  0.76012  0.37144  0.90168  1.0000
  H   H2053     1.0  0.79288  0.38808  0.90562  1.0000
  C   C2602     1.0  0.92613  0.27577  0.69824  1.0000
  H   H2054     1.0  0.80437  0.25224  0.90951  1.0000
  H   H2055     1.0  0.73246  0.45619  0.71337  1.0000
  C   C2603     1.0  0.95097  0.26914  0.55006  1.0000
  C   C2604     1.0  0.94573  0.31402  0.68449  1.0000
  H   H2056     1.0  0.92614  0.28189  0.64202  1.0000
  C   C2605     1.0  0.91863  0.29289  0.81800  1.0000
  H   H2057     1.0  0.81233  0.26323  0.84625  1.0000
  H   H2058     1.0  0.76064  0.24507  0.52954  1.0000
  C   C2606     1.0  0.77578  0.48029  0.70497  1.0000
  C   C2607     1.0  0.78656  0.41412  0.96158  1.0000
  C   C2608     1.0  0.90425  0.31783  0.70889  1.0000
  S   S347      1.0  0.88002  0.24418  0.91062  1.0000
  H   H2059     1.0  0.96465  0.32021  0.57136  1.0000
  H   H2060     1.0  0.83279  0.41537  0.92343  1.0000
  H   H2061     1.0  0.94041  0.27580  0.91018  1.0000
  H   H2062     1.0  0.95863  0.32865  0.81696  1.0000
  C   C2609     1.0  0.95725  0.33596  0.63528  1.0000
  H   H2063     1.0  0.78345  0.43472  0.52103  1.0000
  H   H2064     1.0  0.84482  0.36678  0.96484  1.0000
  H   H2065     1.0  0.90837  0.28404  0.83637  1.0000
  C   C2610     1.0  0.82932  0.29977  0.97605  1.0000
  H   H2066     1.0  0.74637  0.43463  0.69262  1.0000
  C   C2611     1.0  0.82788  0.44248  0.50566  1.0000
  S   S348      1.0  0.77015  0.35194  0.99072  1.0000
  H   H2067     1.0  0.77708  0.40126  0.52472  1.0000
  C   C2612     1.0  0.74664  0.43053  0.89158  1.0000
  S   S349      1.0  0.91394  0.26078  0.55351  1.0000
  H   H2068     1.0  0.75950  0.25729  0.96970  1.0000
  H   H2069     1.0  0.95530  0.32489  0.75288  1.0000
  H   H2070     1.0  0.73756  0.40716  0.97057  1.0000
  H   H2071     1.0  0.75492  0.43211  0.86774  1.0000
  H   H2072     1.0  0.86088  0.32648  0.91502  1.0000
  S   S350      1.0  0.86534  0.25595  0.51004  1.0000
  Fe  Fe173     1.0  0.88835  0.27370  0.92573  1.0000
  H   H2073     1.0  0.90391  0.30705  0.55218  1.0000
  S   S351      1.0  0.83999  0.24473  0.89133  1.0000
  C   C2613     1.0  0.75716  0.28357  0.96633  1.0000
  C   C2614     1.0  0.92559  0.26224  0.72368  1.0000
  C   C2615     1.0  0.94239  0.29457  0.56488  1.0000
  Fe  Fe174     1.0  0.79089  0.48574  0.89109  1.0000
  C   C2616     1.0  0.74657  0.41783  0.91816  1.0000
  H   H2074     1.0  0.73170  0.29636  0.90807  1.0000
  H   H2075     1.0  0.93215  0.30021  0.57051  1.0000
  C   C2617     1.0  0.74616  0.29566  0.54405  1.0000
  H   H2076     1.0  0.77665  0.48368  0.76150  1.0000
  C   C2618     1.0  0.87555  0.28977  0.68042  1.0000
  H   H2077     1.0  0.75474  0.40952  0.91480  1.0000
  C   C2619     1.0  0.74259  0.25897  0.92674  1.0000
  C   C2620     1.0  0.77553  0.24480  0.91005  1.0000
  H   H2078     1.0  0.78817  0.40112  0.95919  1.0000
  C   C2621     1.0  0.96095  0.30594  0.56566  1.0000
  H   H2079     1.0  0.81037  0.26725  0.57493  1.0000
  H   H2080     1.0  0.80202  0.30368  0.91112  1.0000
  H   H2081     1.0  0.88668  0.33325  0.70803  1.0000
  C   C2622     1.0  0.79671  0.25315  0.62273  1.0000
  S   S352      1.0  0.77204  0.48237  0.84593  1.0000
  H   H2082     1.0  0.79164  0.31928  0.95876  1.0000
  H   H2083     1.0  0.94665  0.27637  0.82586  1.0000
  H   H2084     1.0  0.89258  0.27406  0.68146  1.0000
  H   H2085     1.0  0.94738  0.25492  0.54376  1.0000
  C   C2623     1.0  0.93376  0.30658  0.83072  1.0000
  H   H2086     1.0  0.91521  0.32875  0.72024  1.0000
  C   C2624     1.0  0.73094  0.26128  0.61758  1.0000
  C   C2625     1.0  0.76547  0.25034  0.63022  1.0000
  C   C2626     1.0  0.92456  0.25436  0.65188  1.0000
  C   C2627     1.0  0.94277  0.32471  0.65674  1.0000
  C   C2628     1.0  0.73647  0.44161  0.89624  1.0000
  C   C2629     1.0  0.94696  0.31795  0.80700  1.0000
  H   H2087     1.0  0.78157  0.46129  0.97098  1.0000
  C   C2630     1.0  0.94509  0.31558  0.77054  1.0000
  C   C2631     1.0  0.73464  0.27009  0.90966  1.0000
  C   C2632     1.0  0.73676  0.41654  0.94985  1.0000
  C   C2633     1.0  0.92575  0.27172  0.66222  1.0000
  C   C2634     1.0  0.73804  0.28785  0.92086  1.0000
  C   C2635     1.0  0.91666  0.29053  0.78163  1.0000
  C   C2636     1.0  0.90621  0.30123  0.70115  1.0000
  H   H2088     1.0  0.96573  0.30599  0.71047  1.0000
  P   P88       1.0  0.92711  0.29819  0.71060  1.0000
  H   H2089     1.0  0.95490  0.34399  0.61359  1.0000
  H   H2090     1.0  0.79073  0.32948  0.57995  1.0000
  H   H2091     1.0  0.79898  0.42487  0.91047  1.0000
  C   C2637     1.0  0.78283  0.26562  0.57770  1.0000
  C   C2638     1.0  0.73540  0.43267  0.64079  1.0000
  C   C2639     1.0  0.96327  0.31448  0.68984  1.0000
  H   H2092     1.0  0.80829  0.27804  0.79029  1.0000
  H   H2093     1.0  0.75186  0.30831  0.95789  1.0000
  H   H2094     1.0  0.92405  0.25131  0.62403  1.0000
  H   H2095     1.0  0.93516  0.30842  0.85898  1.0000
  C   C2640     1.0  0.96795  0.29477  0.91492  1.0000
  H   H2096     1.0  0.76897  0.32079  0.89455  1.0000
  H   H2097     1.0  0.86028  0.34484  0.96702  1.0000
  C   C2641     1.0  0.96301  0.26123  0.84258  1.0000
  H   H2098     1.0  0.90466  0.27998  0.77235  1.0000
  H   H2099     1.0  0.77935  0.29733  0.60089  1.0000
  H   H2100     1.0  0.74489  0.31902  0.51482  1.0000
  C   C2642     1.0  0.97148  0.32385  0.93933  1.0000
  H   H2101     1.0  0.83158  0.43125  0.97796  1.0000
  C   C2643     1.0  0.75247  0.31410  0.53319  1.0000
  H   H2102     1.0  0.80921  0.25821  0.97986  1.0000
  C   C2644     1.0  0.90876  0.29829  0.50076  1.0000
  H   H2103     1.0  0.83998  0.29460  0.98094  1.0000
  C   C2645     1.0  0.84918  0.24286  0.70333  1.0000
  C   C2646     1.0  0.74676  0.24313  0.52470  1.0000
  H   H2104     1.0  0.79589  0.25925  0.73846  1.0000
  C   C2647     1.0  0.97771  0.32574  0.66837  1.0000
  C   C2648     1.0  0.73722  0.25128  0.54582  1.0000
  Fe  Fe175     1.0  0.78840  0.47981  0.50139  1.0000
  H   H2105     1.0  0.97383  0.28546  0.90434  1.0000
  H   H2106     1.0  0.74009  0.48806  0.95419  1.0000
  H   H2107     1.0  0.91922  0.29371  0.50992  1.0000
  Fe  Fe176     1.0  0.85059  0.24333  0.60858  1.0000
  Fe  Fe177     1.0  0.78032  0.48760  0.57715  1.0000
  C   C2649     1.0  0.72974  0.27580  0.63710  1.0000
  C   C2650     1.0  0.73784  0.43886  0.67528  1.0000
  H   H2108     1.0  0.87897  0.31655  0.53270  1.0000
  H   H2109     1.0  0.95261  0.25209  0.86032  1.0000
  S   S353      1.0  0.83110  0.24304  0.56639  1.0000
  H   H2110     1.0  0.76592  0.28887  0.98817  1.0000
  H   H2111     1.0  0.82907  0.24999  0.73161  1.0000
  H   H2112     1.0  0.81546  0.47945  0.99101  1.0000
  C   C2651     1.0  0.78339  0.42735  0.49722  1.0000
  C   C2652     1.0  0.97470  0.29899  0.55890  1.0000
  C   C2653     1.0  0.92436  0.24487  0.71320  1.0000
  C   C2654     1.0  0.83607  0.46125  0.49846  1.0000
  C   C2655     1.0  0.88594  0.31104  0.51388  1.0000
  H   H2113     1.0  0.97648  0.27708  0.73250  1.0000
  C   C2656     1.0  0.73005  0.45120  0.68683  1.0000
  C   C2657     1.0  0.92379  0.24092  0.67734  1.0000
  C   C2658     1.0  0.79144  0.24150  0.91504  1.0000
  C   C2659     1.0  0.77912  0.41783  0.99288  1.0000
  H   H2114     1.0  0.94984  0.27351  0.99159  1.0000
  H   H2115     1.0  0.97566  0.26297  0.98723  1.0000
  Fe  Fe178     1.0  0.87844  0.66428  0.34798  1.0000
  S   S354      1.0  0.88902  0.68423  0.39164  1.0000
  S   S355      1.0  0.88092  0.67723  0.29232  1.0000
  Fe  Fe179     1.0  0.87312  0.63141  0.39826  1.0000
  S   S356      1.0  0.88453  0.64926  0.44370  1.0000
  S   S357      1.0  0.86364  0.60030  0.40024  1.0000
  Fe  Fe180     1.0  0.86633  0.66414  0.42613  1.0000
  H   H2116     1.0  0.78347  0.63521  0.14838  1.0000
  Fe  Fe181     1.0  0.90616  0.66775  0.40561  1.0000
  S   S358      1.0  0.93735  0.67645  0.40742  1.0000
  S   S359      1.0  0.85455  0.64573  0.38120  1.0000
  S   S360      1.0  0.89587  0.64833  0.36129  1.0000
  Fe  Fe182     1.0  0.86990  0.65011  0.08915  1.0000
  S   S361      1.0  0.87831  0.67893  0.06615  1.0000
  S   S362      1.0  0.86103  0.63787  0.14486  1.0000
  Fe  Fe183     1.0  0.87510  0.63451  0.01794  1.0000
  C   C2660     1.0  0.92044  0.63133  0.13037  1.0000
  Fe  Fe184     1.0  0.90153  0.67323  0.03891  1.0000
  S   S363      1.0  0.93308  0.68816  0.03888  1.0000
  Fe  Fe185     1.0  0.86076  0.66555  0.01995  1.0000
  C   C2661     1.0  0.73190  0.58003  0.10383  1.0000
  S   S364      1.0  0.89314  0.64479  0.06371  1.0000
  S   S365      1.0  0.85111  0.63738  0.04522  1.0000
  C   C2662     1.0  0.95460  0.70661  0.04343  1.0000
  C   C2663     1.0  0.95601  0.72467  0.04897  1.0000
  C   C2664     1.0  0.76820  0.58285  0.14799  1.0000
  C   C2665     1.0  0.93795  0.73349  0.29793  1.0000
  C   C2666     1.0  0.73244  0.57432  0.19393  1.0000
  C   C2667     1.0  0.79047  0.60100  0.05330  1.0000
  P   P89       1.0  0.94471  0.68142  0.17404  1.0000
  H   H2117     1.0  0.90813  0.70741  0.10214  1.0000
  C   C2668     1.0  0.97455  0.72430  0.44254  1.0000
  H   H2118     1.0  0.81785  0.62332  0.45819  1.0000
  H   H2119     1.0  0.74915  0.62621  0.06608  1.0000
  H   H2120     1.0  0.91845  0.64328  0.17967  1.0000
  C   C2669     1.0  0.95775  0.69543  0.41515  1.0000
  C   C2670     1.0  0.75915  0.59696  0.04410  1.0000
  C   C2671     1.0  0.93424  0.65830  0.28919  1.0000
  C   C2672     1.0  0.94641  0.66519  0.11003  1.0000
  C   C2673     1.0  0.95797  0.71069  0.43386  1.0000
  H   H2121     1.0  0.75064  0.69427  0.04332  1.0000
  C   C2674     1.0  0.80599  0.66727  0.01197  1.0000
  H   H2122     1.0  0.79674  0.50045  0.08104  1.0000
  C   C2675     1.0  0.87613  0.66589  0.25155  1.0000
  C   C2676     1.0  0.88025  0.67637  0.21969  1.0000
  C   C2677     1.0  0.87633  0.66801  0.18673  1.0000
  C   C2678     1.0  0.86786  0.64903  0.18533  1.0000
  C   C2679     1.0  0.86395  0.63853  0.21717  1.0000
  C   C2680     1.0  0.86818  0.64687  0.25009  1.0000
  H   H2123     1.0  0.88632  0.69108  0.22056  1.0000
  H   H2124     1.0  0.87941  0.67628  0.16251  1.0000
  H   H2125     1.0  0.85743  0.62384  0.21642  1.0000
  H   H2126     1.0  0.86494  0.63862  0.27435  1.0000
  C   C2681     1.0  0.85248  0.58621  0.43736  1.0000
  H   H2127     1.0  0.75294  0.61848  0.15083  1.0000
  C   C2682     1.0  0.83574  0.55547  0.46218  1.0000
  C   C2683     1.0  0.92921  0.71515  0.30837  1.0000
  H   H2128     1.0  0.75515  0.61366  0.00072  1.0000
  C   C2684     1.0  0.74398  0.69487  0.48829  1.0000
  C   C2685     1.0  0.81012  0.60968  0.46848  1.0000
  H   H2129     1.0  0.96289  0.71954  0.14672  1.0000
  H   H2130     1.0  0.84535  0.56159  0.40790  1.0000
  H   H2131     1.0  0.97013  0.68925  0.03769  1.0000
  H   H2132     1.0  0.76669  0.51450  0.00784  1.0000
  C   C2686     1.0  0.79397  0.65053  0.46051  1.0000
  H   H2133     1.0  0.97770  0.67308  0.17271  1.0000
  C   C2687     1.0  0.78765  0.66518  0.00843  1.0000
  H   H2134     1.0  0.90299  0.72596  0.15046  1.0000
  H   H2135     1.0  0.97444  0.73569  0.45795  1.0000
  H   H2136     1.0  0.79668  0.58765  0.14770  1.0000
  H   H2137     1.0  0.92279  0.63845  0.43702  1.0000
  H   H2138     1.0  0.80622  0.62099  0.14715  1.0000
  C   C2688     1.0  0.94150  0.65094  0.08638  1.0000
  H   H2139     1.0  0.77970  0.66558  0.03170  1.0000
  C   C2689     1.0  0.92529  0.64559  0.15408  1.0000
  H   H2140     1.0  0.90771  0.60901  0.40822  1.0000
  H   H2141     1.0  0.75622  0.67192  0.42373  1.0000
  H   H2142     1.0  0.82977  0.54089  0.45872  1.0000
  H   H2143     1.0  0.95916  0.66592  0.47032  1.0000
  C   C2690     1.0  0.75416  0.68650  0.46996  1.0000
  C   C2691     1.0  0.90658  0.60980  0.43667  1.0000
  C   C2692     1.0  0.81187  0.59465  0.45207  1.0000
  H   H2144     1.0  0.91202  0.66589  0.21854  1.0000
  C   C2693     1.0  0.89373  0.59553  0.49336  1.0000
  C   C2694     1.0  0.94097  0.67286  0.21952  1.0000
  H   H2145     1.0  0.80050  0.59756  0.06762  1.0000
  C   C2695     1.0  0.92330  0.66585  0.23403  1.0000
  H   H2146     1.0  0.76163  0.49932  0.39989  1.0000
  C   C2696     1.0  0.89609  0.59437  0.45691  1.0000
  C   C2697     1.0  0.91368  0.70695  0.12788  1.0000
  C   C2698     1.0  0.95526  0.67272  0.24055  1.0000
  C   C2699     1.0  0.77208  0.59181  0.06123  1.0000
  C   C2700     1.0  0.73633  0.56210  0.12198  1.0000
  C   C2701     1.0  0.80207  0.57699  0.46527  1.0000
  C   C2702     1.0  0.76513  0.51692  0.15894  1.0000
  C   C2703     1.0  0.92857  0.63398  0.09658  1.0000
  H   H2147     1.0  0.73965  0.54796  0.17867  1.0000
  H   H2148     1.0  0.93162  0.65283  0.31617  1.0000
  H   H2149     1.0  0.78449  0.64447  0.44018  1.0000
  H   H2150     1.0  0.88911  0.58168  0.44399  1.0000
  C   C2704     1.0  0.81267  0.65550  0.45298  1.0000
  C   C2705     1.0  0.79197  0.61254  0.14749  1.0000
  C   C2706     1.0  0.96805  0.69521  0.16323  1.0000
  H   H2151     1.0  0.94388  0.72784  0.05038  1.0000
  H   H2152     1.0  0.80747  0.52969  0.12257  1.0000
  C   C2707     1.0  0.77911  0.62043  0.14808  1.0000
  C   C2708     1.0  0.84462  0.56723  0.43343  1.0000
  C   C2709     1.0  0.91095  0.71751  0.15500  1.0000
  H   H2153     1.0  0.96294  0.66541  0.29139  1.0000
  H   H2154     1.0  0.92435  0.62312  0.07783  1.0000
  H   H2155     1.0  0.91486  0.70985  0.31495  1.0000
  C   C2710     1.0  0.95651  0.74030  0.29007  1.0000
  C   C2711     1.0  0.80234  0.51782  0.03347  1.0000
  C   C2712     1.0  0.78650  0.59382  0.14778  1.0000
  P   P90       1.0  0.79629  0.53593  0.05219  1.0000
  C   C2713     1.0  0.78382  0.52828  0.09369  1.0000
  C   C2714     1.0  0.81620  0.55551  0.06135  1.0000
  C   C2715     1.0  0.81495  0.56851  0.08518  1.0000
  C   C2716     1.0  0.83014  0.58391  0.09202  1.0000
  C   C2717     1.0  0.84669  0.58635  0.07534  1.0000
  C   C2718     1.0  0.84812  0.57336  0.05212  1.0000
  C   C2719     1.0  0.83295  0.55808  0.04486  1.0000
  C   C2720     1.0  0.76514  0.52438  0.09644  1.0000
  C   C2721     1.0  0.96639  0.72866  0.29143  1.0000
  C   C2722     1.0  0.79304  0.52661  0.12404  1.0000
  C   C2723     1.0  0.78240  0.54229  0.02119  1.0000
  C   C2724     1.0  0.74864  0.67901  0.43717  1.0000
  H   H2156     1.0  0.75794  0.51243  0.18413  1.0000
  C   C2725     1.0  0.92850  0.70601  0.19387  1.0000
  H   H2157     1.0  0.93418  0.70586  0.21958  1.0000
  C   C2726     1.0  0.78504  0.56072  0.01434  1.0000
  H   H2158     1.0  0.93231  0.68969  0.32100  1.0000
  H   H2159     1.0  0.73581  0.71767  0.31283  1.0000
  C   C2727     1.0  0.79601  0.61445  0.02630  1.0000
  H   H2160     1.0  0.80220  0.56689  0.09808  1.0000
  H   H2161     1.0  0.82921  0.59410  0.11002  1.0000
  H   H2162     1.0  0.85841  0.59844  0.08007  1.0000
  H   H2163     1.0  0.86096  0.57548  0.03884  1.0000
  H   H2164     1.0  0.83442  0.54857  0.02599  1.0000
  H   H2165     1.0  0.75765  0.52561  0.07365  1.0000
  C   C2728     1.0  0.97443  0.69449  0.40415  1.0000
  C   C2729     1.0  0.97080  0.70305  0.04182  1.0000
  C   C2730     1.0  0.95753  0.71033  0.30276  1.0000
  H   H2166     1.0  0.91608  0.72507  0.20917  1.0000
  H   H2167     1.0  0.81736  0.65333  0.42706  1.0000
  H   H2168     1.0  0.79601  0.57140  0.02589  1.0000
  C   C2731     1.0  0.85148  0.59335  0.47054  1.0000
  C   C2732     1.0  0.93904  0.70367  0.31129  1.0000
  C   C2733     1.0  0.97708  0.62586  0.05801  1.0000
  S   S366      1.0  0.84914  0.67023  0.47076  1.0000
  H   H2169     1.0  0.85736  0.60795  0.47385  1.0000
  H   H2170     1.0  0.96486  0.70123  0.30615  1.0000
  P   P91       1.0  0.73544  0.58640  0.05640  1.0000
  C   C2734     1.0  0.74367  0.69687  0.02074  1.0000
  C   C2735     1.0  0.91262  0.62764  0.48932  1.0000
  C   C2736     1.0  0.80127  0.50218  0.05367  1.0000
  C   C2737     1.0  0.93105  0.69513  0.16685  1.0000
  H   H2171     1.0  0.96900  0.67833  0.23067  1.0000
  H   H2172     1.0  0.73362  0.57298  0.22225  1.0000
  H   H2173     1.0  0.76798  0.58060  0.08028  1.0000
  C   C2738     1.0  0.92357  0.69570  0.13382  1.0000
  C   C2739     1.0  0.76073  0.60974  0.14907  1.0000
  H   H2174     1.0  0.81026  0.62153  0.02005  1.0000
  C   C2740     1.0  0.91997  0.65863  0.26867  1.0000
  C   C2741     1.0  0.97284  0.71322  0.14969  1.0000
  H   H2175     1.0  0.97456  0.68280  0.38975  1.0000
  C   C2742     1.0  0.73300  0.67998  0.42256  1.0000
  H   H2176     1.0  0.76681  0.56866  0.14685  1.0000
  H   H2177     1.0  0.81195  0.66940  0.03769  1.0000
  H   H2178     1.0  0.90997  0.61837  0.13789  1.0000
  H   H2179     1.0  0.90628  0.65343  0.27965  1.0000
  C   C2743     1.0  0.93842  0.66264  0.14416  1.0000
  H   H2180     1.0  0.74071  0.55332  0.10573  1.0000
  C   C2744     1.0  0.91838  0.71706  0.18798  1.0000
  H   H2181     1.0  0.73332  0.70772  0.37551  1.0000
  H   H2182     1.0  0.94537  0.71169  0.44274  1.0000
  H   H2183     1.0  0.79094  0.51960  0.17975  1.0000
  H   H2184     1.0  0.95598  0.67840  0.10113  1.0000
  H   H2185     1.0  0.82093  0.59672  0.42922  1.0000
  H   H2186     1.0  0.80353  0.56535  0.45262  1.0000
  C   C2745     1.0  0.78372  0.52091  0.15648  1.0000
  C   C2746     1.0  0.75585  0.51867  0.12896  1.0000
  H   H2187     1.0  0.94720  0.65334  0.05965  1.0000
  H   H2188     1.0  0.74141  0.51549  0.13089  1.0000
  H   H2189     1.0  0.92539  0.68755  0.11251  1.0000
  C   C2747     1.0  0.73562  0.62217  0.05629  1.0000
  C   C2748     1.0  0.97311  0.73880  0.05202  1.0000
  S   S367      1.0  0.78789  0.50684  0.48005  1.0000
  C   C2749     1.0  0.75281  0.58941  0.14847  1.0000
  C   C2750     1.0  0.78314  0.61860  0.00705  1.0000
  C   C2751     1.0  0.95188  0.66541  0.27518  1.0000
  C   C2752     1.0  0.82523  0.66332  0.47885  1.0000
  C   C2753     1.0  0.76878  0.52878  0.00364  1.0000
  H   H2190     1.0  0.96369  0.61578  0.06315  1.0000
  C   C2754     1.0  0.91497  0.62640  0.45291  1.0000
  H   H2191     1.0  0.76738  0.71753  0.99808  1.0000
  C   C2755     1.0  0.80842  0.51945  0.99805  1.0000
  C   C2756     1.0  0.76481  0.60993  0.01581  1.0000
  C   C2757     1.0  0.73645  0.55915  0.16722  1.0000
  H   H2192     1.0  0.76601  0.68526  0.48164  1.0000
  H   H2193     1.0  0.73618  0.64983  0.05449  1.0000
  H   H2194     1.0  0.97699  0.64016  0.10579  1.0000
  C   C2758     1.0  0.96586  0.67551  0.49031  1.0000
  C   C2759     1.0  0.75312  0.71013  0.99498  1.0000
  C   C2760     1.0  0.85162  0.63539  0.57335  1.0000
  H   H2195     1.0  0.74660  0.54904  0.53339  1.0000
  Fe  Fe186     1.0  0.80359  0.51926  0.52761  1.0000
  S   S368      1.0  0.77868  0.51451  0.56152  1.0000
  C   C2761     1.0  0.88027  0.62290  0.56352  1.0000
  C   C2762     1.0  0.85358  0.57703  0.95763  1.0000
  C   C2763     1.0  0.79998  0.66117  0.51983  1.0000
  C   C2764     1.0  0.76067  0.54633  0.62776  1.0000
  Fe  Fe187     1.0  0.79399  0.52534  0.90273  1.0000
  S   S369      1.0  0.80091  0.55224  0.93103  1.0000
  S   S370      1.0  0.77516  0.52430  0.85879  1.0000
  C   C2765     1.0  0.87082  0.62001  0.59624  1.0000
  C   C2766     1.0  0.79248  0.50862  0.73330  1.0000
  Fe  Fe188     1.0  0.79040  0.51043  0.82746  1.0000
  S   S371      1.0  0.81053  0.51317  0.87004  1.0000
  C   C2767     1.0  0.82147  0.56754  0.94725  1.0000
  C   C2768     1.0  0.83757  0.56421  0.94488  1.0000
  H   H2196     1.0  0.93559  0.61681  0.54754  1.0000
  H   H2197     1.0  0.83773  0.55187  0.93307  1.0000
  H   H2198     1.0  0.95864  0.70647  0.54388  1.0000
  H   H2199     1.0  0.76390  0.52392  0.71509  1.0000
  C   C2769     1.0  0.95247  0.65671  0.59045  1.0000
  H   H2200     1.0  0.72974  0.70441  0.67766  1.0000
  Fe  Fe189     1.0  0.75846  0.49654  0.88096  1.0000
  C   C2770     1.0  0.87529  0.63219  0.53605  1.0000
  H   H2201     1.0  0.74458  0.60359  0.69537  1.0000
  C   C2771     1.0  0.76345  0.62328  0.61087  1.0000
  C   C2772     1.0  0.79838  0.51690  0.69966  1.0000
  H   H2202     1.0  0.79759  0.51337  0.64302  1.0000
  H   H2203     1.0  0.80732  0.53105  0.69746  1.0000
  S   S372      1.0  0.82456  0.54805  0.53262  1.0000
  C   C2773     1.0  0.77074  0.70379  0.90584  1.0000
  H   H2204     1.0  0.80185  0.57202  0.56529  1.0000
  H   H2205     1.0  0.87657  0.54581  0.63227  1.0000
  C   C2774     1.0  0.79578  0.63274  0.60177  1.0000
  H   H2206     1.0  0.75689  0.51769  0.77911  1.0000
  C   C2775     1.0  0.75935  0.70478  0.83673  1.0000
  S   S373      1.0  0.77599  0.49817  0.92740  1.0000
  H   H2207     1.0  0.74784  0.70000  0.51437  1.0000
  P   P92       1.0  0.77276  0.58553  0.54829  1.0000
  Fe  Fe190     1.0  0.76325  0.50041  0.51527  1.0000
  P   P93       1.0  0.73512  0.57319  0.74876  1.0000
  C   C2776     1.0  0.82161  0.58378  0.96230  1.0000
  H   H2208     1.0  0.82024  0.63461  0.95802  1.0000
  C   C2777     1.0  0.79338  0.61750  0.58121  1.0000
  C   C2778     1.0  0.74123  0.55923  0.52461  1.0000
  C   C2779     1.0  0.89186  0.59259  0.58039  1.0000
  C   C2780     1.0  0.81868  0.66609  0.51233  1.0000
  C   C2781     1.0  0.87450  0.57953  0.57649  1.0000
  H   H2209     1.0  0.75596  0.56078  0.80071  1.0000
  C   C2782     1.0  0.90191  0.61222  0.50990  1.0000
  C   C2783     1.0  0.93564  0.62840  0.56263  1.0000
  H   H2210     1.0  0.74920  0.53899  0.64504  1.0000
  S   S374      1.0  0.75655  0.66132  0.97229  1.0000
  H   H2211     1.0  0.85723  0.64545  0.51927  1.0000
  C   C2784     1.0  0.77595  0.60537  0.57438  1.0000
  H   H2212     1.0  0.78137  0.68389  0.88753  1.0000
  C   C2785     1.0  0.79287  0.50694  0.66877  1.0000
  H   H2213     1.0  0.74774  0.52333  0.96576  1.0000
  C   C2786     1.0  0.85361  0.59314  0.97322  1.0000
  C   C2787     1.0  0.76056  0.55208  0.97361  1.0000
  H   H2214     1.0  0.80364  0.54915  0.60900  1.0000
  C   C2788     1.0  0.85218  0.63143  0.90064  1.0000
  C   C2789     1.0  0.84458  0.63599  0.93081  1.0000
  C   C2790     1.0  0.82595  0.63119  0.93428  1.0000
  C   C2791     1.0  0.81480  0.62199  0.90745  1.0000
  C   C2792     1.0  0.82231  0.61738  0.87689  1.0000
  C   C2793     1.0  0.84111  0.62224  0.87365  1.0000
  P   P94       1.0  0.80824  0.60512  0.84203  1.0000
  C   C2794     1.0  0.78517  0.59435  0.85837  1.0000
  C   C2795     1.0  0.80838  0.62025  0.80530  1.0000
  C   C2796     1.0  0.79546  0.61410  0.77922  1.0000
  C   C2797     1.0  0.79567  0.62543  0.75006  1.0000
  C   C2798     1.0  0.80858  0.64310  0.74700  1.0000
  C   C2799     1.0  0.82138  0.64940  0.77304  1.0000
  C   C2800     1.0  0.82132  0.63802  0.80210  1.0000
  C   C2801     1.0  0.77777  0.57553  0.86682  1.0000
  C   C2802     1.0  0.75975  0.56740  0.87843  1.0000
  C   C2803     1.0  0.74907  0.57803  0.88231  1.0000
  C   C2804     1.0  0.75647  0.59684  0.87500  1.0000
  C   C2805     1.0  0.77436  0.60495  0.86261  1.0000
  C   C2806     1.0  0.81716  0.58811  0.82823  1.0000
  C   C2807     1.0  0.82210  0.57788  0.85404  1.0000
  C   C2808     1.0  0.82852  0.56423  0.84450  1.0000
  C   C2809     1.0  0.83055  0.56101  0.80887  1.0000
  C   C2810     1.0  0.82646  0.57168  0.78283  1.0000
  C   C2811     1.0  0.81968  0.58515  0.79238  1.0000
  H   H2215     1.0  0.86664  0.63485  0.89853  1.0000
  H   H2216     1.0  0.85309  0.64304  0.95183  1.0000
  H   H2217     1.0  0.90748  0.64798  0.59803  1.0000
  H   H2218     1.0  0.80043  0.61839  0.91106  1.0000
  H   H2219     1.0  0.84722  0.61871  0.85051  1.0000
  H   H2220     1.0  0.78535  0.60046  0.78127  1.0000
  H   H2221     1.0  0.78580  0.62051  0.72984  1.0000
  H   H2222     1.0  0.80868  0.65191  0.72447  1.0000
  H   H2223     1.0  0.83140  0.66311  0.77070  1.0000
  H   H2224     1.0  0.83137  0.64318  0.82190  1.0000
  H   H2225     1.0  0.78579  0.56702  0.86462  1.0000
  H   H2226     1.0  0.75413  0.55283  0.88465  1.0000
  H   H2227     1.0  0.80922  0.64242  0.60583  1.0000
  H   H2228     1.0  0.74821  0.60509  0.87855  1.0000
  H   H2229     1.0  0.77984  0.61953  0.85666  1.0000
  H   H2230     1.0  0.82078  0.58043  0.88165  1.0000
  H   H2231     1.0  0.83180  0.55610  0.86485  1.0000
  H   H2232     1.0  0.83518  0.55015  0.80142  1.0000
  H   H2233     1.0  0.82828  0.56922  0.75525  1.0000
  H   H2234     1.0  0.81640  0.59306  0.77176  1.0000
  C   C2812     1.0  0.83747  0.59633  0.97579  1.0000
  H   H2235     1.0  0.79647  0.61892  0.50871  1.0000
  C   C2813     1.0  0.76103  0.60810  0.59019  1.0000
  C   C2814     1.0  0.89809  0.57181  0.62222  1.0000
  H   H2236     1.0  0.84918  0.62383  0.62623  1.0000
  H   H2237     1.0  0.82818  0.67226  0.53254  1.0000
  H   H2238     1.0  0.77657  0.57984  0.98473  1.0000
  C   C2815     1.0  0.79140  0.55218  0.60777  1.0000
  C   C2816     1.0  0.75551  0.56820  0.74521  1.0000
  C   C2817     1.0  0.76238  0.56207  0.77480  1.0000
  C   C2818     1.0  0.77766  0.55737  0.77103  1.0000
  C   C2819     1.0  0.78645  0.55929  0.73804  1.0000
  C   C2820     1.0  0.78038  0.56647  0.70903  1.0000
  C   C2821     1.0  0.76495  0.57090  0.71253  1.0000
  C   C2822     1.0  0.77655  0.54269  0.63002  1.0000
  C   C2823     1.0  0.74292  0.59776  0.75200  1.0000
  C   C2824     1.0  0.74662  0.60921  0.72146  1.0000
  C   C2825     1.0  0.75268  0.62819  0.72435  1.0000
  C   C2826     1.0  0.75538  0.63590  0.75762  1.0000
  C   C2827     1.0  0.75220  0.62465  0.78805  1.0000
  C   C2828     1.0  0.74621  0.60567  0.78522  1.0000
  C   C2829     1.0  0.79019  0.66229  0.94550  1.0000
  Fe  Fe191     1.0  0.73427  0.65463  0.93052  1.0000
  H   H2239     1.0  0.78422  0.65996  0.91988  1.0000
  Fe  Fe192     1.0  0.73795  0.64423  0.53502  1.0000
  C   C2830     1.0  0.93632  0.65887  0.60008  1.0000
  C   C2831     1.0  0.88084  0.55885  0.61788  1.0000
  H   H2240     1.0  0.78267  0.55205  0.79356  1.0000
  H   H2241     1.0  0.79795  0.55510  0.73497  1.0000
  H   H2242     1.0  0.78756  0.56843  0.68373  1.0000
  H   H2243     1.0  0.76029  0.57627  0.68964  1.0000
  C   C2832     1.0  0.85652  0.62621  0.60108  1.0000
  H   H2244     1.0  0.87442  0.61286  0.61790  1.0000
  H   H2245     1.0  0.75471  0.63692  0.70079  1.0000
  H   H2246     1.0  0.75947  0.65058  0.75991  1.0000
  H   H2247     1.0  0.75401  0.63066  0.81383  1.0000
  H   H2248     1.0  0.74386  0.59716  0.80899  1.0000
  C   C2833     1.0  0.91934  0.63049  0.57207  1.0000
  C   C2834     1.0  0.81320  0.50572  0.98290  1.0000
  H   H2249     1.0  0.80942  0.58683  0.96326  1.0000
  C   C2835     1.0  0.78877  0.58939  0.51173  1.0000
  H   H2250     1.0  0.74379  0.50496  0.67168  1.0000
  C   C2836     1.0  0.75956  0.55936  0.60298  1.0000
  H   H2251     1.0  0.78265  0.64769  0.63165  1.0000
  H   H2252     1.0  0.74815  0.72404  0.85457  1.0000
  C   C2837     1.0  0.77423  0.56852  0.57972  1.0000
  C   C2838     1.0  0.95686  0.68567  0.50662  1.0000
  C   C2839     1.0  0.74433  0.71323  0.96507  1.0000
  H   H2253     1.0  0.91697  0.59847  0.60749  1.0000
  H   H2254     1.0  0.93661  0.67080  0.61426  1.0000
  C   C2840     1.0  0.83485  0.56256  0.49541  1.0000
  H   H2255     1.0  0.86512  0.58229  0.55904  1.0000
  C   C2841     1.0  0.86103  0.63838  0.54088  1.0000
  C   C2842     1.0  0.75584  0.71584  0.86207  1.0000
  C   C2843     1.0  0.75142  0.51326  0.72393  1.0000
  C   C2844     1.0  0.90363  0.58863  0.60351  1.0000
  H   H2256     1.0  0.74723  0.56217  0.60164  1.0000
  H   H2257     1.0  0.74747  0.59861  0.58633  1.0000
  H   H2258     1.0  0.84185  0.58726  0.52480  1.0000
  H   H2259     1.0  0.75243  0.55589  0.95473  1.0000
  H   H2260     1.0  0.80957  0.53144  0.98218  1.0000
  C   C2845     1.0  0.73194  0.49532  0.77163  1.0000
  H   H2261     1.0  0.88510  0.58347  0.50800  1.0000
  C   C2846     1.0  0.75793  0.53370  0.97994  1.0000
  S   S375      1.0  0.79911  0.52185  0.77133  1.0000
  C   C2847     1.0  0.80870  0.66513  0.94885  1.0000
  C   C2848     1.0  0.77408  0.56557  0.99080  1.0000
  H   H2262     1.0  0.80510  0.61531  0.57029  1.0000
  C   C2849     1.0  0.74751  0.50971  0.76007  1.0000
  C   C2850     1.0  0.76864  0.69334  0.84584  1.0000
  H   H2263     1.0  0.78311  0.56051  0.50481  1.0000
  C   C2851     1.0  0.77959  0.66285  0.97515  1.0000
  H   H2264     1.0  0.73509  0.57173  0.89104  1.0000
  H   H2265     1.0  0.85568  0.55267  0.59127  1.0000
  S   S376      1.0  0.73981  0.50874  0.50135  1.0000
  C   C2852     1.0  0.91979  0.64583  0.59092  1.0000
  C   C2853     1.0  0.79026  0.56503  0.58263  1.0000
  H   H2266     1.0  0.77733  0.53242  0.64881  1.0000
  C   C2854     1.0  0.78081  0.63570  0.61637  1.0000
  H   H2267     1.0  0.77095  0.68447  0.82634  1.0000
  H   H2268     1.0  0.79528  0.66354  0.54557  1.0000
  H   H2269     1.0  0.90718  0.56882  0.64012  1.0000
  H   H2270     1.0  0.96466  0.63991  0.56400  1.0000
  C   C2855     1.0  0.95213  0.64146  0.57180  1.0000
  C   C2856     1.0  0.86907  0.56270  0.59494  1.0000
  H   H2271     1.0  0.81684  0.66543  0.92543  1.0000
  H   H2272     1.0  0.84056  0.64022  0.57681  1.0000
  H   H2273     1.0  0.75179  0.62556  0.62206  1.0000
  P   P95       1.0  0.89835  0.61440  0.55670  1.0000
  C   C2857     1.0  0.74435  0.59079  0.51381  1.0000
  C   C2858     1.0  0.73984  0.50240  0.69926  1.0000
  C   C2859     1.0  0.75098  0.57794  0.52845  1.0000
  C   C2860     1.0  0.76169  0.71560  0.89678  1.0000
  H   H2274     1.0  0.86602  0.57444  0.95554  1.0000
  H   H2275     1.0  0.75439  0.70459  0.81024  1.0000
  H   H2276     1.0  0.88227  0.63451  0.51073  1.0000
  S   S377      1.0  0.80636  0.49284  0.54639  1.0000
  H   H2277     1.0  0.91875  0.64081  0.50110  1.0000
  S   S378      1.0  0.88472  0.66230  0.99099  1.0000
  S   S379      1.0  0.84077  0.67291  0.98415  1.0000
  H   H2278     1.0  0.77481  0.70279  0.93275  1.0000
  H   H2279     1.0  0.96527  0.66695  0.59708  1.0000
  P   P96       1.0  0.75687  0.72931  0.93043  1.0000
  S   S380      1.0  0.73159  0.63523  0.88646  1.0000
  C   C2861     1.0  0.77439  0.69292  0.88033  1.0000
  H   H2280     1.0  0.78740  0.62879  0.98565  1.0000
  H   H2281     1.0  0.75210  0.60532  0.51465  1.0000
  C   C2862     1.0  0.81684  0.66763  0.98209  1.0000
  H   H2282     1.0  0.81785  0.50713  0.95546  1.0000
  H   H2283     1.0  0.79578  0.73726  0.91406  1.0000
  H   H2284     1.0  0.73657  0.67538  0.72466  1.0000
  C   C2863     1.0  0.96557  0.69841  0.53167  1.0000
  S   S381      1.0  0.73114  0.65856  0.58147  1.0000
  C   C2864     1.0  0.84276  0.58156  0.49944  1.0000
  C   C2865     1.0  0.79830  0.60709  0.49770  1.0000
  H   H2285     1.0  0.73382  0.49310  0.61992  1.0000
  S   S382      1.0  0.76360  0.64725  0.50141  1.0000
  H   H2286     1.0  0.94328  0.68396  0.49908  1.0000
  S   S383      1.0  0.72959  0.66479  0.79807  1.0000
  C   C2866     1.0  0.79062  0.57434  0.49506  1.0000
  H   H2287     1.0  0.83727  0.60859  0.98784  1.0000
  H   H2288     1.0  0.73023  0.51152  0.56960  1.0000
  H   H2289     1.0  0.72962  0.54175  0.70389  1.0000
  C   C2867     1.0  0.78743  0.65342  0.49386  1.0000
  H   H2290     1.0  0.72917  0.49230  0.79977  1.0000
  S   S384      1.0  0.87391  0.60872  0.98981  1.0000
  H   H2291     1.0  0.79138  0.77842  0.00829  1.0000
  C   C2868     1.0  0.75482  0.91193  0.41255  1.0000
  H   H2292     1.0  0.97378  0.75265  0.05569  1.0000
  H   H2293     1.0  0.75782  0.92397  0.46368  1.0000
  H   H2294     1.0  0.76869  0.91943  0.40403  1.0000
  C   C2869     1.0  0.74306  0.89969  0.38997  1.0000
  H   H2295     1.0  0.96322  0.75472  0.28348  1.0000
  H   H2296     1.0  0.97093  0.74812  0.22523  1.0000
  C   C2870     1.0  0.74871  0.91447  0.44615  1.0000
  H   H2297     1.0  0.74783  0.89769  0.36393  1.0000
  H   H2298     1.0  0.93036  0.74249  0.29667  1.0000
  C   C2871     1.0  0.73083  0.90479  0.45720  1.0000
  H   H2299     1.0  0.97861  0.74073  0.35628  1.0000
  H   H2300     1.0  0.74874  0.77531  0.84801  1.0000
  H   H2301     1.0  0.82129  0.77926  0.98640  1.0000
  C   C2872     1.0  0.79448  0.74597  0.93478  1.0000
  H   H2302     1.0  0.76503  0.75641  0.87238  1.0000
  H   H2303     1.0  0.82326  0.75854  0.93941  1.0000
  C   C2873     1.0  0.81019  0.75817  0.94894  1.0000
  C   C2874     1.0  0.75222  0.75540  0.88446  1.0000
  C   C2875     1.0  0.77648  0.75703  0.97393  1.0000
  C   C2876     1.0  0.77748  0.74517  0.94747  1.0000
  C   C2877     1.0  0.74307  0.76618  0.87066  1.0000
  C   C2878     1.0  0.80908  0.76984  0.97544  1.0000
  H   H2304     1.0  0.76351  0.75670  0.98391  1.0000
  C   C2879     1.0  0.79224  0.76933  0.98781  1.0000
  C   C2880     1.0  0.74484  0.74330  0.91348  1.0000
