data_image0
_chemical_formula_structural       FeS2CSFeS4CFeCSFeHSFeCSHCHCHC5H4CHCH3SHC3HFeH2CH2C3FeS2H3CHCHC2SC6PC14FeCHCH13C3H3C3HCH2CHCH3CH3CH3CHC4H3PCH2SCHCHCHSCHC2FeCHCFeSHFeS2FeSFeS3CSCFeSC3FeSCSC2SHFeS2FeSFeSFeS3FeS2FeSFeSFeS3C6H4C6H4C6H4C2HCH2CH2C2HC3SHC2HC7H4C6H4C6H5C2H3C6H6C2H2C7PC14H14CHC2PC18H4CH12C6PC15H17CH3CHC2H2SCHC5H2CHC2PHCHC5H7C2HCHC6PC16H18C5HC6H2C3H2SCSHCH4CHCHCHCHC2H3C3HC2H2C2H2C2HC2HPC4PC3H2C4H2CH2C3HC2HCH2CH2FeC3HC5H2CSH3CH2CH2CHCH6CHC2H2CH4C7H3C2HC3HCH4CHC2HC2HC3H2CHC10HCHCH4C2HPH3C5HCH2C2H2FeS2FeSFeSFeS3CFeSFeS2FeSFeS3C5H2C3HC2H2C8H4C2H2CHC3HC2HSH2CSH2CH2C3HPCH6CSC3HCH3CH2C3HC8H3CSHCHC4H9C4H3C6H2CHCHCHCHCHCHCHC2HCHC4HPHFeH3C3H2C2HC2HC2HCHCH2C2H2FeCH3PHC2HCH2FeS2FeHFeSHSFeS2HSFeSH2SHFeSFeS2FeSFeS3H2FeS2H2CSC2HC3HC2H3C6H4C3H2CH2CH2SHC6H5C2H2CPC8H7FeC4HC2H4C3PC11HC2H5CH3CH3CH2C5HSHCHCH5C5HC2SCSC2HSHC2H7C2HCHCHC3H4CPHC2H4C2HC2HC4HC4PH2C4FeC8FeH3CHCHCHC3H6CHC2H2C4PC10H2C8SCPC4H2C8H3C3PCH2C2FeCH2C3H3C3H4C3HCSH4C2SH2FeSH3CHCFeS2FeS2FeCFeS3FeSCFeS2FeSFeS3C2H2C7H4SCHC4HC2H2C3H4FeC2HC6HCH2C2HC4H2C6H4C6H3CH3CHCHC2HSHC2H2C3HC2HCH2C3H3CHC3HC4PC18H16CH5C2FePH2C2HCH2SH2C3HC2HCHCHCHCHCHCHC2HSHCH2C3H4PC13H2C2H10S2CH4CHCPC15HC5HCH3CH6SH5C3HPCHC2H2C2SH3CH3C3H2CSHC4HFeHC3HCH2CH2C2H2SC5SHC2H2C2HCHC2SC7HC5PHC2PC5H2CH6C2H3FeCH3C2HFeSFeS2FeHFeS3FeSFeS2FeSFeS3C2H2SCHCHC2H2SCFeS2FeS2FeSFeS3FeS2FeS2Fe2S3C6H4C6H4C6H5CH2C7H4C6H4C6HCHCH2CHC3H3C6H6C3H2C5PC18H17C2H3C6H8C9H8CHC2H2C2HC3HCH3CHCHCH2CHC4HCHCH2C4H2FeHC5H2CHCH3C3SCHC2H4SCPC3H4C5H3C2FeC2PHC3H3C8HCHCHCH5CHC2H2C3HC3H4CH2C3H2C2PC3HC2H4SH3CH2CH4CHPHC7H2C4HCHCSC2HCH2C2HC5H3C4HCSHCHC2HCPCH2CPC4H2CH5C2H2C3H4CHCHCHC3HC4H4C2H4C2HC4H2C2HCH2C8HPCPC3HC2H2CHC2H2C4HC3H2CHCHCH2C2HCHSHCHPH4C2FeSHFeS2FeSFeS3FeS2FeS2FeHFeS3H2C3FeSFeSHCSHFeS2FeS2FeSFeS3H3SC7H5C3HC2HCHC4HCH4C6H4C6H4C6H4C6H3CH3C3HC7PC14HC4H3CH7PCH2CH3C2H2C2PC7HCSH9CP2C10H2C6H2CH12C2SH5C2HCHC2H2CSC2HCHCHCHCH2CH2CHC2HC6HCHC2H3CHCHC2PCH2C5H2SHCHCHC5HCHC3HCH2C2HCH2C2H2C2HC7H3PC5H2C2H3C3HC4H2CHPC4HCH2CH2CH2CHC2HCHC3HC5HCH2CHCHC4HC2H2CH2C5HCHC2HC2H2C3HPHCH2C2H2CHC2H2CHCH4C4HCHSH3FeS2FeHCFeHFeCS3C2FeS2FeS2FeCFeSHSH3C7HC7H4CSC3H3CHC2HC6HCH2C7HCHC2H7C6HCHCHC2PCHCSH2C2H2FeH3C6PC3HC14H6CH9CH3CHFeH2CHC2H4CHC3H2CH2C2HCH3CPH2CSCH3SCHCH2CHCHSC3H2C3HC7PC18H20C2H2CHCH2C2H2CH2C8H3CSHC3H3CH2CHC3H3C3HC4H2C4HCH2C2HC5PCHCH4CH2C2SHSH3C3H2PH3CHC4PHCH2C2H3CH2C2SC3HCH2CHSHCHCHC5FeS2HSCFeSCSHFeHSHFeS2HFeS2CHFeSH2CSCH2C2SFeS2C2HC2H2PCH2C6H4C2HC4H2CH2C4FeCH2C3H2C6H7C6FeH2CH2CHC2HCHC5SH3CH2PH2CHCHCHCHC2FeCH2CH3C4H2C2SCH3CHC3H2CHCHCPC2H3C2HFeCHCHC2HC4HC3HC2HC2HC2H2CH3C3HCH2C4HCHC2H3CH3CHC5SC2H2C4HC2SPCHC4HC2H2C3H4C2H2CHC2HCHC3HCHC2H2SCH2CFeS2C2H2C2H2CHS2HCH2S2FeH2SFeCH2CHC6PC12HCHCH2CH10CHCHC2HC2HC2HC4H3CH2CHCFeC4H3FeSHSCHSCHCH2S2FeHCHCH2CH2C3HCHC3HCHC3H3CHCHC3HFeS2FeS2FeSFeS3FeS2FeS2FeSFeS3CSFeHCHCSCSFeSCH2FeS2FeSHFeSFeS3C6H3C5H2CH2C2HPC4HC2H2C8H4CHCH2C6H4C6H4C6H4C3HC3PC2HC2H3C4HC3HC4HC2H4CH2C3HPC2H2C2HCH2C7HCHCH2C2H2CH6SC4HFeC3H2C2HC3HC2H4CH2CH2C4FeHPH5C2HCHC3HCHCHCH2CHC2HC3HCHCH2CHPH2CSC2H2CPCH2C2H2C6H3CHCH2C4H2C3H2CH5CHCHC3HC2HC7H3C3H4C6HPHPC2HC4H2C2H3C2H7C2H3C5PHC4HC6H2CHC2H2C6HC4HC3H5C5H5C2HCHC2HPCHCHCH3CHC2HCHC2HCHCHCHC6HCHC3H2CHCPHCHCH2CHSCHC2HC3SH3CHCH2CH3C2H2CHCSFeS2Fe2S2HFe2S2FeHFeS3CH5C2H4SC7H5CHCH2CHCHC2H3CSHSHC5HC3HCHCHC2H2CSCHC2H2CHCH4CHCH3FeH2CSC5H2CSH3PCH2C4SCH3C3HCHSC4PC9HC4HC3H2CHPH6CHC6HCH3CHC2HCH
_chemical_formula_sum              "Fe144 S288 C2160 H1728 P72"
_cell_length_a       86.0201
_cell_length_b       85.5068
_cell_length_c       32.737
_cell_angle_alpha    85.1953
_cell_angle_beta     83.9923
_cell_angle_gamma    108.882

_space_group_name_H-M_alt    "P 1"
_space_group_IT_number       1

loop_
  _space_group_symop_operation_xyz
  'x, y, z'

loop_
  _atom_site_type_symbol
  _atom_site_label
  _atom_site_symmetry_multiplicity
  _atom_site_fract_x
  _atom_site_fract_y
  _atom_site_fract_z
  _atom_site_occupancy
  Fe  Fe1       1.0  0.02521  0.45412  0.56465  1.0000
  S   S1        1.0  0.04853  0.45400  0.52636  1.0000
  S   S2        1.0  0.00356  0.43123  0.59277  1.0000
  C   C1        1.0  0.07755  0.47509  0.67267  1.0000
  S   S3        1.0  0.03881  0.47199  0.60628  1.0000
  Fe  Fe2       1.0  0.04522  0.47490  0.48504  1.0000
  S   S4        1.0  0.04938  0.48148  0.41465  1.0000
  S   S5        1.0  0.10095  0.48397  0.77487  1.0000
  S   S6        1.0  0.03927  0.47885  0.09964  1.0000
  S   S7        1.0  0.02131  0.47386  0.52174  1.0000
  C   C2        1.0  0.02811  0.46628  0.97048  1.0000
  Fe  Fe3       1.0  0.02844  0.45129  0.20635  1.0000
  C   C3        1.0  0.09052  0.47970  0.63966  1.0000
  S   S8        1.0  0.02084  0.43826  0.27253  1.0000
  Fe  Fe4       1.0  0.04903  0.45858  0.11952  1.0000
  H   H1        1.0  0.21168  0.45988  0.74979  1.0000
  S   S9        1.0  0.06668  0.45255  0.07164  1.0000
  Fe  Fe5       1.0  0.01434  0.46119  0.12963  1.0000
  C   C4        1.0  0.01985  0.49727  0.95667  1.0000
  S   S10       1.0  0.02370  0.44017  0.14644  1.0000
  H   H2        1.0  0.12309  0.49287  0.69524  1.0000
  C   C5        1.0  0.10043  0.47778  0.97119  1.0000
  H   H3        1.0  0.04153  0.42552  0.84329  1.0000
  C   C6        1.0  0.00946  0.43931  0.78812  1.0000
  H   H4        1.0  0.00245  0.39628  0.45970  1.0000
  C   C7        1.0  0.04057  0.46929  0.37626  1.0000
  C   C8        1.0  0.02875  0.45334  0.38604  1.0000
  C   C9        1.0  0.02265  0.44391  0.35418  1.0000
  C   C10       1.0  0.02806  0.45052  0.31229  1.0000
  C   C11       1.0  0.03942  0.46670  0.30269  1.0000
  H   H5        1.0  0.05454  0.48839  0.32654  1.0000
  H   H6        1.0  0.02436  0.44829  0.41810  1.0000
  H   H7        1.0  0.01378  0.43146  0.36205  1.0000
  H   H8        1.0  0.04363  0.47203  0.27069  1.0000
  C   C12       1.0  0.01341  0.45504  0.96071  1.0000
  H   H9        1.0  0.00064  0.44340  0.77269  1.0000
  C   C13       1.0  0.08102  0.47658  0.71365  1.0000
  H   H10       1.0  0.21105  0.48323  0.81578  1.0000
  H   H11       1.0  0.05115  0.44961  0.78838  1.0000
  H   H12       1.0  0.01449  0.48144  0.40843  1.0000
  S   S11       1.0  0.13609  0.48691  0.85136  1.0000
  H   H13       1.0  0.99547  0.41604  0.74124  1.0000
  C   C14       1.0  0.00457  0.49661  0.44540  1.0000
  C   C15       1.0  0.04564  0.47598  0.33448  1.0000
  C   C16       1.0  0.00715  0.43868  0.98067  1.0000
  H   H14       1.0  0.00660  0.45908  0.93849  1.0000
  Fe  Fe6       1.0  0.03712  0.49170  0.55925  1.0000
  H   H15       1.0  0.04879  0.42751  0.33072  1.0000
  H   H16       1.0  0.10422  0.47530  0.94054  1.0000
  C   C17       1.0  0.99513  0.46528  0.66132  1.0000
  H   H17       1.0  0.09367  0.48756  0.27284  1.0000
  H   H18       1.0  0.08660  0.48645  0.08154  1.0000
  C   C18       1.0  0.03683  0.46070  0.99913  1.0000
  C   C19       1.0  0.00512  0.48152  0.43318  1.0000
  C   C20       1.0  0.00394  0.42501  0.81744  1.0000
  Fe  Fe7       1.0  0.06189  0.47362  0.56487  1.0000
  S   S12       1.0  0.08680  0.47675  0.58779  1.0000
  S   S13       1.0  0.05460  0.46724  0.18106  1.0000
  H   H19       1.0  0.03720  0.43998  0.04090  1.0000
  H   H20       1.0  0.01646  0.38440  0.40620  1.0000
  H   H21       1.0  0.01088  0.42069  0.02522  1.0000
  C   C21       1.0  0.11040  0.48800  0.68919  1.0000
  H   H22       1.0  0.06488  0.46991  0.66672  1.0000
  C   C22       1.0  0.03797  0.44299  0.79703  1.0000
  H   H23       1.0  0.03068  0.45877  0.75371  1.0000
  C   C23       1.0  0.03061  0.44426  0.01847  1.0000
  C   C24       1.0  0.08743  0.46556  0.99792  1.0000
  S   S14       1.0  0.01714  0.47085  0.19127  1.0000
  C   C25       1.0  0.06467  0.44136  0.27598  1.0000
  C   C26       1.0  0.08074  0.45113  0.25825  1.0000
  C   C27       1.0  0.09361  0.45450  0.28247  1.0000
  C   C28       1.0  0.09039  0.44812  0.32441  1.0000
  C   C29       1.0  0.07431  0.43800  0.34228  1.0000
  C   C30       1.0  0.06141  0.43482  0.31783  1.0000
  P   P1        1.0  0.07068  0.42918  0.39605  1.0000
  C   C31       1.0  0.04876  0.41941  0.41417  1.0000
  C   C32       1.0  0.07978  0.41297  0.40324  1.0000
  C   C33       1.0  0.07463  0.40163  0.43967  1.0000
  C   C34       1.0  0.08141  0.38893  0.44572  1.0000
  C   C35       1.0  0.09330  0.38737  0.41534  1.0000
  C   C36       1.0  0.09838  0.39846  0.37883  1.0000
  C   C37       1.0  0.09163  0.41120  0.37269  1.0000
  C   C38       1.0  0.04071  0.42603  0.44407  1.0000
  C   C39       1.0  0.02412  0.41762  0.46060  1.0000
  C   C40       1.0  0.01533  0.40270  0.44679  1.0000
  C   C41       1.0  0.02321  0.39606  0.41668  1.0000
  C   C42       1.0  0.03989  0.40433  0.40057  1.0000
  C   C43       1.0  0.03254  0.42930  0.82776  1.0000
  C   C44       1.0  0.05778  0.47944  0.83691  1.0000
  Fe  Fe8       1.0  0.04291  0.48616  0.16296  1.0000
  C   C45       1.0  0.02643  0.44811  0.77750  1.0000
  H   H24       1.0  0.08417  0.48684  0.43036  1.0000
  C   C46       1.0  0.09743  0.48302  0.72225  1.0000
  H   H25       1.0  0.05467  0.43890  0.25725  1.0000
  H   H26       1.0  0.08315  0.45612  0.22576  1.0000
  H   H27       1.0  0.10607  0.46211  0.26870  1.0000
  H   H28       1.0  0.10046  0.45093  0.34289  1.0000
  H   H29       1.0  0.99732  0.40632  0.31376  1.0000
  H   H30       1.0  0.06538  0.40263  0.46354  1.0000
  H   H31       1.0  0.07743  0.38030  0.47401  1.0000
  H   H32       1.0  0.09855  0.37752  0.42006  1.0000
  H   H33       1.0  0.10753  0.39718  0.35517  1.0000
  H   H34       1.0  0.09567  0.41946  0.34397  1.0000
  H   H35       1.0  0.04716  0.43770  0.45467  1.0000
  H   H36       1.0  0.01812  0.42270  0.48429  1.0000
  H   H37       1.0  0.04593  0.39893  0.37773  1.0000
  C   C47       1.0  0.04087  0.48682  0.89125  1.0000
  C   C48       1.0  0.10695  0.48616  0.64822  1.0000
  C   C49       1.0  0.09117  0.47149  0.47534  1.0000
  H   H38       1.0  0.00768  0.49504  0.32394  1.0000
  H   H39       1.0  0.08598  0.43054  0.47342  1.0000
  H   H40       1.0  0.00348  0.47720  0.00261  1.0000
  C   C50       1.0  0.08574  0.44277  0.46302  1.0000
  C   C51       1.0  0.21312  0.48378  0.71998  1.0000
  C   C52       1.0  0.05173  0.48758  0.80686  1.0000
  H   H41       1.0  0.23981  0.46193  0.71892  1.0000
  C   C53       1.0  0.99434  0.48136  0.65981  1.0000
  H   H42       1.0  0.09606  0.45317  0.51618  1.0000
  H   H43       1.0  0.09533  0.48127  0.49483  1.0000
  C   C54       1.0  0.09032  0.48399  0.05082  1.0000
  H   H44       1.0  0.05631  0.48827  0.77438  1.0000
  C   C55       1.0  0.07939  0.44580  0.42644  1.0000
  H   H45       1.0  0.08139  0.45365  0.98770  1.0000
  H   H46       1.0  0.05699  0.47238  0.90175  1.0000
  H   H47       1.0  0.11709  0.48968  0.62303  1.0000
  C   C56       1.0  0.08494  0.47463  0.43898  1.0000
  H   H48       1.0  0.22478  0.49372  0.93504  1.0000
  H   H49       1.0  0.23836  0.49565  0.01832  1.0000
  H   H50       1.0  0.07365  0.46439  0.38743  1.0000
  C   C57       1.0  0.01578  0.43330  0.00945  1.0000
  H   H51       1.0  0.01170  0.40988  0.86226  1.0000
  H   H52       1.0  0.00319  0.46229  0.63780  1.0000
  H   H53       1.0  0.00205  0.49092  0.63540  1.0000
  C   C58       1.0  0.00553  0.48928  0.98556  1.0000
  H   H54       1.0  0.19764  0.48938  0.91089  1.0000
  C   C59       1.0  0.08229  0.46860  0.03782  1.0000
  C   C60       1.0  0.21925  0.47079  0.72876  1.0000
  C   C61       1.0  0.07900  0.46184  0.41469  1.0000
  C   C62       1.0  0.09157  0.45558  0.48735  1.0000
  H   H55       1.0  0.06713  0.47391  0.82769  1.0000
  H   H56       1.0  0.07093  0.47248  0.73886  1.0000
  H   H57       1.0  0.99981  0.43773  0.50580  1.0000
  P   P2        1.0  0.03545  0.48756  0.94590  1.0000
  C   C63       1.0  0.01559  0.42037  0.83816  1.0000
  H   H58       1.0  0.00214  0.47061  0.84919  1.0000
  H   H59       1.0  0.04836  0.46892  0.00698  1.0000
  S   S15       1.0  0.06083  0.49446  0.51970  1.0000
  C   C64       1.0  0.23524  0.47205  0.71123  1.0000
  H   H60       1.0  0.99545  0.43016  0.97475  1.0000
  C   C65       1.0  0.05208  0.47870  0.87886  1.0000
  H   H61       1.0  0.09382  0.49500  0.34454  1.0000
  C   C66       1.0  0.10874  0.49300  0.98467  1.0000
  H   H62       1.0  0.20090  0.48301  0.73451  1.0000
  S   S16       1.0  0.18390  0.49586  0.81397  1.0000
  C   C67       1.0  0.03438  0.49446  0.86075  1.0000
  H   H63       1.0  0.23262  0.49389  0.09437  1.0000
  C   C68       1.0  0.10368  0.49596  0.02468  1.0000
  C   C69       1.0  0.03981  0.49482  0.81873  1.0000
  Fe  Fe9       1.0  0.12501  0.49744  0.80031  1.0000
  C   C70       1.0  0.21637  0.49666  0.81291  1.0000
  H   H64       1.0  0.24160  0.49661  0.81145  1.0000
  C   C71       1.0  0.22288  0.49798  0.69332  1.0000
  Fe  Fe10      1.0  0.18945  0.70247  0.80208  1.0000
  S   S17       1.0  0.17821  0.68845  0.86591  1.0000
  H   H65       1.0  0.00555  0.56187  0.98612  1.0000
  Fe  Fe11      1.0  0.16518  0.67531  0.75868  1.0000
  S   S18       1.0  0.15266  0.65982  0.81906  1.0000
  S   S19       1.0  0.15918  0.66300  0.69998  1.0000
  Fe  Fe12      1.0  0.15334  0.68359  0.84366  1.0000
  S   S20       1.0  0.12898  0.68256  0.88075  1.0000
  Fe  Fe13      1.0  0.17809  0.66545  0.83681  1.0000
  S   S21       1.0  0.18388  0.64414  0.86968  1.0000
  S   S22       1.0  0.16420  0.69919  0.78150  1.0000
  S   S23       1.0  0.19097  0.67944  0.77494  1.0000
  C   C72       1.0  0.99630  0.51302  0.97414  1.0000
  S   S24       1.0  0.15005  0.51337  0.76656  1.0000
  C   C73       1.0  0.06956  0.50442  0.94554  1.0000
  Fe  Fe14      1.0  0.13421  0.50826  0.88487  1.0000
  S   S25       1.0  0.12166  0.51757  0.83658  1.0000
  C   C74       1.0  0.23261  0.73972  0.84062  1.0000
  C   C75       1.0  0.05603  0.65497  0.39717  1.0000
  C   C76       1.0  0.99987  0.59443  0.41723  1.0000
  Fe  Fe15      1.0  0.14710  0.53288  0.80575  1.0000
  S   S26       1.0  0.14939  0.55782  0.77224  1.0000
  C   C77       1.0  0.02530  0.55594  0.38841  1.0000
  S   S27       1.0  0.15981  0.52560  0.85705  1.0000
  C   C78       1.0  0.08959  0.64294  0.85709  1.0000
  C   C79       1.0  0.09830  0.59197  0.29198  1.0000
  S   S28       1.0  0.05457  0.51133  0.18193  1.0000
  H   H66       1.0  0.08895  0.55937  0.38079  1.0000
  Fe  Fe16      1.0  0.09038  0.63727  0.54883  1.0000
  S   S29       1.0  0.10385  0.62558  0.50504  1.0000
  S   S30       1.0  0.10044  0.65682  0.59156  1.0000
  Fe  Fe17      1.0  0.05664  0.61704  0.52634  1.0000
  S   S31       1.0  0.06716  0.60296  0.48247  1.0000
  Fe  Fe18      1.0  0.08358  0.60180  0.53090  1.0000
  S   S32       1.0  0.09159  0.57993  0.54763  1.0000
  Fe  Fe19      1.0  0.08648  0.62771  0.45926  1.0000
  S   S33       1.0  0.09459  0.63641  0.39003  1.0000
  S   S34       1.0  0.07098  0.61316  0.57754  1.0000
  S   S35       1.0  0.07506  0.64202  0.50046  1.0000
  Fe  Fe20      1.0  0.07942  0.62860  0.09377  1.0000
  S   S36       1.0  0.07728  0.60418  0.12984  1.0000
  S   S37       1.0  0.10575  0.64312  0.06313  1.0000
  Fe  Fe21      1.0  0.04208  0.62149  0.11107  1.0000
  S   S38       1.0  0.03754  0.59696  0.14785  1.0000
  Fe  Fe22      1.0  0.05986  0.60990  0.17782  1.0000
  S   S39       1.0  0.05616  0.60121  0.24743  1.0000
  Fe  Fe23      1.0  0.05526  0.59364  0.09723  1.0000
  S   S40       1.0  0.04815  0.57050  0.06580  1.0000
  S   S41       1.0  0.06330  0.63517  0.14420  1.0000
  S   S42       1.0  0.05852  0.61744  0.05818  1.0000
  C   C80       1.0  0.08371  0.62651  0.35074  1.0000
  C   C81       1.0  0.08832  0.63408  0.30942  1.0000
  C   C82       1.0  0.07999  0.62660  0.27739  1.0000
  C   C83       1.0  0.06703  0.61134  0.28634  1.0000
  C   C84       1.0  0.06246  0.60373  0.32761  1.0000
  C   C85       1.0  0.07083  0.61118  0.35954  1.0000
  H   H67       1.0  0.09835  0.64586  0.30216  1.0000
  H   H68       1.0  0.08365  0.63262  0.24580  1.0000
  H   H69       1.0  0.05241  0.59196  0.33491  1.0000
  H   H70       1.0  0.06727  0.60507  0.39098  1.0000
  C   C86       1.0  0.05151  0.52740  0.15103  1.0000
  C   C87       1.0  0.04322  0.52425  0.11649  1.0000
  C   C88       1.0  0.04215  0.53754  0.09012  1.0000
  C   C89       1.0  0.04887  0.55386  0.09929  1.0000
  C   C90       1.0  0.05633  0.55687  0.13506  1.0000
  C   C91       1.0  0.05787  0.54367  0.16060  1.0000
  H   H71       1.0  0.03795  0.51164  0.10963  1.0000
  H   H72       1.0  0.03617  0.53516  0.06273  1.0000
  H   H73       1.0  0.06130  0.56939  0.14264  1.0000
  H   H74       1.0  0.06412  0.54610  0.18759  1.0000
  C   C92       1.0  0.04715  0.53204  0.57084  1.0000
  C   C93       1.0  0.06316  0.53146  0.57195  1.0000
  C   C94       1.0  0.07682  0.54624  0.56499  1.0000
  C   C95       1.0  0.07447  0.56158  0.55686  1.0000
  C   C96       1.0  0.05843  0.56219  0.55653  1.0000
  C   C97       1.0  0.04476  0.54743  0.56392  1.0000
  H   H75       1.0  0.06504  0.51962  0.57807  1.0000
  H   H76       1.0  0.08921  0.54575  0.56561  1.0000
  H   H77       1.0  0.05655  0.57404  0.55085  1.0000
  H   H78       1.0  0.03239  0.54793  0.56337  1.0000
  C   C98       1.0  0.00720  0.58037  0.93534  1.0000
  C   C99       1.0  0.20506  0.50167  0.91685  1.0000
  H   H79       1.0  0.99639  0.68069  0.43911  1.0000
  C   C100      1.0  0.03911  0.56696  0.86361  1.0000
  H   H80       1.0  0.10348  0.55205  0.25365  1.0000
  H   H81       1.0  0.07656  0.57586  0.33143  1.0000
  C   C101      1.0  0.18039  0.73475  0.86014  1.0000
  H   H82       1.0  0.01905  0.53574  0.22226  1.0000
  H   H83       1.0  0.05842  0.56634  0.27937  1.0000
  C   C102      1.0  0.03792  0.55945  0.41346  1.0000
  C   C103      1.0  0.11148  0.59310  0.26184  1.0000
  H   H84       1.0  0.08522  0.61663  0.86576  1.0000
  C   C104      1.0  0.02925  0.62791  0.24109  1.0000
  C   C105      1.0  0.00771  0.64023  0.25123  1.0000
  C   C106      1.0  0.00095  0.64041  0.82701  1.0000
  S   S43       1.0  0.03010  0.51367  0.57595  1.0000
  H   H85       1.0  0.99781  0.50501  0.55456  1.0000
  C   C107      1.0  0.21292  0.52362  0.80775  1.0000
  C   C108      1.0  0.02209  0.63487  0.88218  1.0000
  H   H86       1.0  0.20504  0.53122  0.80655  1.0000
  C   C109      1.0  0.03079  0.60236  0.97485  1.0000
  C   C110      1.0  0.11163  0.65337  0.01163  1.0000
  C   C111      1.0  0.12813  0.65731  0.99295  1.0000
  C   C112      1.0  0.13349  0.66597  0.95270  1.0000
  C   C113      1.0  0.12247  0.67111  0.93094  1.0000
  C   C114      1.0  0.10594  0.66714  0.94956  1.0000
  C   C115      1.0  0.10049  0.65816  0.98952  1.0000
  H   H87       1.0  0.13685  0.65368  0.00975  1.0000
  H   H88       1.0  0.14624  0.66890  0.93880  1.0000
  H   H89       1.0  0.09735  0.67117  0.93319  1.0000
  H   H90       1.0  0.08783  0.65531  0.00364  1.0000
  C   C116      1.0  0.14237  0.66106  0.67138  1.0000
  C   C117      1.0  0.13997  0.65024  0.64072  1.0000
  C   C118      1.0  0.12691  0.64840  0.61684  1.0000
  C   C119      1.0  0.11632  0.65771  0.62274  1.0000
  C   C120      1.0  0.11873  0.66854  0.65337  1.0000
  C   C121      1.0  0.13158  0.67010  0.67787  1.0000
  H   H91       1.0  0.14834  0.64330  0.63527  1.0000
  H   H92       1.0  0.12524  0.64012  0.59324  1.0000
  H   H93       1.0  0.11068  0.67587  0.65798  1.0000
  H   H94       1.0  0.13335  0.67855  0.70113  1.0000
  C   C122      1.0  0.17573  0.62522  0.84944  1.0000
  C   C123      1.0  0.16895  0.62472  0.81325  1.0000
  C   C124      1.0  0.16241  0.60969  0.79709  1.0000
  C   C125      1.0  0.16240  0.59302  0.81454  1.0000
  C   C126      1.0  0.16934  0.59527  0.85424  1.0000
  C   C127      1.0  0.17574  0.61049  0.87005  1.0000
  H   H95       1.0  0.16896  0.63621  0.79662  1.0000
  H   H96       1.0  0.15767  0.61211  0.76884  1.0000
  H   H97       1.0  0.17048  0.58525  0.87483  1.0000
  H   H98       1.0  0.18088  0.61081  0.89888  1.0000
  H   H99       1.0  0.02676  0.58133  0.02051  1.0000
  C   C128      1.0  0.03407  0.62272  0.73644  1.0000
  C   C129      1.0  0.00492  0.63017  0.89494  1.0000
  H   H100      1.0  0.02574  0.56138  0.86667  1.0000
  H   H101      1.0  0.01227  0.52480  0.33081  1.0000
  H   H102      1.0  0.01734  0.58828  0.83052  1.0000
  C   C130      1.0  0.00503  0.56725  0.54253  1.0000
  C   C131      1.0  0.07260  0.66443  0.39808  1.0000
  C   C132      1.0  0.23374  0.50423  0.81066  1.0000
  C   C133      1.0  0.01442  0.59738  0.53708  1.0000
  C   C134      1.0  0.01792  0.58250  0.54047  1.0000
  C   C135      1.0  0.05382  0.52545  0.38908  1.0000
  H   H103      1.0  0.07721  0.66635  0.42743  1.0000
  H   H104      1.0  0.15442  0.72054  0.87680  1.0000
  H   H105      1.0  0.01286  0.53383  0.93226  1.0000
  H   H106      1.0  0.03902  0.50132  0.02431  1.0000
  H   H107      1.0  0.04667  0.51281  0.29332  1.0000
  H   H108      1.0  0.23155  0.54598  0.93579  1.0000
  C   C136      1.0  0.06090  0.53240  0.45648  1.0000
  C   C137      1.0  0.08540  0.51578  0.33126  1.0000
  H   H109      1.0  0.99622  0.55196  0.22119  1.0000
  H   H110      1.0  0.04655  0.62111  0.40076  1.0000
  C   C138      1.0  0.22058  0.50427  0.92989  1.0000
  C   C139      1.0  0.06888  0.55005  0.95842  1.0000
  C   C140      1.0  0.07251  0.54419  0.92118  1.0000
  C   C141      1.0  0.08895  0.54859  0.90246  1.0000
  C   C142      1.0  0.10175  0.55883  0.92089  1.0000
  C   C143      1.0  0.09827  0.56460  0.95846  1.0000
  C   C144      1.0  0.08169  0.56045  0.97670  1.0000
  P   P3        1.0  0.11482  0.57917  0.97930  1.0000
  C   C145      1.0  0.10972  0.57891  0.03426  1.0000
  C   C146      1.0  0.13361  0.57396  0.97356  1.0000
  C   C147      1.0  0.13300  0.55745  0.97087  1.0000
  C   C148      1.0  0.11451  0.59373  0.05254  1.0000
  C   C149      1.0  0.11079  0.59335  0.09530  1.0000
  C   C150      1.0  0.10243  0.57819  0.12014  1.0000
  C   C151      1.0  0.09801  0.56336  0.10228  1.0000
  C   C152      1.0  0.10173  0.56370  0.05954  1.0000
  C   C153      1.0  0.11744  0.59909  0.95100  1.0000
  C   C154      1.0  0.10632  0.60753  0.96151  1.0000
  C   C155      1.0  0.10823  0.62293  0.93953  1.0000
  C   C156      1.0  0.12119  0.62997  0.90695  1.0000
  C   C157      1.0  0.13200  0.62142  0.89563  1.0000
  C   C158      1.0  0.12997  0.60590  0.91699  1.0000
  H   H111      1.0  0.05617  0.54654  0.97335  1.0000
  H   H112      1.0  0.06266  0.53603  0.90717  1.0000
  H   H113      1.0  0.09188  0.54378  0.87415  1.0000
  H   H114      1.0  0.11443  0.56216  0.90607  1.0000
  H   H115      1.0  0.07858  0.56523  0.00498  1.0000
  H   H116      1.0  0.12129  0.54747  0.97230  1.0000
  H   H117      1.0  0.12108  0.60562  0.03399  1.0000
  H   H118      1.0  0.11418  0.60490  0.10900  1.0000
  H   H119      1.0  0.09924  0.57796  0.15316  1.0000
  H   H120      1.0  0.09156  0.55159  0.12150  1.0000
  H   H121      1.0  0.09831  0.55209  0.04628  1.0000
  H   H122      1.0  0.09637  0.60240  0.98719  1.0000
  H   H123      1.0  0.09998  0.62968  0.94857  1.0000
  H   H124      1.0  0.12307  0.64221  0.89100  1.0000
  C   C159      1.0  0.18463  0.56194  0.64765  1.0000
  H   H125      1.0  0.01202  0.69044  0.36840  1.0000
  C   C160      1.0  0.17994  0.58738  0.66433  1.0000
  C   C161      1.0  0.17524  0.56993  0.66961  1.0000
  P   P4        1.0  0.16781  0.59761  0.69313  1.0000
  C   C162      1.0  0.18060  0.61907  0.69349  1.0000
  C   C163      1.0  0.14882  0.59612  0.67192  1.0000
  C   C164      1.0  0.14039  0.60733  0.68065  1.0000
  C   C165      1.0  0.12564  0.60610  0.66458  1.0000
  C   C166      1.0  0.11900  0.59353  0.64032  1.0000
  C   C167      1.0  0.12710  0.58213  0.63221  1.0000
  C   C168      1.0  0.14193  0.58338  0.64795  1.0000
  C   C169      1.0  0.19197  0.62324  0.72197  1.0000
  C   C170      1.0  0.20140  0.63988  0.72334  1.0000
  C   C171      1.0  0.19994  0.65243  0.69544  1.0000
  C   C172      1.0  0.18922  0.64833  0.66580  1.0000
  C   C173      1.0  0.17959  0.63173  0.66475  1.0000
  C   C174      1.0  0.16219  0.58734  0.74552  1.0000
  C   C175      1.0  0.17607  0.58045  0.76940  1.0000
  C   C176      1.0  0.17009  0.56904  0.81755  1.0000
  C   C177      1.0  0.15015  0.56498  0.84295  1.0000
  C   C178      1.0  0.13646  0.57239  0.81984  1.0000
  C   C179      1.0  0.14224  0.58323  0.77105  1.0000
  H   H126      1.0  0.18098  0.54846  0.65241  1.0000
  H   H127      1.0  0.16434  0.56245  0.69079  1.0000
  H   H128      1.0  0.14525  0.61713  0.69965  1.0000
  H   H129      1.0  0.11949  0.61508  0.67032  1.0000
  C   C180      1.0  0.03428  0.55350  0.45561  1.0000
  H   H130      1.0  0.99760  0.57200  0.92087  1.0000
  H   H131      1.0  0.14788  0.57433  0.64139  1.0000
  H   H132      1.0  0.19327  0.61378  0.74407  1.0000
  H   H133      1.0  0.20955  0.64309  0.74674  1.0000
  H   H134      1.0  0.20689  0.66538  0.69725  1.0000
  H   H135      1.0  0.18785  0.65815  0.64480  1.0000
  H   H136      1.0  0.17116  0.62895  0.64203  1.0000
  H   H137      1.0  0.18831  0.58252  0.75326  1.0000
  H   H138      1.0  0.17862  0.56407  0.83155  1.0000
  H   H139      1.0  0.14625  0.55741  0.87277  1.0000
  H   H140      1.0  0.12391  0.56935  0.83475  1.0000
  H   H141      1.0  0.13342  0.58719  0.75590  1.0000
  C   C181      1.0  0.12168  0.61536  0.37112  1.0000
  C   C182      1.0  0.11283  0.60027  0.39561  1.0000
  C   C183      1.0  0.11645  0.59725  0.43551  1.0000
  C   C184      1.0  0.12883  0.60938  0.45107  1.0000
  C   C185      1.0  0.13763  0.62473  0.42689  1.0000
  C   C186      1.0  0.13396  0.62756  0.38670  1.0000
  P   P5        1.0  0.15237  0.64127  0.44813  1.0000
  C   C187      1.0  0.14233  0.65550  0.46639  1.0000
  C   C188      1.0  0.16007  0.63228  0.49023  1.0000
  C   C189      1.0  0.15039  0.62729  0.52936  1.0000
  C   C190      1.0  0.15614  0.62019  0.56198  1.0000
  C   C191      1.0  0.17146  0.61778  0.55583  1.0000
  C   C192      1.0  0.18117  0.62266  0.51698  1.0000
  C   C193      1.0  0.17553  0.62990  0.48425  1.0000
  C   C194      1.0  0.14661  0.66330  0.50173  1.0000
  C   C195      1.0  0.13809  0.67347  0.51714  1.0000
  C   C196      1.0  0.12547  0.67617  0.49706  1.0000
  C   C197      1.0  0.12161  0.66903  0.46097  1.0000
  C   C198      1.0  0.13010  0.65886  0.44546  1.0000
  C   C199      1.0  0.16943  0.65250  0.40824  1.0000
  C   C200      1.0  0.17517  0.64402  0.37839  1.0000
  C   C201      1.0  0.17724  0.66975  0.40701  1.0000
  H   H142      1.0  0.11853  0.61799  0.34075  1.0000
  H   H143      1.0  0.10290  0.59110  0.38406  1.0000
  H   H144      1.0  0.10935  0.58572  0.45504  1.0000
  H   H145      1.0  0.13099  0.60682  0.48247  1.0000
  H   H146      1.0  0.14015  0.63944  0.36782  1.0000
  H   H147      1.0  0.13832  0.62876  0.53463  1.0000
  H   H148      1.0  0.14862  0.61652  0.59196  1.0000
  H   H149      1.0  0.17576  0.61208  0.58111  1.0000
  H   H150      1.0  0.19307  0.62079  0.51219  1.0000
  H   H151      1.0  0.18324  0.63353  0.45446  1.0000
  H   H152      1.0  0.15628  0.66135  0.51801  1.0000
  H   H153      1.0  0.14090  0.67887  0.54545  1.0000
  H   H154      1.0  0.11847  0.68353  0.51005  1.0000
  H   H155      1.0  0.11168  0.67094  0.44561  1.0000
  H   H156      1.0  0.12662  0.65324  0.41796  1.0000
  H   H157      1.0  0.16944  0.63068  0.37907  1.0000
  H   H158      1.0  0.17315  0.67656  0.42987  1.0000
  C   C202      1.0  0.04424  0.52400  0.28254  1.0000
  H   H159      1.0  0.05895  0.63904  0.97683  1.0000
  H   H160      1.0  0.03635  0.62229  0.22150  1.0000
  H   H161      1.0  0.05058  0.56655  0.40012  1.0000
  C   C203      1.0  0.01808  0.54388  0.47261  1.0000
  H   H162      1.0  0.04408  0.55605  0.47497  1.0000
  C   C204      1.0  0.01110  0.67840  0.38388  1.0000
  C   C205      1.0  0.00523  0.60999  0.39318  1.0000
  H   H163      1.0  0.01060  0.61190  0.71512  1.0000
  H   H164      1.0  0.23558  0.54462  0.80299  1.0000
  S   S44       1.0  0.12527  0.50885  0.95267  1.0000
  C   C206      1.0  0.01138  0.58161  0.28343  1.0000
  H   H165      1.0  0.12017  0.60521  0.24856  1.0000
  C   C207      1.0  0.99858  0.55443  0.32393  1.0000
  C   C208      1.0  0.24086  0.52159  0.80727  1.0000
  C   C209      1.0  0.06501  0.51400  0.02420  1.0000
  C   C210      1.0  0.08094  0.51845  0.00238  1.0000
  C   C211      1.0  0.23722  0.50596  0.07572  1.0000
  H   H166      1.0  0.01127  0.58235  0.21773  1.0000
  H   H167      1.0  0.02595  0.67299  0.33368  1.0000
  C   C212      1.0  0.08288  0.65557  0.86269  1.0000
  H   H168      1.0  0.04540  0.60895  0.82528  1.0000
  C   C213      1.0  0.03146  0.52258  0.25846  1.0000
  C   C214      1.0  0.07748  0.66852  0.32324  1.0000
  P   P6        1.0  0.02843  0.64045  0.35892  1.0000
  H   H169      1.0  0.19798  0.61017  0.63143  1.0000
  C   C215      1.0  0.04658  0.57222  0.89823  1.0000
  H   H170      1.0  0.20422  0.54122  0.91208  1.0000
  C   C216      1.0  0.05009  0.65203  0.35918  1.0000
  C   C217      1.0  0.99911  0.55746  0.24928  1.0000
  C   C218      1.0  0.05343  0.49978  0.96732  1.0000
  C   C219      1.0  0.01766  0.65279  0.38399  1.0000
  C   C220      1.0  0.08319  0.51372  0.96305  1.0000
  H   H171      1.0  0.99531  0.60846  0.53341  1.0000
  H   H172      1.0  0.08585  0.67362  0.29462  1.0000
  H   H173      1.0  0.11008  0.50764  0.03549  1.0000
  H   H174      1.0  0.06340  0.51740  0.05506  1.0000
  H   H175      1.0  0.09160  0.52527  0.01621  1.0000
  H   H176      1.0  0.09559  0.51707  0.94628  1.0000
  H   H177      1.0  0.03913  0.57063  0.92804  1.0000
  C   C221      1.0  0.15998  0.74601  0.88970  1.0000
  C   C222      1.0  0.08688  0.57642  0.30869  1.0000
  H   H178      1.0  0.03051  0.58276  0.54189  1.0000
  C   C223      1.0  0.23053  0.52034  0.93572  1.0000
  H   H179      1.0  0.08244  0.55390  0.45689  1.0000
  C   C224      1.0  0.04820  0.58720  0.69193  1.0000
  C   C225      1.0  0.04931  0.57686  0.66170  1.0000
  C   C226      1.0  0.05905  0.56668  0.66550  1.0000
  C   C227      1.0  0.06794  0.56704  0.69897  1.0000
  C   C228      1.0  0.06690  0.57739  0.72961  1.0000
  C   C229      1.0  0.05677  0.58730  0.72602  1.0000
  P   P7        1.0  0.07904  0.57865  0.77204  1.0000
  C   C230      1.0  0.06622  0.57623  0.82131  1.0000
  C   C231      1.0  0.08759  0.56193  0.77223  1.0000
  C   C232      1.0  0.07906  0.54643  0.79598  1.0000
  C   C233      1.0  0.08524  0.53321  0.79365  1.0000
  C   C234      1.0  0.09990  0.53535  0.76755  1.0000
  C   C235      1.0  0.10841  0.55069  0.74382  1.0000
  C   C236      1.0  0.10221  0.56388  0.74580  1.0000
  C   C237      1.0  0.07358  0.58128  0.85654  1.0000
  C   C238      1.0  0.06379  0.57942  0.89464  1.0000
  C   C239      1.0  0.04887  0.56886  0.82527  1.0000
  C   C240      1.0  0.09570  0.59854  0.76616  1.0000
  C   C241      1.0  0.09504  0.61247  0.74120  1.0000
  C   C242      1.0  0.10757  0.62792  0.73876  1.0000
  C   C243      1.0  0.12091  0.62963  0.76091  1.0000
  C   C244      1.0  0.12177  0.61587  0.78551  1.0000
  C   C245      1.0  0.10929  0.60038  0.78797  1.0000
  H   H180      1.0  0.04105  0.59546  0.68828  1.0000
  H   H181      1.0  0.04288  0.57691  0.63490  1.0000
  H   H182      1.0  0.06000  0.55869  0.64202  1.0000
  H   H183      1.0  0.07568  0.55930  0.70023  1.0000
  H   H184      1.0  0.05597  0.59550  0.74890  1.0000
  H   H185      1.0  0.06755  0.54445  0.81585  1.0000
  H   H186      1.0  0.07871  0.52122  0.81182  1.0000
  H   H187      1.0  0.10467  0.52507  0.76547  1.0000
  H   H188      1.0  0.11986  0.55232  0.72386  1.0000
  H   H189      1.0  0.10870  0.57549  0.72612  1.0000
  H   H190      1.0  0.08687  0.58655  0.85513  1.0000
  H   H191      1.0  0.18732  0.51294  0.89933  1.0000
  H   H192      1.0  0.04291  0.56446  0.79894  1.0000
  H   H193      1.0  0.08511  0.61162  0.72304  1.0000
  H   H194      1.0  0.10710  0.63859  0.71913  1.0000
  H   H195      1.0  0.13067  0.64160  0.75863  1.0000
  H   H196      1.0  0.13217  0.61728  0.80257  1.0000
  H   H197      1.0  0.11028  0.58987  0.80703  1.0000
  C   C246      1.0  0.08061  0.52091  0.26051  1.0000
  C   C247      1.0  0.05442  0.53977  0.28995  1.0000
  C   C248      1.0  0.00585  0.61864  0.06883  1.0000
  C   C249      1.0  0.08539  0.50743  0.25042  1.0000
  C   C250      1.0  0.20879  0.53092  0.91731  1.0000
  H   H198      1.0  0.04613  0.51686  0.37090  1.0000
  C   C251      1.0  0.05092  0.55396  0.27477  1.0000
  C   C252      1.0  0.09032  0.50236  0.32096  1.0000
  C   C253      1.0  0.19405  0.59670  0.63616  1.0000
  C   C254      1.0  0.18838  0.65272  0.34745  1.0000
  C   C255      1.0  0.02365  0.63761  0.30699  1.0000
  C   C256      1.0  0.22433  0.53358  0.93034  1.0000
  H   H199      1.0  0.19270  0.64613  0.32437  1.0000
  H   H200      1.0  0.01470  0.63175  0.19400  1.0000
  C   C257      1.0  0.01815  0.61100  0.73917  1.0000
  C   C258      1.0  0.16398  0.73262  0.87555  1.0000
  C   C259      1.0  0.20341  0.58867  0.61417  1.0000
  H   H201      1.0  0.22491  0.72899  0.86190  1.0000
  H   H202      1.0  0.01108  0.57944  0.70137  1.0000
  S   S45       1.0  0.21088  0.72780  0.78264  1.0000
  C   C260      1.0  0.19046  0.67841  0.37604  1.0000
  S   S46       1.0  0.03020  0.61666  0.53481  1.0000
  H   H203      1.0  0.01840  0.66815  0.00562  1.0000
  C   C261      1.0  0.19873  0.57129  0.61999  1.0000
  H   H204      1.0  0.10766  0.59268  0.62743  1.0000
  H   H205      1.0  0.13840  0.59946  0.90716  1.0000
  H   H206      1.0  0.02451  0.51049  0.25037  1.0000
  H   H207      1.0  0.05623  0.63111  0.76529  1.0000
  C   C262      1.0  0.19601  0.66992  0.34623  1.0000
  H   H208      1.0  0.12189  0.57236  0.61342  1.0000
  C   C263      1.0  0.08336  0.67108  0.36116  1.0000
  H   H209      1.0  0.18360  0.72443  0.84928  1.0000
  C   C264      1.0  0.08025  0.52501  0.30116  1.0000
  H   H210      1.0  0.01818  0.59478  0.28176  1.0000
  C   C265      1.0  0.03800  0.55247  0.25117  1.0000
  H   H211      1.0  0.03876  0.63243  0.71025  1.0000
  C   C266      1.0  0.06089  0.65915  0.32216  1.0000
  C   C267      1.0  0.03781  0.60951  0.80124  1.0000
  H   H212      1.0  0.14224  0.62703  0.87095  1.0000
  H   H213      1.0  0.19638  0.69174  0.37514  1.0000
  H   H214      1.0  0.03601  0.56361  0.23802  1.0000
  C   C268      1.0  0.01163  0.57466  0.97209  1.0000
  C   C269      1.0  0.01457  0.59707  0.91832  1.0000
  C   C270      1.0  0.05128  0.50480  0.00670  1.0000
  H   H215      1.0  0.01069  0.60119  0.89027  1.0000
  C   C271      1.0  0.99712  0.55084  0.08995  1.0000
  C   C272      1.0  0.07441  0.54610  0.43774  1.0000
  H   H216      1.0  0.00955  0.59495  0.07855  1.0000
  H   H217      1.0  0.20622  0.67666  0.32218  1.0000
  C   C273      1.0  0.02257  0.51355  0.93826  1.0000
  C   C274      1.0  0.14901  0.58634  0.97398  1.0000
  H   H218      1.0  0.14976  0.59905  0.97746  1.0000
  H   H219      1.0  0.17548  0.59210  0.96941  1.0000
  C   C275      1.0  0.02357  0.58562  0.99151  1.0000
  C   C276      1.0  0.02815  0.59807  0.42804  1.0000
  H   H220      1.0  0.04203  0.62582  0.29309  1.0000
  C   C277      1.0  0.01208  0.59827  0.77266  1.0000
  C   C278      1.0  0.14766  0.55361  0.96655  1.0000
  H   H221      1.0  0.14714  0.54088  0.96415  1.0000
  P   P8        1.0  0.07286  0.54176  0.31422  1.0000
  C   C279      1.0  0.01888  0.66844  0.36421  1.0000
  C   C280      1.0  0.04391  0.62198  0.76743  1.0000
  C   C281      1.0  0.02617  0.60834  0.93849  1.0000
  C   C282      1.0  0.02842  0.53681  0.24251  1.0000
  P   P9        1.0  0.03528  0.63017  0.91754  1.0000
  C   C283      1.0  0.03680  0.64308  0.95913  1.0000
  C   C284      1.0  0.05137  0.65517  0.01491  1.0000
  C   C285      1.0  0.04988  0.64518  0.98286  1.0000
  H   H222      1.0  0.20604  0.56507  0.60323  1.0000
  H   H223      1.0  0.06118  0.65635  0.03389  1.0000
  C   C286      1.0  0.02558  0.65166  0.96727  1.0000
  C   C287      1.0  0.02726  0.66183  0.99900  1.0000
  C   C288      1.0  0.04002  0.66342  0.02310  1.0000
  C   C289      1.0  0.02856  0.64240  0.84142  1.0000
  H   H224      1.0  0.03961  0.61066  0.99109  1.0000
  H   H225      1.0  0.01545  0.65057  0.94969  1.0000
  C   C290      1.0  0.01698  0.63316  0.22572  1.0000
  H   H226      1.0  0.04098  0.67085  0.04856  1.0000
  H   H227      1.0  0.05593  0.60938  0.89742  1.0000
  C   C291      1.0  0.06744  0.53913  0.36982  1.0000
  C   C292      1.0  0.23029  0.53119  0.80570  1.0000
  C   C293      1.0  0.05633  0.63490  0.89245  1.0000
  H   H228      1.0  0.04168  0.64606  0.83046  1.0000
  C   C294      1.0  0.16363  0.58243  0.96967  1.0000
  C   C295      1.0  0.16296  0.56609  0.96563  1.0000
  H   H229      1.0  0.99958  0.62413  0.92611  1.0000
  C   C296      1.0  0.06323  0.62227  0.88724  1.0000
  H   H230      1.0  0.06145  0.66159  0.88531  1.0000
  H   H231      1.0  0.06958  0.58345  0.92162  1.0000
  C   C297      1.0  0.08848  0.56178  0.29512  1.0000
  H   H232      1.0  0.21440  0.59592  0.59290  1.0000
  H   H233      1.0  0.17428  0.56305  0.96219  1.0000
  Fe  Fe24      1.0  0.16121  0.50484  0.82030  1.0000
  C   C298      1.0  0.20579  0.50626  0.81140  1.0000
  C   C299      1.0  0.06634  0.65160  0.88037  1.0000
  C   C300      1.0  0.10187  0.56302  0.26496  1.0000
  H   H234      1.0  0.12350  0.57950  0.22491  1.0000
  C   C301      1.0  0.07979  0.62630  0.86936  1.0000
  C   C302      1.0  0.00062  0.56148  0.12034  1.0000
  C   C303      1.0  0.23969  0.52047  0.09467  1.0000
  C   C304      1.0  0.00876  0.54712  0.40584  1.0000
  C   C305      1.0  0.07785  0.54931  0.39454  1.0000
  H   H235      1.0  0.03693  0.59353  0.44222  1.0000
  H   H236      1.0  0.02862  0.56002  0.35553  1.0000
  C   C306      1.0  0.11331  0.57862  0.24847  1.0000
  S   S47       1.0  0.01964  0.62896  0.10229  1.0000
  H   H237      1.0  0.05667  0.65760  0.29235  1.0000
  H   H238      1.0  0.00956  0.57744  0.34944  1.0000
  H   H239      1.0  0.09072  0.66850  0.85424  1.0000
  C   C307      1.0  0.02206  0.61990  0.38737  1.0000
  H   H240      1.0  0.04790  0.64982  0.42618  1.0000
  H   H241      1.0  0.09674  0.60320  0.30185  1.0000
  C   C308      1.0  0.02194  0.59774  0.80396  1.0000
  H   H242      1.0  0.08501  0.50403  0.21924  1.0000
  H   H243      1.0  0.10252  0.64616  0.84395  1.0000
  C   C309      1.0  0.05067  0.52207  0.43225  1.0000
  H   H244      1.0  0.01330  0.50827  0.42965  1.0000
  C   C310      1.0  0.01134  0.58849  0.43466  1.0000
  H   H245      1.0  0.05850  0.52957  0.48982  1.0000
  H   H246      1.0  0.00762  0.55574  0.54651  1.0000
  H   H247      1.0  0.08526  0.51857  0.36292  1.0000
  H   H248      1.0  0.23705  0.51963  0.12805  1.0000
  H   H249      1.0  0.01489  0.56489  0.77857  1.0000
  H   H250      1.0  0.00337  0.64753  0.31121  1.0000
  C   C311      1.0  0.01076  0.52131  0.94661  1.0000
  H   H251      1.0  0.03386  0.52024  0.91755  1.0000
  C   C312      1.0  0.03246  0.62997  0.28165  1.0000
  C   C313      1.0  0.03352  0.61376  0.40462  1.0000
  H   H252      1.0  0.09631  0.67797  0.36200  1.0000
  H   H253      1.0  0.07681  0.52793  0.23673  1.0000
  C   C314      1.0  0.01800  0.64510  0.81395  1.0000
  H   H254      1.0  0.01259  0.53737  0.81408  1.0000
  H   H255      1.0  0.00479  0.52700  0.60045  1.0000
  H   H256      1.0  0.02303  0.65085  0.78248  1.0000
  H   H257      1.0  0.04068  0.51105  0.44709  1.0000
  C   C315      1.0  0.22876  0.74183  0.80040  1.0000
  C   C316      1.0  0.00349  0.55750  0.79821  1.0000
  C   C317      1.0  0.01087  0.64227  0.29190  1.0000
  C   C318      1.0  0.24057  0.50700  0.03265  1.0000
  C   C319      1.0  0.09020  0.49813  0.28064  1.0000
  C   C320      1.0  0.00666  0.57167  0.32170  1.0000
  C   C321      1.0  0.19920  0.51498  0.91038  1.0000
  H   H258      1.0  0.00725  0.57666  0.45419  1.0000
  H   H259      1.0  0.21818  0.50815  0.68721  1.0000
  H   H260      1.0  0.00365  0.57193  0.63287  1.0000
  C   C322      1.0  0.99713  0.62746  0.04864  1.0000
  C   C323      1.0  0.00758  0.57454  0.24725  1.0000
  H   H261      1.0  0.00719  0.54868  0.07107  1.0000
  C   C324      1.0  0.00303  0.60193  0.06269  1.0000
  C   C325      1.0  0.00220  0.54189  0.81798  1.0000
  C   C326      1.0  0.99815  0.49862  0.34113  1.0000
  H   H262      1.0  0.00882  0.63602  0.44160  1.0000
  C   C327      1.0  0.00147  0.65758  0.44412  1.0000
  H   H263      1.0  0.99813  0.64422  0.23931  1.0000
  H   H264      1.0  0.99889  0.64020  0.05392  1.0000
  H   H265      1.0  0.02512  0.50008  0.86898  1.0000
  H   H266      1.0  0.03492  0.50083  0.79524  1.0000
  C   C328      1.0  0.23881  0.49924  0.67548  1.0000
  H   H267      1.0  0.01541  0.53860  0.50488  1.0000
  C   C329      1.0  0.00921  0.64759  0.42453  1.0000
  C   C330      1.0  0.99804  0.59695  0.53582  1.0000
  H   H268      1.0  0.07194  0.50099  0.91520  1.0000
  C   C331      1.0  0.00532  0.54099  0.44807  1.0000
  C   C332      1.0  0.99850  0.57728  0.69526  1.0000
  H   H269      1.0  0.01342  0.56760  0.12443  1.0000
  C   C333      1.0  0.99445  0.63305  0.86758  1.0000
  C   C334      1.0  0.00233  0.67293  0.42374  1.0000
  C   C335      1.0  0.00071  0.51542  0.34499  1.0000
  H   H270      1.0  0.99619  0.61455  0.38027  1.0000
  H   H271      1.0  0.14728  0.74425  0.90220  1.0000
  C   C336      1.0  0.99458  0.54741  0.28750  1.0000
  H   H272      1.0  0.99499  0.65349  0.47540  1.0000
  C   C337      1.0  0.99433  0.57287  0.65663  1.0000
  C   C338      1.0  0.24043  0.77678  0.93926  1.0000
  C   C339      1.0  0.18553  0.80243  0.85186  1.0000
  C   C340      1.0  0.19615  0.82444  0.90978  1.0000
  C   C341      1.0  0.21608  0.78011  0.91335  1.0000
  C   C342      1.0  0.23233  0.77978  0.90617  1.0000
  C   C343      1.0  0.21426  0.78226  0.78670  1.0000
  C   C344      1.0  0.18456  0.82650  0.88478  1.0000
  C   C345      1.0  0.18884  0.76383  0.87173  1.0000
  C   C346      1.0  0.20239  0.81134  0.90600  1.0000
  H   H273      1.0  0.20958  0.77135  0.01863  1.0000
  C   C347      1.0  0.20786  0.77689  0.95412  1.0000
  H   H274      1.0  0.17047  0.81723  0.83597  1.0000
  C   C348      1.0  0.17236  0.76156  0.88805  1.0000
  H   H275      1.0  0.17979  0.83670  0.88762  1.0000
  H   H276      1.0  0.16904  0.77163  0.90002  1.0000
  H   H277      1.0  0.20546  0.75154  0.84726  1.0000
  H   H278      1.0  0.23727  0.80966  0.84530  1.0000
  C   C349      1.0  0.21882  0.78981  0.82214  1.0000
  C   C350      1.0  0.17929  0.81552  0.85573  1.0000
  H   H279      1.0  0.20042  0.83310  0.93185  1.0000
  P   P10       1.0  0.20522  0.78348  0.87096  1.0000
  H   H280      1.0  0.18155  0.79414  0.82879  1.0000
  H   H281      1.0  0.20273  0.77207  0.78794  1.0000
  H   H282      1.0  0.21165  0.81020  0.92495  1.0000
  C   C351      1.0  0.19690  0.80008  0.87746  1.0000
  C   C352      1.0  0.19278  0.75020  0.85870  1.0000
  C   C353      1.0  0.21598  0.77386  0.98724  1.0000
  C   C354      1.0  0.23366  0.80338  0.81866  1.0000
  C   C355      1.0  0.22473  0.78773  0.74891  1.0000
  H   H283      1.0  0.22136  0.78152  0.72201  1.0000
  C   C356      1.0  0.23905  0.75601  0.77352  1.0000
  H   H284      1.0  0.23632  0.75785  0.74234  1.0000
  H   H285      1.0  0.19515  0.77661  0.96022  1.0000
  C   C357      1.0  0.23973  0.80087  0.74609  1.0000
  C   C358      1.0  0.23229  0.77386  0.97981  1.0000
  H   H286      1.0  0.23877  0.78158  0.87511  1.0000
  H   H287      1.0  0.23858  0.77143  0.00535  1.0000
  Fe  Fe25      1.0  0.44409  0.06841  0.95841  1.0000
  S   S48       1.0  0.43496  0.07051  0.02468  1.0000
  S   S49       1.0  0.42835  0.06099  0.90652  1.0000
  Fe  Fe26      1.0  0.47769  0.06899  0.97986  1.0000
  S   S50       1.0  0.47193  0.07092  0.04710  1.0000
  Fe  Fe27      1.0  0.44722  0.05190  0.04290  1.0000
  S   S51       1.0  0.43733  0.02935  0.09122  1.0000
  Fe  Fe28      1.0  0.46038  0.08956  0.02482  1.0000
  S   S52       1.0  0.46652  0.11482  0.04956  1.0000
  S   S53       1.0  0.45423  0.04838  0.97780  1.0000
  S   S54       1.0  0.46834  0.08911  0.95659  1.0000
  C   C359      1.0  0.36834  0.00118  0.97158  1.0000
  Fe  Fe29      1.0  0.46029  0.04556  0.61728  1.0000
  S   S55       1.0  0.46606  0.07312  0.60833  1.0000
  Fe  Fe30      1.0  0.42330  0.03832  0.62838  1.0000
  S   S56       1.0  0.42579  0.06559  0.62095  1.0000
  S   S57       1.0  0.40020  0.01540  0.64182  1.0000
  Fe  Fe31      1.0  0.44604  0.06843  0.56786  1.0000
  S   S58       1.0  0.45038  0.07977  0.50006  1.0000
  Fe  Fe32      1.0  0.44584  0.06831  0.66238  1.0000
  S   S59       1.0  0.45278  0.08499  0.71324  1.0000
  S   S60       1.0  0.44184  0.04091  0.57288  1.0000
  S   S61       1.0  0.44167  0.04094  0.67365  1.0000
  C   C360      1.0  0.45999  0.10109  0.47972  1.0000
  C   C361      1.0  0.46543  0.10516  0.43696  1.0000
  C   C362      1.0  0.47170  0.12186  0.41857  1.0000
  C   C363      1.0  0.47149  0.01569  0.44806  1.0000
  C   C364      1.0  0.46150  0.11398  0.50429  1.0000
  H   H288      1.0  0.49187  0.22592  0.33997  1.0000
  H   H289      1.0  0.45737  0.11105  0.53725  1.0000
  C   C365      1.0  0.42841  0.03989  0.44595  1.0000
  C   C366      1.0  0.43545  0.01851  0.87530  1.0000
  C   C367      1.0  0.39963  0.01375  0.55802  1.0000
  H   H290      1.0  0.44976  0.00638  0.60505  1.0000
  C   C368      1.0  0.46680  0.05290  0.80782  1.0000
  C   C369      1.0  0.37874  0.01689  0.95268  1.0000
  H   H291      1.0  0.39890  0.01201  0.49286  1.0000
  H   H292      1.0  0.40797  0.02649  0.55322  1.0000
  C   C370      1.0  0.46780  0.13074  0.48585  1.0000
  C   C371      1.0  0.43390  0.11678  0.34875  1.0000
  C   C372      1.0  0.43566  0.06766  0.85297  1.0000
  C   C373      1.0  0.44950  0.08190  0.83915  1.0000
  C   C374      1.0  0.45444  0.08718  0.79635  1.0000
  C   C375      1.0  0.44593  0.07803  0.76687  1.0000
  C   C376      1.0  0.43230  0.06362  0.78070  1.0000
  C   C377      1.0  0.42706  0.05863  0.82349  1.0000
  H   H293      1.0  0.45619  0.08902  0.86144  1.0000
  H   H294      1.0  0.46501  0.09831  0.78602  1.0000
  H   H295      1.0  0.42558  0.05653  0.75840  1.0000
  H   H296      1.0  0.41623  0.04774  0.83377  1.0000
  C   C378      1.0  0.47013  0.12001  0.10019  1.0000
  C   C379      1.0  0.46425  0.10817  0.13539  1.0000
  H   H297      1.0  0.45791  0.09528  0.13196  1.0000
  H   H298      1.0  0.44368  0.16368  0.36198  1.0000
  C   C380      1.0  0.46008  0.23589  0.13747  1.0000
  H   H299      1.0  0.48599  0.15470  0.14863  1.0000
  C   C381      1.0  0.42445  0.08244  0.22482  1.0000
  C   C382      1.0  0.46584  0.11318  0.17523  1.0000
  C   C383      1.0  0.41631  0.01393  0.03791  1.0000
  H   H300      1.0  0.40617  0.01511  0.38156  1.0000
  C   C384      1.0  0.39850  0.07376  0.38048  1.0000
  C   C385      1.0  0.41133  0.08769  0.21533  1.0000
  H   H301      1.0  0.41931  0.02615  0.02077  1.0000
  S   S62       1.0  0.47356  0.13570  0.23164  1.0000
  H   H302      1.0  0.44669  0.03463  0.47913  1.0000
  H   H303      1.0  0.49329  0.09975  0.85558  1.0000
  C   C386      1.0  0.40360  0.09482  0.24454  1.0000
  S   S63       1.0  0.47863  0.17400  0.30144  1.0000
  H   H304      1.0  0.42756  0.02421  0.86055  1.0000
  H   H305      1.0  0.38988  0.01124  0.12717  1.0000
  C   C387      1.0  0.41698  0.03448  0.41842  1.0000
  H   H306      1.0  0.39416  0.07466  0.35088  1.0000
  H   H307      1.0  0.40734  0.08650  0.18504  1.0000
  C   C388      1.0  0.43819  0.13890  0.39288  1.0000
  C   C389      1.0  0.43474  0.12207  0.38823  1.0000
  C   C390      1.0  0.41551  0.01968  0.40147  1.0000
  H   H308      1.0  0.46258  0.01356  0.53239  1.0000
  P   P11       1.0  0.44963  0.00363  0.45475  1.0000
  C   C391      1.0  0.46892  0.01338  0.06890  1.0000
  H   H309      1.0  0.48285  0.14602  0.07841  1.0000
  H   H310      1.0  0.43941  0.14297  0.42324  1.0000
  H   H311      1.0  0.41143  0.01664  0.17251  1.0000
  H   H312      1.0  0.42709  0.02269  0.93643  1.0000
  H   H313      1.0  0.48403  0.22187  0.19757  1.0000
  H   H314      1.0  0.39851  0.00190  0.99917  1.0000
  C   C392      1.0  0.47275  0.13476  0.44283  1.0000
  S   S64       1.0  0.47979  0.03342  0.61313  1.0000
  C   C393      1.0  0.43727  0.01590  0.43881  1.0000
  C   C394      1.0  0.39008  0.01824  0.91767  1.0000
  C   C395      1.0  0.48645  0.12772  0.59260  1.0000
  H   H315      1.0  0.46078  0.10403  0.20225  1.0000
  C   C396      1.0  0.45727  0.00564  0.91332  1.0000
  H   H316      1.0  0.41283  0.06985  0.48831  1.0000
  H   H317      1.0  0.46854  0.14063  0.50490  1.0000
  H   H318      1.0  0.44043  0.08070  0.26957  1.0000
  C   C397      1.0  0.47825  0.13675  0.10539  1.0000
  H   H319      1.0  0.49041  0.10961  0.30589  1.0000
  H   H320      1.0  0.37436  0.05782  0.41065  1.0000
  C   C398      1.0  0.49225  0.10642  0.63539  1.0000
  C   C399      1.0  0.39440  0.00559  0.52381  1.0000
  C   C400      1.0  0.47757  0.03218  0.42838  1.0000
  H   H321      1.0  0.45433  0.04419  0.81102  1.0000
  C   C401      1.0  0.42558  0.01037  0.41168  1.0000
  C   C402      1.0  0.42962  0.01725  0.23922  1.0000
  C   C403      1.0  0.44042  0.02538  0.20289  1.0000
  C   C404      1.0  0.44978  0.04228  0.19989  1.0000
  C   C405      1.0  0.44877  0.05112  0.23351  1.0000
  C   C406      1.0  0.43827  0.04306  0.27010  1.0000
  C   C407      1.0  0.42869  0.02618  0.27298  1.0000
  C   C408      1.0  0.39382  0.00552  0.59825  1.0000
  H   H322      1.0  0.37826  0.02802  0.96559  1.0000
  H   H323      1.0  0.46614  0.00257  0.85116  1.0000
  H   H324      1.0  0.47451  0.11807  0.65520  1.0000
  C   C409      1.0  0.42374  0.01196  0.07304  1.0000
  S   S65       1.0  0.47958  0.15593  0.42046  1.0000
  H   H325      1.0  0.39360  0.09914  0.23687  1.0000
  C   C410      1.0  0.44309  0.00022  0.58133  1.0000
  H   H326      1.0  0.46704  0.01711  0.09932  1.0000
  C   C411      1.0  0.48136  0.02023  0.99705  1.0000
  C   C412      1.0  0.48275  0.00816  0.46079  1.0000
  C   C413      1.0  0.45037  0.00421  0.53986  1.0000
  C   C414      1.0  0.47476  0.05657  0.84268  1.0000
  H   H327      1.0  0.46856  0.05035  0.87312  1.0000
  H   H328      1.0  0.39834  0.03045  0.90356  1.0000
  H   H329      1.0  0.44131  0.01874  0.17640  1.0000
  H   H330      1.0  0.45763  0.04853  0.17111  1.0000
  H   H331      1.0  0.45603  0.06425  0.23098  1.0000
  H   H332      1.0  0.43743  0.04992  0.29610  1.0000
  H   H333      1.0  0.42060  0.02024  0.30147  1.0000
  H   H334      1.0  0.39994  0.00515  0.87458  1.0000
  H   H335      1.0  0.47538  0.12478  0.38552  1.0000
  C   C415      1.0  0.38717  0.06413  0.41440  1.0000
  C   C416      1.0  0.44619  0.01247  0.85150  1.0000
  C   C417      1.0  0.48009  0.14172  0.14521  1.0000
  C   C418      1.0  0.44003  0.14550  0.31890  1.0000
  H   H336      1.0  0.43321  0.11346  0.41557  1.0000
  H   H337      1.0  0.48696  0.03345  0.89625  1.0000
  H   H338      1.0  0.44248  0.15463  0.29189  1.0000
  C   C419      1.0  0.43694  0.12874  0.31401  1.0000
  C   C420      1.0  0.39229  0.06275  0.45328  1.0000
  C   C421      1.0  0.47356  0.13000  0.18046  1.0000
  C   C422      1.0  0.43834  0.03054  0.45656  1.0000
  C   C423      1.0  0.42220  0.09147  0.29307  1.0000
  C   C424      1.0  0.47456  0.06120  0.76880  1.0000
  H   H339      1.0  0.43736  0.12530  0.28291  1.0000
  H   H340      1.0  0.42935  0.05111  0.46014  1.0000
  C   C425      1.0  0.42991  0.08435  0.26347  1.0000
  H   H341      1.0  0.46824  0.05855  0.74189  1.0000
  C   C426      1.0  0.46412  0.10332  0.32293  1.0000
  H   H342      1.0  0.46930  0.03823  0.41737  1.0000
  C   C427      1.0  0.44922  0.09100  0.34115  1.0000
  H   H343      1.0  0.40894  0.04149  0.41119  1.0000
  C   C428      1.0  0.44069  0.15059  0.35831  1.0000
  H   H344      1.0  0.40321  0.10269  0.30515  1.0000
  C   C429      1.0  0.47914  0.08420  0.33508  1.0000
  H   H345      1.0  0.46427  0.11558  0.31098  1.0000
  C   C430      1.0  0.49404  0.08329  0.51344  1.0000
  H   H346      1.0  0.43797  0.06529  0.36848  1.0000
  C   C431      1.0  0.40134  0.00490  0.17861  1.0000
  H   H347      1.0  0.49294  0.02258  0.73396  1.0000
  C   C432      1.0  0.44937  0.07509  0.35527  1.0000
  C   C433      1.0  0.47258  0.00409  0.98914  1.0000
  H   H348      1.0  0.45769  0.00306  0.36668  1.0000
  C   C434      1.0  0.43529  0.01778  0.91808  1.0000
  H   H349      1.0  0.48624  0.09103  0.51340  1.0000
  C   C435      1.0  0.41510  0.08209  0.38519  1.0000
  C   C436      1.0  0.40878  0.07086  0.45817  1.0000
  C   C437      1.0  0.42016  0.08028  0.42423  1.0000
  C   C438      1.0  0.38902  0.00192  0.15270  1.0000
  H   H350      1.0  0.38351  0.05538  0.47965  1.0000
  P   P12       1.0  0.42988  0.09508  0.34207  1.0000
  H   H351      1.0  0.43291  0.08625  0.42871  1.0000
  Fe  Fe33      1.0  0.49039  0.16464  0.35244  1.0000
  H   H352      1.0  0.35988  0.00009  0.99944  1.0000
  H   H353      1.0  0.49073  0.08167  0.33298  1.0000
  H   H354      1.0  0.43066  0.07727  0.20172  1.0000
  C   C439      1.0  0.40904  0.09675  0.28321  1.0000
  C   C440      1.0  0.47904  0.23048  0.18183  1.0000
  C   C441      1.0  0.47902  0.09994  0.32001  1.0000
  H   H355      1.0  0.46453  0.09530  0.41783  1.0000
  H   H356      1.0  0.46434  0.05955  0.36429  1.0000
  C   C442      1.0  0.45730  0.00639  0.87028  1.0000
  C   C443      1.0  0.46431  0.07176  0.35263  1.0000
  H   H357      1.0  0.47362  0.06083  0.51176  1.0000
  C   C444      1.0  0.49045  0.06877  0.83845  1.0000
  C   C445      1.0  0.44603  0.01122  0.93718  1.0000
  H   H358      1.0  0.44573  0.01099  0.97039  1.0000
  C   C446      1.0  0.46651  0.22471  0.15735  1.0000
  C   C447      1.0  0.48995  0.07378  0.76477  1.0000
  H   H359      1.0  0.42378  0.99864  0.39948  1.0000
  C   C448      1.0  0.40442  0.00018  0.02585  1.0000
  H   H360      1.0  0.46177  0.21157  0.15394  1.0000
  C   C449      1.0  0.47947  0.02488  0.03669  1.0000
  H   H361      1.0  0.45033  0.23139  0.11857  1.0000
  H   H362      1.0  0.48580  0.03759  0.04195  1.0000
  C   C450      1.0  0.39099  0.00389  0.90146  1.0000
  C   C451      1.0  0.48369  0.11764  0.63031  1.0000
  H   H363      1.0  0.44635  0.01316  0.81825  1.0000
  H   H364      1.0  0.47939  0.13603  0.58817  1.0000
  Fe  Fe34      1.0  0.48877  0.15822  0.26103  1.0000
  C   C452      1.0  0.48683  0.06615  0.51256  1.0000
  H   H365      1.0  0.48746  0.00113  0.12611  1.0000
  H   H366      1.0  0.48931  0.02943  0.97252  1.0000
  H   H367      1.0  0.48571  0.06121  0.66061  1.0000
  P   P13       1.0  0.47262  0.99901  0.93667  1.0000
  H   H368      1.0  0.48957  0.09812  0.66411  1.0000
  C   C453      1.0  0.49261  0.01060  0.90682  1.0000
  C   C454      1.0  0.49320  0.00025  0.70807  1.0000
  H   H369      1.0  0.49071  0.04245  0.51635  1.0000
  C   C455      1.0  0.48514  0.24739  0.18640  1.0000
  H   H370      1.0  0.45616  0.46685  0.60816  1.0000
  H   H371      1.0  0.39494  0.47213  0.36799  1.0000
  Fe  Fe35      1.0  0.46035  0.40978  0.00815  1.0000
  S   S66       1.0  0.44331  0.38395  0.00379  1.0000
  S   S67       1.0  0.45586  0.43194  0.03389  1.0000
  Fe  Fe36      1.0  0.46302  0.37492  0.02790  1.0000
  H   H372      1.0  0.41515  0.41586  0.11666  1.0000
  Fe  Fe37      1.0  0.45823  0.38719  0.94062  1.0000
  S   S68       1.0  0.44506  0.37907  0.88532  1.0000
  H   H373      1.0  0.35668  0.48906  0.22430  1.0000
  S   S69       1.0  0.47387  0.41363  0.94371  1.0000
  Fe  Fe38      1.0  0.38335  0.46477  0.06901  1.0000
  S   S70       1.0  0.35992  0.46410  0.10842  1.0000
  S   S71       1.0  0.38698  0.44431  0.03349  1.0000
  H   H374      1.0  0.40156  0.47944  0.66645  1.0000
  S   S72       1.0  0.47655  0.37610  0.96433  1.0000
  Fe  Fe39      1.0  0.37672  0.47536  0.15453  1.0000
  S   S73       1.0  0.37444  0.46515  0.22195  1.0000
  H   H375      1.0  0.38015  0.44400  0.65608  1.0000
  H   H376      1.0  0.48261  0.42591  0.33330  1.0000
  S   S74       1.0  0.39945  0.47389  0.11705  1.0000
  H   H377      1.0  0.32841  0.45188  0.68984  1.0000
  Fe  Fe40      1.0  0.48043  0.43683  0.56750  1.0000
  S   S75       1.0  0.48192  0.41140  0.58144  1.0000
  Fe  Fe41      1.0  0.44421  0.42639  0.60404  1.0000
  S   S76       1.0  0.44258  0.39972  0.62135  1.0000
  S   S77       1.0  0.42516  0.43868  0.62091  1.0000
  Fe  Fe42      1.0  0.46742  0.41091  0.64326  1.0000
  S   S78       1.0  0.47914  0.40661  0.70036  1.0000
  Fe  Fe43      1.0  0.45746  0.40270  0.55785  1.0000
  S   S79       1.0  0.45272  0.38599  0.50667  1.0000
  S   S80       1.0  0.46788  0.43717  0.63023  1.0000
  S   S81       1.0  0.45702  0.42849  0.53972  1.0000
  H   H378      1.0  0.27984  0.49095  0.74237  1.0000
  H   H379      1.0  0.32589  0.43385  0.57182  1.0000
  Fe  Fe44      1.0  0.37341  0.47527  0.48453  1.0000
  S   S82       1.0  0.34631  0.46804  0.47752  1.0000
  S   S83       1.0  0.38651  0.45625  0.47914  1.0000
  H   H380      1.0  0.48458  0.38598  0.52981  1.0000
  H   H381      1.0  0.43630  0.47062  0.83100  1.0000
  C   C456      1.0  0.49197  0.40593  0.32252  1.0000
  S   S84       1.0  0.32484  0.47807  0.58332  1.0000
  C   C457      1.0  0.27540  0.48627  0.91173  1.0000
  C   C458      1.0  0.43016  0.49658  0.17988  1.0000
  H   H382      1.0  0.26394  0.48714  0.85650  1.0000
  C   C459      1.0  0.46734  0.36141  0.60407  1.0000
  C   C460      1.0  0.38200  0.44488  0.68804  1.0000
  C   C461      1.0  0.46765  0.37744  0.48610  1.0000
  H   H383      1.0  0.39129  0.49642  0.81838  1.0000
  C   C462      1.0  0.40688  0.43339  0.14843  1.0000
  C   C463      1.0  0.46496  0.36880  0.45132  1.0000
  H   H384      1.0  0.26745  0.45487  0.65622  1.0000
  H   H385      1.0  0.46632  0.33253  0.67317  1.0000
  H   H386      1.0  0.45372  0.36730  0.43772  1.0000
  C   C464      1.0  0.41582  0.44462  0.57956  1.0000
  C   C465      1.0  0.40874  0.45720  0.58297  1.0000
  C   C466      1.0  0.40051  0.46154  0.55123  1.0000
  C   C467      1.0  0.39864  0.45277  0.51687  1.0000
  C   C468      1.0  0.40614  0.44054  0.51290  1.0000
  C   C469      1.0  0.41486  0.43659  0.54395  1.0000
  H   H387      1.0  0.40961  0.46356  0.61020  1.0000
  H   H388      1.0  0.39536  0.47144  0.55359  1.0000
  H   H389      1.0  0.40480  0.43377  0.48629  1.0000
  H   H390      1.0  0.42021  0.42683  0.54112  1.0000
  C   C470      1.0  0.36675  0.47415  0.26267  1.0000
  C   C471      1.0  0.36881  0.46953  0.30339  1.0000
  C   C472      1.0  0.36265  0.47614  0.33679  1.0000
  H   H391      1.0  0.28164  0.47783  0.90145  1.0000
  H   H392      1.0  0.47426  0.35488  0.40826  1.0000
  C   C473      1.0  0.35183  0.49177  0.28911  1.0000
  H   H393      1.0  0.37506  0.46067  0.30926  1.0000
  H   H394      1.0  0.36422  0.47239  0.36805  1.0000
  C   C474      1.0  0.38752  0.44646  0.77046  1.0000
  H   H395      1.0  0.39889  0.43484  0.12584  1.0000
  H   H396      1.0  0.45267  0.47906  0.25100  1.0000
  S   S85       1.0  0.37113  0.48931  0.53830  1.0000
  H   H397      1.0  0.43702  0.41931  0.83453  1.0000
  C   C475      1.0  0.45380  0.38786  0.83387  1.0000
  C   C476      1.0  0.44659  0.38019  0.80090  1.0000
  C   C477      1.0  0.45357  0.38654  0.75954  1.0000
  C   C478      1.0  0.46791  0.40057  0.75088  1.0000
  C   C479      1.0  0.47481  0.40850  0.78388  1.0000
  C   C480      1.0  0.46780  0.40222  0.82516  1.0000
  H   H398      1.0  0.43571  0.36909  0.80744  1.0000
  H   H399      1.0  0.43503  0.42761  0.22936  1.0000
  H   H400      1.0  0.46925  0.49398  0.83607  1.0000
  H   H401      1.0  0.47346  0.40824  0.85025  1.0000
  H   H402      1.0  0.37468  0.46414  0.77152  1.0000
  C   C481      1.0  0.35048  0.44656  0.58513  1.0000
  C   C482      1.0  0.48103  0.29342  0.13532  1.0000
  H   H403      1.0  0.44308  0.44104  0.70706  1.0000
  H   H404      1.0  0.42454  0.41443  0.69071  1.0000
  C   C483      1.0  0.39076  0.43547  0.70565  1.0000
  P   P14       1.0  0.36492  0.46786  0.68856  1.0000
  C   C484      1.0  0.47662  0.36183  0.43441  1.0000
  C   C485      1.0  0.44691  0.48589  0.58472  1.0000
  C   C486      1.0  0.43664  0.43506  0.03316  1.0000
  C   C487      1.0  0.43486  0.44962  0.04657  1.0000
  C   C488      1.0  0.41980  0.45268  0.04606  1.0000
  C   C489      1.0  0.40627  0.44106  0.03284  1.0000
  C   C490      1.0  0.40813  0.42659  0.01890  1.0000
  C   C491      1.0  0.42329  0.42359  0.01899  1.0000
  H   H405      1.0  0.44520  0.45857  0.05727  1.0000
  H   H406      1.0  0.41869  0.46406  0.05577  1.0000
  H   H407      1.0  0.39776  0.41759  0.00841  1.0000
  H   H408      1.0  0.42458  0.41237  0.00837  1.0000
  H   H409      1.0  0.47381  0.46810  0.54276  1.0000
  H   H410      1.0  0.27810  0.43640  0.69834  1.0000
  H   H411      1.0  0.41217  0.39038  0.74553  1.0000
  Fe  Fe45      1.0  0.34473  0.48427  0.52763  1.0000
  C   C492      1.0  0.33323  0.43992  0.59457  1.0000
  C   C493      1.0  0.45418  0.33381  0.56266  1.0000
  C   C494      1.0  0.44563  0.34502  0.56827  1.0000
  C   C495      1.0  0.45208  0.35863  0.58958  1.0000
  H   H412      1.0  0.44542  0.36732  0.59366  1.0000
  C   C496      1.0  0.44391  0.49254  0.70056  1.0000
  C   C497      1.0  0.47801  0.28351  0.22434  1.0000
  H   H413      1.0  0.43718  0.47471  0.17878  1.0000
  H   H414      1.0  0.44914  0.32323  0.54620  1.0000
  H   H415      1.0  0.43409  0.34329  0.55576  1.0000
  H   H416      1.0  0.31014  0.47797  0.66685  1.0000
  C   C498      1.0  0.45075  0.44179  0.44188  1.0000
  C   C499      1.0  0.46224  0.43382  0.43193  1.0000
  C   C500      1.0  0.24521  0.48636  0.68472  1.0000
  P   P15       1.0  0.48662  0.28055  0.17392  1.0000
  C   C501      1.0  0.47321  0.46682  0.45032  1.0000
  C   C502      1.0  0.45619  0.45821  0.45108  1.0000
  C   C503      1.0  0.49307  0.30414  0.10389  1.0000
  C   C504      1.0  0.45756  0.49800  0.51366  1.0000
  C   C505      1.0  0.27341  0.47458  0.69554  1.0000
  C   C506      1.0  0.42722  0.42949  0.20704  1.0000
  C   C507      1.0  0.46668  0.47643  0.54480  1.0000
  C   C508      1.0  0.45671  0.47571  0.58193  1.0000
  C   C509      1.0  0.27955  0.47915  0.73237  1.0000
  C   C510      1.0  0.47880  0.25876  0.16656  1.0000
  C   C511      1.0  0.31926  0.49016  0.65682  1.0000
  H   H417      1.0  0.41376  0.46820  0.41741  1.0000
  C   C512      1.0  0.48983  0.47316  0.14880  1.0000
  C   C513      1.0  0.47626  0.35047  0.59759  1.0000
  H   H418      1.0  0.43757  0.43505  0.44403  1.0000
  H   H419      1.0  0.45795  0.42084  0.42665  1.0000
  H   H420      1.0  0.33748  0.47777  0.93032  1.0000
  H   H421      1.0  0.46296  0.43689  0.85918  1.0000
  H   H422      1.0  0.44707  0.46406  0.45976  1.0000
  C   C514      1.0  0.41830  0.44052  0.21200  1.0000
  H   H423      1.0  0.36089  0.42066  0.30496  1.0000
  H   H424      1.0  0.24411  0.48727  0.60040  1.0000
  H   H425      1.0  0.43872  0.48477  0.61303  1.0000
  C   C515      1.0  0.48122  0.44719  0.73699  1.0000
  H   H426      1.0  0.43280  0.41202  0.16927  1.0000
  H   H427      1.0  0.45438  0.33125  0.15332  1.0000
  H   H428      1.0  0.46030  0.32678  0.74916  1.0000
  C   C516      1.0  0.28507  0.45321  0.74394  1.0000
  H   H429      1.0  0.39996  0.42857  0.76058  1.0000
  H   H430      1.0  0.29043  0.47233  0.78445  1.0000
  C   C517      1.0  0.35149  0.48895  0.73151  1.0000
  C   C518      1.0  0.48222  0.37926  0.50340  1.0000
  C   C519      1.0  0.35186  0.47270  0.72940  1.0000
  C   C520      1.0  0.28546  0.46856  0.75635  1.0000
  C   C521      1.0  0.47047  0.49569  0.38533  1.0000
  H   H431      1.0  0.28975  0.44508  0.76239  1.0000
  S   S86       1.0  0.38795  0.49020  0.03589  1.0000
  H   H432      1.0  0.32271  0.45286  0.81298  1.0000
  C   C522      1.0  0.40355  0.44499  0.33614  1.0000
  H   H433      1.0  0.37223  0.48868  0.93033  1.0000
  C   C523      1.0  0.49385  0.37240  0.48639  1.0000
  H   H434      1.0  0.29149  0.48095  0.61001  1.0000
  H   H435      1.0  0.46097  0.26122  0.12643  1.0000
  H   H436      1.0  0.42940  0.47136  0.90548  1.0000
  H   H437      1.0  0.36362  0.42370  0.37888  1.0000
  H   H438      1.0  0.42824  0.42852  0.30939  1.0000
  C   C524      1.0  0.45287  0.44070  0.32288  1.0000
  C   C525      1.0  0.34277  0.48910  0.98610  1.0000
  C   C526      1.0  0.47375  0.27084  0.25788  1.0000
  C   C527      1.0  0.37441  0.42891  0.35540  1.0000
  C   C528      1.0  0.46045  0.30436  0.11040  1.0000
  H   H439      1.0  0.47216  0.43959  0.71983  1.0000
  C   C529      1.0  0.33487  0.45015  0.66143  1.0000
  C   C530      1.0  0.46657  0.46898  0.28987  1.0000
  S   S87       1.0  0.47856  0.40040  0.03757  1.0000
  C   C531      1.0  0.41599  0.48039  0.40080  1.0000
  S   S88       1.0  0.34552  0.49511  0.37145  1.0000
  C   C532      1.0  0.42602  0.42059  0.17285  1.0000
  C   C533      1.0  0.46929  0.33635  0.57783  1.0000
  H   H440      1.0  0.31203  0.43715  0.63920  1.0000
  S   S89       1.0  0.45797  0.35305  0.07828  1.0000
  H   H441      1.0  0.44825  0.38017  0.73450  1.0000
  C   C534      1.0  0.37900  0.45614  0.75274  1.0000
  C   C535      1.0  0.47430  0.34336  0.18708  1.0000
  H   H442      1.0  0.41518  0.45224  0.34538  1.0000
  H   H443      1.0  0.46465  0.26378  0.32289  1.0000
  H   H444      1.0  0.38497  0.43312  0.25133  1.0000
  H   H445      1.0  0.48764  0.45103  0.90571  1.0000
  H   H446      1.0  0.44790  0.30471  0.11319  1.0000
  H   H447      1.0  0.47785  0.48236  0.89853  1.0000
  H   H448      1.0  0.40369  0.47565  0.28540  1.0000
  C   C536      1.0  0.33076  0.46290  0.79013  1.0000
  C   C537      1.0  0.43862  0.45365  0.27751  1.0000
  H   H449      1.0  0.47543  0.32726  0.57384  1.0000
  C   C538      1.0  0.49131  0.44131  0.17128  1.0000
  H   H450      1.0  0.42412  0.45791  0.76924  1.0000
  C   C539      1.0  0.42721  0.41567  0.72216  1.0000
  H   H451      1.0  0.35655  0.44553  0.55518  1.0000
  C   C540      1.0  0.35227  0.45672  0.65238  1.0000
  C   C541      1.0  0.40802  0.44228  0.18257  1.0000
  C   C542      1.0  0.38973  0.43783  0.36657  1.0000
  H   H452      1.0  0.45284  0.43004  0.34336  1.0000
  H   H453      1.0  0.39074  0.43950  0.39883  1.0000
  H   H454      1.0  0.47008  0.33383  0.21346  1.0000
  H   H455      1.0  0.47739  0.45595  0.33156  1.0000
  C   C543      1.0  0.40222  0.44303  0.29427  1.0000
  P   P16       1.0  0.42005  0.45270  0.25494  1.0000
  H   H456      1.0  0.47648  0.48163  0.72686  1.0000
  C   C544      1.0  0.47014  0.35470  0.11936  1.0000
  C   C545      1.0  0.37980  0.48629  0.65810  1.0000
  H   H457      1.0  0.47211  0.37218  0.62000  1.0000
  H   H458      1.0  0.41846  0.39312  0.81739  1.0000
  H   H459      1.0  0.45568  0.43791  0.93401  1.0000
  H   H460      1.0  0.39549  0.42760  0.68713  1.0000
  C   C546      1.0  0.33031  0.47902  0.79146  1.0000
  C   C547      1.0  0.41597  0.42264  0.14338  1.0000
  H   H461      1.0  0.38947  0.44687  0.80260  1.0000
  C   C548      1.0  0.41142  0.48150  0.25644  1.0000
  C   C549      1.0  0.35990  0.45501  0.61378  1.0000
  H   H462      1.0  0.34983  0.48138  0.99588  1.0000
  C   C550      1.0  0.48475  0.34180  0.75901  1.0000
  C   C551      1.0  0.46943  0.30127  0.26959  1.0000
  C   C552      1.0  0.42016  0.40215  0.75304  1.0000
  C   C553      1.0  0.37593  0.45526  0.71147  1.0000
  H   H463      1.0  0.24661  0.48208  0.52753  1.0000
  C   C554      1.0  0.47255  0.31516  0.07967  1.0000
  C   C555      1.0  0.43777  0.43076  0.73165  1.0000
  C   C556      1.0  0.43092  0.47993  0.72533  1.0000
  C   C557      1.0  0.49103  0.36341  0.45237  1.0000
  P   P17       1.0  0.49173  0.42044  0.18345  1.0000
  H   H464      1.0  0.43905  0.45511  0.95688  1.0000
  H   H465      1.0  0.46066  0.29064  0.33322  1.0000
  C   C558      1.0  0.47671  0.44487  0.18254  1.0000
  C   C559      1.0  0.39339  0.43612  0.74692  1.0000
  C   C560      1.0  0.38668  0.43423  0.28334  1.0000
  C   C561      1.0  0.37289  0.42713  0.31382  1.0000
  Fe  Fe46      1.0  0.36617  0.49067  0.07912  1.0000
  C   C562      1.0  0.47336  0.40580  0.16862  1.0000
  C   C563      1.0  0.46609  0.41042  0.13513  1.0000
  C   C564      1.0  0.45242  0.39885  0.12233  1.0000
  C   C565      1.0  0.44595  0.38259  0.14253  1.0000
  C   C566      1.0  0.45296  0.37794  0.17607  1.0000
  C   C567      1.0  0.46661  0.38945  0.18906  1.0000
  C   C568      1.0  0.34145  0.45973  0.75923  1.0000
  C   C569      1.0  0.46535  0.34198  0.15302  1.0000
  Fe  Fe47      1.0  0.35417  0.49172  0.43347  1.0000
  H   H466      1.0  0.46577  0.43521  0.19892  1.0000
  H   H467      1.0  0.40075  0.45046  0.18617  1.0000
  H   H468      1.0  0.48803  0.43605  0.42403  1.0000
  C   C570      1.0  0.47598  0.46074  0.17129  1.0000
  H   H469      1.0  0.47729  0.48027  0.28462  1.0000
  C   C571      1.0  0.46516  0.28857  0.30269  1.0000
  H   H470      1.0  0.37315  0.46045  0.60548  1.0000
  C   C572      1.0  0.46667  0.45527  0.31618  1.0000
  H   H471      1.0  0.27146  0.47650  0.49553  1.0000
  C   C573      1.0  0.43892  0.43987  0.30358  1.0000
  C   C574      1.0  0.42080  0.47332  0.23497  1.0000
  C   C575      1.0  0.27258  0.45892  0.68389  1.0000
  H   H472      1.0  0.47125  0.42275  0.11782  1.0000
  H   H473      1.0  0.44710  0.40237  0.09591  1.0000
  H   H474      1.0  0.43581  0.37345  0.13143  1.0000
  H   H475      1.0  0.44824  0.36518  0.19093  1.0000
  H   H476      1.0  0.47212  0.38523  0.21407  1.0000
  H   H477      1.0  0.46451  0.46322  0.17895  1.0000
  C   C576      1.0  0.45259  0.46822  0.27069  1.0000
  H   H478      1.0  0.34142  0.44708  0.75821  1.0000
  C   C577      1.0  0.43023  0.48100  0.19652  1.0000
  C   C578      1.0  0.32544  0.44171  0.63269  1.0000
  H   H479      1.0  0.48602  0.41919  0.77770  1.0000
  H   H480      1.0  0.32183  0.48144  0.81494  1.0000
  C   C579      1.0  0.48468  0.45873  0.44041  1.0000
  C   C580      1.0  0.43430  0.46781  0.75083  1.0000
  C   C581      1.0  0.45071  0.46834  0.75231  1.0000
  C   C582      1.0  0.46371  0.48106  0.72728  1.0000
  P   P18       1.0  0.45473  0.45220  0.78452  1.0000
  C   C583      1.0  0.47627  0.45409  0.77137  1.0000
  C   C584      1.0  0.45034  0.45381  0.83911  1.0000
  C   C585      1.0  0.45593  0.44478  0.86872  1.0000
  C   C586      1.0  0.45187  0.44530  0.91103  1.0000
  C   C587      1.0  0.44241  0.45495  0.92409  1.0000
  C   C588      1.0  0.43696  0.46410  0.89499  1.0000
  C   C589      1.0  0.44087  0.46354  0.85268  1.0000
  C   C590      1.0  0.34071  0.49203  0.76236  1.0000
  C   C591      1.0  0.40555  0.48255  0.37255  1.0000
  C   C592      1.0  0.27033  0.47865  0.52770  1.0000
  H   H481      1.0  0.46801  0.31315  0.27437  1.0000
  H   H482      1.0  0.41820  0.47937  0.72439  1.0000
  C   C593      1.0  0.44146  0.43243  0.77227  1.0000
  C   C594      1.0  0.43434  0.41871  0.80308  1.0000
  C   C595      1.0  0.42365  0.40371  0.79350  1.0000
  C   C596      1.0  0.46466  0.29357  0.13822  1.0000
  C   C597      1.0  0.26541  0.49145  0.88651  1.0000
  C   C598      1.0  0.42896  0.49405  0.40872  1.0000
  C   C599      1.0  0.47603  0.33804  0.69140  1.0000
  C   C600      1.0  0.48805  0.35755  0.18785  1.0000
  S   S90       1.0  0.31772  0.49396  0.88970  1.0000
  C   C601      1.0  0.46731  0.27338  0.29680  1.0000
  P   P19       1.0  0.26632  0.48866  0.66430  1.0000
  C   C602      1.0  0.35843  0.48550  0.25552  1.0000
  C   C603      1.0  0.47595  0.29883  0.23066  1.0000
  C   C604      1.0  0.48716  0.42417  0.26797  1.0000
  C   C605      1.0  0.27787  0.49245  0.94958  1.0000
  H   H483      1.0  0.45523  0.28558  0.16256  1.0000
  H   H484      1.0  0.46933  0.32386  0.05893  1.0000
  C   C606      1.0  0.47751  0.49497  0.89597  1.0000
  C   C607      1.0  0.48422  0.36862  0.11968  1.0000
  C   C608      1.0  0.46616  0.25285  0.14208  1.0000
  C   C609      1.0  0.48697  0.41941  0.31012  1.0000
  C   C610      1.0  0.48882  0.31499  0.07629  1.0000
  C   C611      1.0  0.47919  0.44235  0.43086  1.0000
  C   C612      1.0  0.39685  0.48849  0.65206  1.0000
  C   C613      1.0  0.28154  0.48119  0.59253  1.0000
  H   H485      1.0  0.48291  0.43438  0.25909  1.0000
  H   H486      1.0  0.46618  0.48249  0.38284  1.0000
  H   H487      1.0  0.44808  0.48876  0.06874  1.0000
  C   C614      1.0  0.46729  0.48770  0.51047  1.0000
  C   C615      1.0  0.33581  0.48711  0.94895  1.0000
  C   C616      1.0  0.35395  0.48713  0.32982  1.0000
  P   P20       1.0  0.47978  0.48803  0.46231  1.0000
  C   C617      1.0  0.27853  0.44835  0.70786  1.0000
  H   H488      1.0  0.48960  0.25103  0.36996  1.0000
  H   H489      1.0  0.28620  0.48891  0.96821  1.0000
  C   C618      1.0  0.41108  0.49690  0.23928  1.0000
  C   C619      1.0  0.47255  0.33471  0.73458  1.0000
  Fe  Fe48      1.0  0.49080  0.40239  0.97302  1.0000
  C   C620      1.0  0.49251  0.41550  0.23793  1.0000
  H   H490      1.0  0.46535  0.49521  0.12514  1.0000
  H   H491      1.0  0.43670  0.49243  0.43166  1.0000
  C   C621      1.0  0.25499  0.48477  0.58720  1.0000
  C   C622      1.0  0.49176  0.34861  0.67233  1.0000
  C   C623      1.0  0.26762  0.48450  0.61094  1.0000
  H   H492      1.0  0.49210  0.40749  0.44233  1.0000
  H   H493      1.0  0.48817  0.37840  0.09394  1.0000
  H   H494      1.0  0.48192  0.33936  0.79249  1.0000
  C   C624      1.0  0.28291  0.47834  0.55113  1.0000
  C   C625      1.0  0.37415  0.49791  0.63706  1.0000
  C   C626      1.0  0.46028  0.49301  0.70133  1.0000
  H   H495      1.0  0.49141  0.40190  0.35512  1.0000
  H   H496      1.0  0.47962  0.30902  0.20576  1.0000
  H   H497      1.0  0.47574  0.25914  0.25474  1.0000
  H   H498      1.0  0.48922  0.48533  0.13906  1.0000
  C   C627      1.0  0.32835  0.49355  0.61699  1.0000
  C   C628      1.0  0.49301  0.37009  0.15388  1.0000
  C   C629      1.0  0.48845  0.46378  0.79299  1.0000
  H   H499      1.0  0.48502  0.46949  0.81917  1.0000
  C   C630      1.0  0.44729  0.49701  0.55052  1.0000
  S   S91       1.0  0.49124  0.32747  0.33785  1.0000
  H   H500      1.0  0.40009  0.48901  0.94405  1.0000
  H   H501      1.0  0.38686  0.49560  0.74472  1.0000
  H   H502      1.0  0.36100  0.49589  0.63915  1.0000
  H   H503      1.0  0.29385  0.47600  0.53725  1.0000
  C   C631      1.0  0.25636  0.48183  0.54575  1.0000
  C   C632      1.0  0.32672  0.49716  0.93583  1.0000
  S   S92       1.0  0.38130  0.49802  0.43732  1.0000
  H   H504      1.0  0.43906  0.57496  0.62273  1.0000
  H   H505      1.0  0.47500  0.63814  0.88749  1.0000
  Fe  Fe49      1.0  0.48018  0.58823  0.13592  1.0000
  S   S93       1.0  0.45383  0.57712  0.16730  1.0000
  H   H506      1.0  0.34730  0.51205  0.57378  1.0000
  H   H507      1.0  0.41479  0.68430  0.63594  1.0000
  H   H508      1.0  0.48778  0.55269  0.80606  1.0000
  C   C633      1.0  0.24539  0.53602  0.07053  1.0000
  H   H509      1.0  0.47385  0.53239  0.32947  1.0000
  C   C634      1.0  0.42564  0.56951  0.62700  1.0000
  Fe  Fe50      1.0  0.44424  0.64793  0.86672  1.0000
  S   S94       1.0  0.46392  0.67062  0.83163  1.0000
  S   S95       1.0  0.44356  0.63720  0.93290  1.0000
  Fe  Fe51      1.0  0.42362  0.64250  0.79542  1.0000
  S   S96       1.0  0.44174  0.66493  0.75474  1.0000
  S   S97       1.0  0.40269  0.62572  0.76612  1.0000
  Fe  Fe52      1.0  0.46111  0.65537  0.77792  1.0000
  C   C635      1.0  0.34022  0.50928  0.60439  1.0000
  Fe  Fe53      1.0  0.44286  0.67843  0.81161  1.0000
  S   S98       1.0  0.43785  0.70319  0.81822  1.0000
  S   S99       1.0  0.44298  0.63228  0.81489  1.0000
  S   S100      1.0  0.42317  0.65634  0.85051  1.0000
  Fe  Fe54      1.0  0.31234  0.51497  0.85316  1.0000
  S   S101      1.0  0.33492  0.53520  0.82052  1.0000
  C   C636      1.0  0.48729  0.62831  0.93245  1.0000
  Fe  Fe55      1.0  0.28833  0.52971  0.81299  1.0000
  S   S102      1.0  0.30985  0.55110  0.77741  1.0000
  S   S103      1.0  0.26273  0.53203  0.80488  1.0000
  Fe  Fe56      1.0  0.32186  0.53191  0.76451  1.0000
  S   S104      1.0  0.33832  0.53394  0.70404  1.0000
  Fe  Fe57      1.0  0.32124  0.55259  0.83589  1.0000
  S   S105      1.0  0.33410  0.57631  0.86233  1.0000
  S   S106      1.0  0.29985  0.51039  0.79574  1.0000
  S   S107      1.0  0.29924  0.53256  0.87314  1.0000
  C   C637      1.0  0.43220  0.67084  0.63831  1.0000
  C   C638      1.0  0.37765  0.53589  0.82115  1.0000
  H   H510      1.0  0.32821  0.51911  0.01821  1.0000
  H   H511      1.0  0.30415  0.56955  0.94180  1.0000
  C   C639      1.0  0.46980  0.63844  0.51575  1.0000
  C   C640      1.0  0.38377  0.61212  0.79386  1.0000
  C   C641      1.0  0.37159  0.60289  0.77163  1.0000
  C   C642      1.0  0.35655  0.59145  0.79237  1.0000
  C   C643      1.0  0.35335  0.58961  0.83553  1.0000
  C   C644      1.0  0.36544  0.59897  0.85781  1.0000
  C   C645      1.0  0.38071  0.61007  0.83712  1.0000
  H   H512      1.0  0.37386  0.60443  0.73816  1.0000
  H   H513      1.0  0.34728  0.58434  0.77493  1.0000
  H   H514      1.0  0.36294  0.59751  0.89115  1.0000
  H   H515      1.0  0.39006  0.61711  0.85444  1.0000
  S   S108      1.0  0.39196  0.53662  0.50421  1.0000
  C   C646      1.0  0.32431  0.50894  0.96058  1.0000
  H   H516      1.0  0.46963  0.66901  0.97101  1.0000
  C   C647      1.0  0.44716  0.72544  0.80833  1.0000
  C   C648      1.0  0.46328  0.73338  0.78756  1.0000
  C   C649      1.0  0.48373  0.69156  0.92986  1.0000
  C   C650      1.0  0.29112  0.57227  0.89060  1.0000
  H   H517      1.0  0.47063  0.72597  0.77715  1.0000
  C   C651      1.0  0.40220  0.51391  0.60591  1.0000
  C   C652      1.0  0.33400  0.51817  0.67119  1.0000
  H   H518      1.0  0.42105  0.62933  0.67186  1.0000
  H   H519      1.0  0.32994  0.70543  0.98641  1.0000
  C   C653      1.0  0.34309  0.52149  0.63145  1.0000
  C   C654      1.0  0.42137  0.51211  0.35898  1.0000
  C   C655      1.0  0.27550  0.51880  0.69808  1.0000
  H   H520      1.0  0.35225  0.53362  0.62122  1.0000
  H   H521      1.0  0.45981  0.63317  0.11349  1.0000
  H   H522      1.0  0.46018  0.53785  0.02159  1.0000
  H   H523      1.0  0.27583  0.57105  0.84205  1.0000
  Fe  Fe58      1.0  0.37648  0.51141  0.49070  1.0000
  C   C656      1.0  0.39604  0.50627  0.75376  1.0000
  C   C657      1.0  0.25771  0.50264  0.89942  1.0000
  H   H524      1.0  0.31713  0.51658  0.95110  1.0000
  C   C658      1.0  0.44618  0.54073  0.49739  1.0000
  C   C659      1.0  0.43481  0.52712  0.48374  1.0000
  C   C660      1.0  0.41807  0.52565  0.48653  1.0000
  C   C661      1.0  0.41272  0.53802  0.50212  1.0000
  C   C662      1.0  0.42402  0.55154  0.51633  1.0000
  C   C663      1.0  0.44073  0.55280  0.51455  1.0000
  H   H525      1.0  0.43888  0.51779  0.47043  1.0000
  C   C664      1.0  0.41045  0.52051  0.80664  1.0000
  H   H526      1.0  0.41983  0.56112  0.52812  1.0000
  H   H527      1.0  0.44939  0.56323  0.52574  1.0000
  C   C665      1.0  0.47209  0.61955  0.63297  1.0000
  C   C666      1.0  0.48256  0.51904  0.42247  1.0000
  H   H528      1.0  0.46324  0.57529  0.68719  1.0000
  C   C667      1.0  0.47860  0.63954  0.69800  1.0000
  C   C668      1.0  0.46266  0.63389  0.68684  1.0000
  C   C669      1.0  0.45945  0.62400  0.65439  1.0000
  C   C670      1.0  0.42197  0.59319  0.91849  1.0000
  H   H529      1.0  0.45273  0.63698  0.70361  1.0000
  H   H530      1.0  0.44701  0.61953  0.64636  1.0000
  C   C671      1.0  0.44582  0.55846  0.14669  1.0000
  C   C672      1.0  0.42912  0.55246  0.14104  1.0000
  C   C673      1.0  0.42349  0.53889  0.11866  1.0000
  C   C674      1.0  0.43469  0.53165  0.10146  1.0000
  C   C675      1.0  0.45115  0.53718  0.10897  1.0000
  C   C676      1.0  0.45662  0.55037  0.13215  1.0000
  H   H531      1.0  0.42080  0.55875  0.15231  1.0000
  H   H532      1.0  0.41069  0.53443  0.11352  1.0000
  H   H533      1.0  0.45979  0.53147  0.09633  1.0000
  H   H534      1.0  0.46938  0.55459  0.13781  1.0000
  C   C677      1.0  0.44690  0.60834  0.10087  1.0000
  C   C678      1.0  0.41956  0.53402  0.77698  1.0000
  C   C679      1.0  0.47239  0.61986  0.00180  1.0000
  C   C680      1.0  0.45921  0.62438  0.98865  1.0000
  C   C681      1.0  0.46015  0.63115  0.94755  1.0000
  C   C682      1.0  0.47417  0.63297  0.91930  1.0000
  H   H535      1.0  0.40938  0.51510  0.47588  1.0000
  H   H536      1.0  0.47173  0.61492  0.03362  1.0000
  H   H537      1.0  0.44837  0.62288  0.01054  1.0000
  C   C683      1.0  0.32992  0.73069  0.97788  1.0000
  H   H538      1.0  0.43464  0.54114  0.61301  1.0000
  H   H539      1.0  0.47140  0.69753  0.68697  1.0000
  H   H540      1.0  0.45774  0.50665  0.48765  1.0000
  C   C684      1.0  0.27950  0.50980  0.66694  1.0000
  H   H541      1.0  0.45678  0.61098  0.76549  1.0000
  C   C685      1.0  0.29276  0.56466  0.92861  1.0000
  H   H542      1.0  0.46937  0.67048  0.58085  1.0000
  C   C686      1.0  0.40403  0.64289  0.66754  1.0000
  C   C687      1.0  0.44851  0.70637  0.64733  1.0000
  H   H543      1.0  0.43861  0.50904  0.28608  1.0000
  S   S109      1.0  0.35000  0.50724  0.48292  1.0000
  H   H544      1.0  0.25290  0.54922  0.00912  1.0000
  C   C688      1.0  0.48184  0.50465  0.92808  1.0000
  C   C689      1.0  0.43378  0.65517  0.64810  1.0000
  H   H545      1.0  0.47034  0.50246  0.68130  1.0000
  H   H546      1.0  0.25362  0.54587  0.87625  1.0000
  C   C690      1.0  0.46874  0.68485  0.63205  1.0000
  C   C691      1.0  0.43926  0.70338  0.68692  1.0000
  C   C692      1.0  0.25956  0.50840  0.93807  1.0000
  H   H547      1.0  0.24629  0.51042  0.65522  1.0000
  C   C693      1.0  0.45712  0.72290  0.62972  1.0000
  C   C694      1.0  0.47258  0.50148  0.86094  1.0000
  H   H548      1.0  0.28195  0.54410  0.97672  1.0000
  C   C695      1.0  0.48127  0.52999  0.38985  1.0000
  H   H549      1.0  0.42533  0.72952  0.83719  1.0000
  H   H550      1.0  0.49069  0.59779  0.39402  1.0000
  C   C696      1.0  0.48121  0.52094  0.92548  1.0000
  C   C697      1.0  0.46575  0.50756  0.02352  1.0000
  C   C698      1.0  0.47833  0.54985  0.96757  1.0000
  H   H551      1.0  0.48676  0.62478  0.51314  1.0000
  H   H552      1.0  0.48009  0.53558  0.68839  1.0000
  H   H553      1.0  0.44128  0.50181  0.68038  1.0000
  C   C699      1.0  0.24666  0.52260  0.00831  1.0000
  H   H554      1.0  0.43290  0.69081  0.70205  1.0000
  C   C700      1.0  0.49098  0.68757  0.67377  1.0000
  C   C701      1.0  0.48523  0.51495  0.08714  1.0000
  C   C702      1.0  0.45361  0.67973  0.94224  1.0000
  H   H555      1.0  0.43687  0.64367  0.09966  1.0000
  C   C703      1.0  0.43567  0.63084  0.09649  1.0000
  C   C704      1.0  0.42119  0.62014  0.08475  1.0000
  C   C705      1.0  0.41973  0.60360  0.07954  1.0000
  C   C706      1.0  0.43253  0.59764  0.08883  1.0000
  P   P21       1.0  0.40071  0.58980  0.06605  1.0000
  C   C707      1.0  0.39386  0.59917  0.02302  1.0000
  C   C708      1.0  0.40335  0.57114  0.04919  1.0000
  C   C709      1.0  0.41657  0.57239  0.01865  1.0000
  C   C710      1.0  0.41842  0.55803  0.00443  1.0000
  C   C711      1.0  0.40726  0.54234  0.02101  1.0000
  C   C712      1.0  0.39381  0.54105  0.05055  1.0000
  C   C713      1.0  0.39177  0.55537  0.06445  1.0000
  C   C714      1.0  0.37806  0.59129  0.01230  1.0000
  C   C715      1.0  0.37263  0.59834  0.97886  1.0000
  C   C716      1.0  0.38306  0.61315  0.95546  1.0000
  C   C717      1.0  0.39898  0.62076  0.96506  1.0000
  C   C718      1.0  0.40443  0.61378  0.99852  1.0000
  C   C719      1.0  0.38610  0.58479  0.11292  1.0000
  C   C720      1.0  0.38880  0.57559  0.14742  1.0000
  C   C721      1.0  0.46933  0.50671  0.35257  1.0000
  C   C722      1.0  0.36416  0.57728  0.18720  1.0000
  C   C723      1.0  0.36157  0.58674  0.15327  1.0000
  C   C724      1.0  0.37257  0.59062  0.11631  1.0000
  H   H556      1.0  0.34634  0.70774  0.91781  1.0000
  H   H557      1.0  0.43147  0.58474  0.08733  1.0000
  H   H558      1.0  0.42661  0.68083  0.56006  1.0000
  H   H559      1.0  0.41116  0.62479  0.07951  1.0000
  H   H560      1.0  0.47846  0.70878  0.55925  1.0000
  H   H561      1.0  0.42544  0.58448  0.00587  1.0000
  H   H562      1.0  0.42855  0.55905  0.98067  1.0000
  H   H563      1.0  0.40889  0.53116  0.01086  1.0000
  H   H564      1.0  0.38481  0.52890  0.06228  1.0000
  H   H565      1.0  0.38106  0.55399  0.08676  1.0000
  H   H566      1.0  0.36993  0.57970  0.02988  1.0000
  H   H567      1.0  0.36037  0.59232  0.97089  1.0000
  H   H568      1.0  0.37889  0.61868  0.92959  1.0000
  H   H569      1.0  0.40724  0.63201  0.94617  1.0000
  H   H570      1.0  0.41703  0.61969  0.00428  1.0000
  H   H571      1.0  0.39944  0.57140  0.14574  1.0000
  C   C725      1.0  0.46665  0.55398  0.24190  1.0000
  H   H572      1.0  0.42335  0.58477  0.57383  1.0000
  H   H573      1.0  0.35108  0.59116  0.15571  1.0000
  H   H574      1.0  0.37055  0.59828  0.09081  1.0000
  H   H575      1.0  0.37539  0.52371  0.83743  1.0000
  H   H576      1.0  0.39258  0.57253  0.58218  1.0000
  C   C726      1.0  0.46190  0.59349  0.72717  1.0000
  C   C727      1.0  0.45632  0.53398  0.61108  1.0000
  Fe  Fe59      1.0  0.48483  0.59682  0.55542  1.0000
  P   P22       1.0  0.42916  0.55076  0.69648  1.0000
  H   H577      1.0  0.39676  0.57824  0.94065  1.0000
  H   H578      1.0  0.49153  0.65627  0.97799  1.0000
  C   C728      1.0  0.41674  0.53387  0.73551  1.0000
  C   C729      1.0  0.43831  0.56940  0.71976  1.0000
  H   H579      1.0  0.47896  0.52881  0.61614  1.0000
  C   C730      1.0  0.34837  0.73327  0.90049  1.0000
  H   H580      1.0  0.38079  0.52067  0.59532  1.0000
  H   H581      1.0  0.45812  0.54453  0.72376  1.0000
  S   S110      1.0  0.38144  0.50188  0.12836  1.0000
  H   H582      1.0  0.42658  0.59519  0.78107  1.0000
  H   H583      1.0  0.37184  0.55310  0.72884  1.0000
  C   C731      1.0  0.38637  0.56595  0.81739  1.0000
  C   C732      1.0  0.26572  0.54354  0.93015  1.0000
  C   C733      1.0  0.44422  0.53965  0.63029  1.0000
  H   H584      1.0  0.47544  0.53978  0.88765  1.0000
  C   C734      1.0  0.46953  0.54038  0.22587  1.0000
  C   C735      1.0  0.43866  0.68849  0.54399  1.0000
  H   H585      1.0  0.32270  0.72967  0.00777  1.0000
  C   C736      1.0  0.41124  0.51570  0.92970  1.0000
  H   H586      1.0  0.44579  0.65360  0.64551  1.0000
  C   C737      1.0  0.45754  0.54165  0.69226  1.0000
  H   H587      1.0  0.31637  0.53864  0.62205  1.0000
  C   C738      1.0  0.46915  0.67924  0.95001  1.0000
  H   H588      1.0  0.41484  0.56869  0.75228  1.0000
  C   C739      1.0  0.43466  0.59032  0.76215  1.0000
  H   H589      1.0  0.46776  0.52253  0.83127  1.0000
  C   C740      1.0  0.39945  0.56837  0.60415  1.0000
  H   H590      1.0  0.44243  0.66997  0.95718  1.0000
  C   C741      1.0  0.45524  0.57882  0.70965  1.0000
  H   H591      1.0  0.39012  0.65963  0.66213  1.0000
  C   C742      1.0  0.45249  0.69243  0.91421  1.0000
  C   C743      1.0  0.46949  0.70825  0.50043  1.0000
  H   H592      1.0  0.47924  0.54248  0.19997  1.0000
  S   S111      1.0  0.48817  0.58022  0.07597  1.0000
  H   H593      1.0  0.42989  0.68800  0.48465  1.0000
  C   C744      1.0  0.46989  0.53642  0.67251  1.0000
  H   H594      1.0  0.35546  0.73393  0.87071  1.0000
  H   H595      1.0  0.49195  0.62418  0.42830  1.0000
  C   C745      1.0  0.48112  0.52052  0.01583  1.0000
  C   C746      1.0  0.28015  0.55029  0.94827  1.0000
  C   C747      1.0  0.48246  0.70418  0.90126  1.0000
  H   H596      1.0  0.45955  0.62796  0.53210  1.0000
  H   H597      1.0  0.30119  0.58302  0.87464  1.0000
  H   H598      1.0  0.42881  0.54451  0.78645  1.0000
  H   H599      1.0  0.42101  0.50367  0.62037  1.0000
  P   P23       1.0  0.38922  0.54958  0.89203  1.0000
  C   C748      1.0  0.40761  0.56736  0.89249  1.0000
  C   C749      1.0  0.37249  0.55055  0.92881  1.0000
  C   C750      1.0  0.37136  0.54442  0.97052  1.0000
  C   C751      1.0  0.35911  0.54583  0.00007  1.0000
  C   C752      1.0  0.34760  0.55300  0.98806  1.0000
  C   C753      1.0  0.34843  0.55885  0.94653  1.0000
  C   C754      1.0  0.36089  0.55776  0.91688  1.0000
  C   C755      1.0  0.42192  0.56959  0.86450  1.0000
  C   C756      1.0  0.43625  0.58330  0.86432  1.0000
  C   C757      1.0  0.43625  0.59513  0.89124  1.0000
  C   C758      1.0  0.40769  0.57936  0.91934  1.0000
  C   C759      1.0  0.39303  0.53045  0.90761  1.0000
  C   C760      1.0  0.40867  0.53061  0.91698  1.0000
  H   H600      1.0  0.46462  0.72563  0.59973  1.0000
  H   H601      1.0  0.39325  0.63218  0.68026  1.0000
  C   C761      1.0  0.28578  0.53502  0.70050  1.0000
  C   C762      1.0  0.37984  0.51523  0.91347  1.0000
  H   H602      1.0  0.39099  0.57740  0.83109  1.0000
  H   H603      1.0  0.37973  0.53824  0.98014  1.0000
  H   H604      1.0  0.35810  0.54065  0.03202  1.0000
  H   H605      1.0  0.33776  0.55359  0.01074  1.0000
  H   H606      1.0  0.33926  0.56407  0.93733  1.0000
  H   H607      1.0  0.36127  0.56240  0.88486  1.0000
  H   H608      1.0  0.42193  0.56071  0.84283  1.0000
  H   H609      1.0  0.44729  0.58499  0.84282  1.0000
  H   H610      1.0  0.44721  0.60598  0.89057  1.0000
  H   H611      1.0  0.41884  0.54214  0.91557  1.0000
  S   S112      1.0  0.34885  0.50393  0.05779  1.0000
  S   S113      1.0  0.49277  0.61552  0.11466  1.0000
  C   C763      1.0  0.46775  0.70418  0.54333  1.0000
  H   H612      1.0  0.36737  0.51488  0.90937  1.0000
  H   H613      1.0  0.45721  0.70555  0.44602  1.0000
  H   H614      1.0  0.44045  0.69261  0.90751  1.0000
  H   H615      1.0  0.48142  0.71597  0.48359  1.0000
  C   C764      1.0  0.34027  0.50083  0.01099  1.0000
  H   H616      1.0  0.29825  0.51041  0.61629  1.0000
  C   C765      1.0  0.27685  0.56557  0.87230  1.0000
  P   P24       1.0  0.42606  0.53227  0.32943  1.0000
  C   C766      1.0  0.40869  0.53328  0.30370  1.0000
  C   C767      1.0  0.43133  0.54789  0.36458  1.0000
  C   C768      1.0  0.41922  0.55361  0.38408  1.0000
  C   C769      1.0  0.42337  0.56525  0.41217  1.0000
  C   C770      1.0  0.43962  0.57127  0.42113  1.0000
  C   C771      1.0  0.45171  0.56553  0.40238  1.0000
  C   C772      1.0  0.44761  0.55392  0.37421  1.0000
  C   C773      1.0  0.41090  0.53839  0.26081  1.0000
  C   C774      1.0  0.39725  0.53804  0.24067  1.0000
  C   C775      1.0  0.38138  0.53305  0.26319  1.0000
  C   C776      1.0  0.37915  0.52846  0.30587  1.0000
  C   C777      1.0  0.39264  0.52823  0.32595  1.0000
  C   C778      1.0  0.44360  0.53531  0.29053  1.0000
  C   C779      1.0  0.44655  0.52164  0.27450  1.0000
  C   C780      1.0  0.45947  0.52419  0.24216  1.0000
  H   H617      1.0  0.49344  0.71350  0.88406  1.0000
  C   C781      1.0  0.45639  0.73617  0.65131  1.0000
  C   C782      1.0  0.45367  0.55150  0.27374  1.0000
  C   C783      1.0  0.40231  0.65839  0.65756  1.0000
  C   C784      1.0  0.44857  0.62495  0.10434  1.0000
  C   C785      1.0  0.41727  0.55708  0.66010  1.0000
  H   H618      1.0  0.44176  0.52027  0.39451  1.0000
  C   C786      1.0  0.47544  0.67553  0.60648  1.0000
  H   H619      1.0  0.40648  0.54899  0.37858  1.0000
  H   H620      1.0  0.41382  0.56916  0.42806  1.0000
  H   H621      1.0  0.44269  0.57996  0.44371  1.0000
  C   C787      1.0  0.41632  0.67232  0.64295  1.0000
  H   H622      1.0  0.45711  0.54946  0.36058  1.0000
  H   H623      1.0  0.42303  0.54235  0.24242  1.0000
  H   H624      1.0  0.39894  0.54145  0.20750  1.0000
  H   H625      1.0  0.37073  0.53250  0.24762  1.0000
  H   H626      1.0  0.36683  0.52461  0.32334  1.0000
  H   H627      1.0  0.39042  0.52381  0.35875  1.0000
  S   S114      1.0  0.48294  0.65189  0.73894  1.0000
  H   H628      1.0  0.34013  0.50450  0.76326  1.0000
  H   H629      1.0  0.43112  0.71422  0.73847  1.0000
  H   H630      1.0  0.42318  0.51589  0.93792  1.0000
  H   H631      1.0  0.45117  0.56226  0.28421  1.0000
  H   H632      1.0  0.47491  0.60087  0.71893  1.0000
  C   C788      1.0  0.46553  0.54880  0.99915  1.0000
  C   C789      1.0  0.45991  0.56227  0.00333  1.0000
  C   C790      1.0  0.46668  0.57677  0.97530  1.0000
  H   H633      1.0  0.48486  0.58941  0.92257  1.0000
  P   P25       1.0  0.45028  0.68910  0.62098  1.0000
  C   C791      1.0  0.48093  0.66731  0.48582  1.0000
  H   H634      1.0  0.47398  0.56655  0.22849  1.0000
  C   C792      1.0  0.46925  0.53254  0.63193  1.0000
  C   C793      1.0  0.43833  0.71666  0.70800  1.0000
  H   H635      1.0  0.45063  0.56156  0.02919  1.0000
  H   H636      1.0  0.46253  0.58731  0.97906  1.0000
  C   C794      1.0  0.45587  0.70240  0.47928  1.0000
  C   C795      1.0  0.30473  0.53325  0.64259  1.0000
  S   S115      1.0  0.47964  0.59128  0.49129  1.0000
  H   H637      1.0  0.46414  0.56972  0.41063  1.0000
  H   H638      1.0  0.30869  0.55457  0.67584  1.0000
  H   H639      1.0  0.26452  0.51335  0.72087  1.0000
  C   C796      1.0  0.33398  0.71704  0.96584  1.0000
  H   H640      1.0  0.45605  0.53134  0.57932  1.0000
  H   H641      1.0  0.39290  0.54181  0.69183  1.0000
  H   H642      1.0  0.37755  0.55130  0.64189  1.0000
  C   C797      1.0  0.43782  0.73545  0.82121  1.0000
  C   C798      1.0  0.37570  0.55236  0.75924  1.0000
  C   C799      1.0  0.39100  0.55628  0.63756  1.0000
  H   H643      1.0  0.46131  0.51366  0.22880  1.0000
  H   H644      1.0  0.36812  0.52566  0.76718  1.0000
  C   C800      1.0  0.39984  0.55077  0.66570  1.0000
  S   S116      1.0  0.46716  0.54262  0.49222  1.0000
  H   H645      1.0  0.28248  0.54193  0.72426  1.0000
  C   C801      1.0  0.42804  0.57537  0.74571  1.0000
  C   C802      1.0  0.34321  0.71833  0.92719  1.0000
  C   C803      1.0  0.37355  0.53689  0.78099  1.0000
  C   C804      1.0  0.40527  0.51967  0.72399  1.0000
  H   H646      1.0  0.41066  0.52437  0.58492  1.0000
  Fe  Fe60      1.0  0.48249  0.56686  0.51055  1.0000
  H   H647      1.0  0.46596  0.71428  0.87138  1.0000
  C   C805      1.0  0.33070  0.51044  0.99846  1.0000
  C   C806      1.0  0.30045  0.54220  0.67300  1.0000
  C   C807      1.0  0.41676  0.57517  0.59929  1.0000
  H   H648      1.0  0.45567  0.65511  0.51496  1.0000
  C   C808      1.0  0.44482  0.54366  0.67095  1.0000
  H   H649      1.0  0.38415  0.57883  0.76004  1.0000
  H   H650      1.0  0.27258  0.50865  0.99141  1.0000
  C   C809      1.0  0.38414  0.55043  0.83975  1.0000
  H   H651      1.0  0.44663  0.74328  0.70762  1.0000
  H   H652      1.0  0.31493  0.49983  0.71435  1.0000
  C   C810      1.0  0.47480  0.52386  0.35474  1.0000
  C   C811      1.0  0.45163  0.59925  0.75333  1.0000
  H   H653      1.0  0.42199  0.60258  0.93868  1.0000
  H   H654      1.0  0.41255  0.52072  0.83860  1.0000
  S   S117      1.0  0.46716  0.60662  0.59340  1.0000
  C   C812      1.0  0.38233  0.56686  0.77719  1.0000
  C   C813      1.0  0.38533  0.51187  0.61193  1.0000
  C   C814      1.0  0.26421  0.55126  0.89194  1.0000
  C   C815      1.0  0.37783  0.57180  0.18434  1.0000
  C   C816      1.0  0.44047  0.69252  0.50105  1.0000
  S   S118      1.0  0.42872  0.51620  0.06905  1.0000
  H   H655      1.0  0.40328  0.51909  0.69202  1.0000
  C   C817      1.0  0.47654  0.69074  0.66600  1.0000
  C   C818      1.0  0.45232  0.69424  0.56550  1.0000
  H   H656      1.0  0.47929  0.67921  0.47860  1.0000
  H   H657      1.0  0.37998  0.56469  0.21084  1.0000
  C   C819      1.0  0.29435  0.51711  0.63956  1.0000
  C   C820      1.0  0.47920  0.57786  0.94322  1.0000
  H   H658      1.0  0.35564  0.57430  0.21584  1.0000
  C   C821      1.0  0.46691  0.70465  0.89377  1.0000
  H   H659      1.0  0.45678  0.60372  0.10754  1.0000
  C   C822      1.0  0.48981  0.67229  0.61454  1.0000
  C   C823      1.0  0.40797  0.50220  0.62582  1.0000
  S   S119      1.0  0.48539  0.57142  0.57588  1.0000
  C   C824      1.0  0.49079  0.52415  0.04794  1.0000
  C   C825      1.0  0.47611  0.52733  0.89032  1.0000
  C   C826      1.0  0.41975  0.64128  0.66275  1.0000
  C   C827      1.0  0.46763  0.65376  0.50623  1.0000
  C   C828      1.0  0.47179  0.51760  0.85822  1.0000
  C   C829      1.0  0.48521  0.63661  0.50466  1.0000
  C   C830      1.0  0.48502  0.56447  0.93929  1.0000
  H   H660      1.0  0.45769  0.50499  0.99984  1.0000
  C   C831      1.0  0.48808  0.62523  0.64396  1.0000
  C   C832      1.0  0.38252  0.50035  0.92558  1.0000
  C   C833      1.0  0.39856  0.50673  0.79516  1.0000
  C   C834      1.0  0.48660  0.62209  0.97393  1.0000
  C   C835      1.0  0.24877  0.53710  0.02744  1.0000
  P   P26       1.0  0.48749  0.53353  0.96654  1.0000
  H   H661      1.0  0.35924  0.49935  0.70952  1.0000
  C   C836      1.0  0.33509  0.74565  0.95130  1.0000
  C   C837      1.0  0.27010  0.50359  0.96263  1.0000
  P   P27       1.0  0.25057  0.52383  0.95278  1.0000
  C   C838      1.0  0.43167  0.50985  0.38784  1.0000
  C   C839      1.0  0.34437  0.74707  0.91235  1.0000
  C   C840      1.0  0.44700  0.73304  0.69046  1.0000
  C   C841      1.0  0.49132  0.63523  0.67633  1.0000
  C   C842      1.0  0.46993  0.50205  0.09456  1.0000
  H   H662      1.0  0.34503  0.50021  0.28358  1.0000
  H   H663      1.0  0.42000  0.51627  0.18774  1.0000
  C   C843      1.0  0.47708  0.50179  0.42065  1.0000
  H   H664      1.0  0.48757  0.57271  0.74686  1.0000
  H   H665      1.0  0.49265  0.51831  0.11184  1.0000
  H   H666      1.0  0.24710  0.54725  0.08518  1.0000
  H   H667      1.0  0.48522  0.54325  0.39217  1.0000
  H   H668      1.0  0.25053  0.50704  0.87898  1.0000
  H   H669      1.0  0.48769  0.52403  0.44942  1.0000
  C   C844      1.0  0.39823  0.50056  0.93334  1.0000
  C   C845      1.0  0.32200  0.50248  0.68380  1.0000
  H   H670      1.0  0.43949  0.50472  0.55215  1.0000
  H   H671      1.0  0.49260  0.64324  0.04724  1.0000
  H   H672      1.0  0.40292  0.50261  0.25468  1.0000
  Fe  Fe61      1.0  0.40257  0.49920  0.08675  1.0000
  C   C846      1.0  0.42052  0.50448  0.20119  1.0000
  H   H673      1.0  0.43699  0.50224  0.14962  1.0000
  H   H674      1.0  0.46399  0.50194  0.32573  1.0000
  H   H675      1.0  0.40002  0.49952  0.32957  1.0000
  C   C847      1.0  0.46022  0.49833  0.06271  1.0000
  C   C848      1.0  0.40832  0.49828  0.35129  1.0000
  H   H676      1.0  0.48573  0.49944  0.95494  1.0000
  Fe  Fe62      1.0  0.46240  0.80622  0.79674  1.0000
  S   S120      1.0  0.45249  0.81123  0.85903  1.0000
  Fe  Fe63      1.0  0.46364  0.84059  0.75461  1.0000
  S   S121      1.0  0.45377  0.84774  0.81408  1.0000
  S   S122      1.0  0.46454  0.85733  0.69531  1.0000
  Fe  Fe64      1.0  0.47103  0.83727  0.84439  1.0000
  H   H677      1.0  0.25280  0.89623  0.43334  1.0000
  Fe  Fe65      1.0  0.43595  0.82155  0.82453  1.0000
  S   S123      1.0  0.40999  0.81861  0.85390  1.0000
  S   S124      1.0  0.48241  0.83181  0.78397  1.0000
  S   S125      1.0  0.44439  0.81479  0.76330  1.0000
  Fe  Fe66      1.0  0.29410  0.80605  0.82085  1.0000
  S   S126      1.0  0.30526  0.81451  0.75397  1.0000
  Fe  Fe67      1.0  0.32004  0.83676  0.85061  1.0000
  S   S127      1.0  0.33224  0.84702  0.78530  1.0000
  S   S128      1.0  0.33618  0.85100  0.89602  1.0000
  Fe  Fe68      1.0  0.30665  0.84024  0.76815  1.0000
  S   S129      1.0  0.29761  0.85795  0.72937  1.0000
  Fe  Fe69      1.0  0.33011  0.82078  0.77711  1.0000
  S   S130      1.0  0.35257  0.81621  0.74501  1.0000
  S   S131      1.0  0.29412  0.83171  0.83428  1.0000
  S   S132      1.0  0.31916  0.81056  0.84284  1.0000
  C   C849      1.0  0.25272  0.76798  0.78656  1.0000
  C   C850      1.0  0.40776  0.98227  0.08297  1.0000
  H   H678      1.0  0.34255  0.92270  0.99549  1.0000
  H   H679      1.0  0.34472  0.93757  0.63783  1.0000
  S   S133      1.0  0.47043  0.96046  0.08507  1.0000
  C   C851      1.0  0.36911  0.76783  0.84273  1.0000
  H   H680      1.0  0.34453  0.90709  0.86974  1.0000
  C   C852      1.0  0.42715  0.97422  0.19207  1.0000
  H   H681      1.0  0.34988  0.78241  0.79572  1.0000
  C   C853      1.0  0.40483  0.88496  0.38235  1.0000
  C   C854      1.0  0.35987  0.94309  0.95362  1.0000
  H   H682      1.0  0.46305  0.81907  0.51635  1.0000
  H   H683      1.0  0.40175  0.95628  0.69027  1.0000
  S   S134      1.0  0.46154  0.91612  0.43941  1.0000
  C   C855      1.0  0.48844  0.95040  0.29157  1.0000
  Fe  Fe70      1.0  0.34869  0.90775  0.07617  1.0000
  S   S135      1.0  0.35579  0.89848  0.13568  1.0000
  S   S136      1.0  0.32726  0.89166  0.04618  1.0000
  Fe  Fe71      1.0  0.37438  0.94260  0.07272  1.0000
  S   S137      1.0  0.38373  0.93615  0.13077  1.0000
  S   S138      1.0  0.38390  0.96780  0.03403  1.0000
  Fe  Fe72      1.0  0.38184  0.91220  0.10500  1.0000
  S   S139      1.0  0.40214  0.90133  0.10895  1.0000
  Fe  Fe73      1.0  0.35708  0.92317  0.15691  1.0000
  S   S140      1.0  0.34804  0.92841  0.22046  1.0000
  S   S141      1.0  0.37484  0.91968  0.04417  1.0000
  S   S142      1.0  0.34757  0.93140  0.10017  1.0000
  Fe  Fe74      1.0  0.38518  0.92522  0.52841  1.0000
  S   S143      1.0  0.36570  0.93494  0.55527  1.0000
  S   S144      1.0  0.40499  0.92341  0.56557  1.0000
  Fe  Fe75      1.0  0.37355  0.92316  0.44330  1.0000
  S   S145      1.0  0.35300  0.93283  0.46331  1.0000
  S   S146      1.0  0.37996  0.91504  0.38114  1.0000
  Fe  Fe76      1.0  0.37184  0.95115  0.49425  1.0000
  Fe  Fe77      1.0  0.34884  0.91563  0.52273  1.0000
  S   S147      1.0  0.32290  0.89917  0.55001  1.0000
  S   S148      1.0  0.39274  0.94277  0.46976  1.0000
  S   S149      1.0  0.36798  0.90458  0.50037  1.0000
  C   C856      1.0  0.35727  0.92479  0.26457  1.0000
  C   C857      1.0  0.35549  0.93311  0.29907  1.0000
  C   C858      1.0  0.36211  0.93004  0.33529  1.0000
  C   C859      1.0  0.37051  0.91853  0.33733  1.0000
  C   C860      1.0  0.37206  0.91002  0.30303  1.0000
  C   C861      1.0  0.36549  0.91313  0.26679  1.0000
  H   H684      1.0  0.34903  0.94204  0.29767  1.0000
  H   H685      1.0  0.36087  0.93671  0.36141  1.0000
  H   H686      1.0  0.37853  0.90110  0.30423  1.0000
  H   H687      1.0  0.36678  0.90651  0.24059  1.0000
  C   C862      1.0  0.44600  0.91904  0.47337  1.0000
  C   C863      1.0  0.42944  0.91186  0.46763  1.0000
  C   C864      1.0  0.41679  0.91338  0.49580  1.0000
  C   C865      1.0  0.42072  0.92167  0.53032  1.0000
  C   C866      1.0  0.43726  0.92895  0.53598  1.0000
  C   C867      1.0  0.44993  0.92806  0.50678  1.0000
  H   H688      1.0  0.42643  0.90526  0.44125  1.0000
  H   H689      1.0  0.40400  0.90792  0.49107  1.0000
  H   H690      1.0  0.44025  0.93548  0.56248  1.0000
  H   H691      1.0  0.46268  0.93411  0.51052  1.0000
  C   C868      1.0  0.45128  0.94417  0.09309  1.0000
  C   C869      1.0  0.43741  0.94663  0.07845  1.0000
  C   C870      1.0  0.42229  0.93347  0.08331  1.0000
  C   C871      1.0  0.42104  0.91775  0.10234  1.0000
  C   C872      1.0  0.43482  0.91533  0.11730  1.0000
  C   C873      1.0  0.44976  0.92865  0.11377  1.0000
  H   H692      1.0  0.43825  0.95866  0.06354  1.0000
  H   H693      1.0  0.41168  0.93542  0.07158  1.0000
  H   H694      1.0  0.43382  0.90327  0.13265  1.0000
  H   H695      1.0  0.45997  0.92693  0.12778  1.0000
  H   H696      1.0  0.32590  0.93969  0.80292  1.0000
  C   C874      1.0  0.38476  0.85649  0.95963  1.0000
  H   H697      1.0  0.42886  0.94930  0.98496  1.0000
  H   H698      1.0  0.41670  0.90044  0.97922  1.0000
  C   C875      1.0  0.45816  0.88041  0.52172  1.0000
  C   C876      1.0  0.30595  0.86832  0.67870  1.0000
  C   C877      1.0  0.29469  0.87024  0.65249  1.0000
  C   C878      1.0  0.30024  0.87939  0.61316  1.0000
  C   C879      1.0  0.31719  0.88729  0.59963  1.0000
  C   C880      1.0  0.32867  0.88564  0.62581  1.0000
  C   C881      1.0  0.32305  0.87599  0.66526  1.0000
  H   H699      1.0  0.28150  0.86462  0.66273  1.0000
  H   H700      1.0  0.29128  0.88062  0.59338  1.0000
  H   H701      1.0  0.34178  0.89185  0.61574  1.0000
  H   H702      1.0  0.33185  0.87488  0.68566  1.0000
  C   C882      1.0  0.32971  0.88155  0.00191  1.0000
  C   C883      1.0  0.31568  0.87016  0.98943  1.0000
  C   C884      1.0  0.31726  0.86119  0.95586  1.0000
  C   C885      1.0  0.33295  0.86357  0.93440  1.0000
  C   C886      1.0  0.34686  0.87560  0.94552  1.0000
  C   C887      1.0  0.34529  0.88448  0.97920  1.0000
  H   H703      1.0  0.30355  0.86791  0.00661  1.0000
  H   H704      1.0  0.30644  0.85200  0.94764  1.0000
  H   H705      1.0  0.35903  0.87771  0.92881  1.0000
  H   H706      1.0  0.35618  0.89330  0.98815  1.0000
  C   C888      1.0  0.48051  0.87194  0.65915  1.0000
  C   C889      1.0  0.47590  0.88007  0.62573  1.0000
  C   C890      1.0  0.33725  0.77582  0.81015  1.0000
  C   C891      1.0  0.36480  0.78328  0.94191  1.0000
  C   C892      1.0  0.39981  0.98438  0.04880  1.0000
  C   C893      1.0  0.44141  0.95718  0.41792  1.0000
  H   H707      1.0  0.46290  0.87727  0.62289  1.0000
  C   C894      1.0  0.47612  0.96846  0.96248  1.0000
  H   H708      1.0  0.40450  0.97015  0.10061  1.0000
  C   C895      1.0  0.47027  0.89280  0.76309  1.0000
  H   H709      1.0  0.36687  0.98416  0.13735  1.0000
  H   H710      1.0  0.45543  0.91981  0.75970  1.0000
  C   C896      1.0  0.44399  0.80281  0.48754  1.0000
  H   H711      1.0  0.31440  0.75265  0.89938  1.0000
  C   C897      1.0  0.48438  0.89458  0.91837  1.0000
  C   C898      1.0  0.48133  0.87932  0.90174  1.0000
  C   C899      1.0  0.45872  0.96797  0.90866  1.0000
  H   H712      1.0  0.47765  0.89732  0.37043  1.0000
  H   H713      1.0  0.47948  0.90377  0.90548  1.0000
  H   H714      1.0  0.47426  0.87685  0.87619  1.0000
  C   C900      1.0  0.39442  0.81835  0.82268  1.0000
  C   C901      1.0  0.39477  0.81280  0.78378  1.0000
  C   C902      1.0  0.38178  0.81203  0.76041  1.0000
  C   C903      1.0  0.36854  0.81710  0.77539  1.0000
  C   C904      1.0  0.36817  0.82264  0.81436  1.0000
  C   C905      1.0  0.38107  0.82321  0.83795  1.0000
  H   H715      1.0  0.40484  0.80871  0.77213  1.0000
  H   H716      1.0  0.38189  0.80733  0.73080  1.0000
  H   H717      1.0  0.35798  0.82653  0.82629  1.0000
  H   H718      1.0  0.38070  0.82745  0.86812  1.0000
  H   H719      1.0  0.46265  0.92989  0.93152  1.0000
  H   H720      1.0  0.43478  0.92320  0.01174  1.0000
  C   C906      1.0  0.41497  0.83740  0.00248  1.0000
  C   C907      1.0  0.37809  0.92076  0.65700  1.0000
  C   C908      1.0  0.39732  0.76857  0.78965  1.0000
  H   H721      1.0  0.27867  0.85340  0.27413  1.0000
  H   H722      1.0  0.35182  0.90900  0.67437  1.0000
  C   C909      1.0  0.44872  0.88902  0.54057  1.0000
  C   C910      1.0  0.42228  0.84057  0.71387  1.0000
  C   C911      1.0  0.41599  0.85363  0.71604  1.0000
  C   C912      1.0  0.40349  0.85459  0.69272  1.0000
  C   C913      1.0  0.39740  0.84223  0.66707  1.0000
  P   P28       1.0  0.39707  0.87271  0.69207  1.0000
  C   C914      1.0  0.38632  0.87414  0.74139  1.0000
  C   C915      1.0  0.41540  0.89094  0.67624  1.0000
  C   C916      1.0  0.41548  0.90676  0.68503  1.0000
  C   C917      1.0  0.42935  0.92089  0.67076  1.0000
  C   C918      1.0  0.44325  0.91938  0.64748  1.0000
  C   C919      1.0  0.44343  0.90370  0.63926  1.0000
  C   C920      1.0  0.42957  0.88954  0.65328  1.0000
  C   C921      1.0  0.37690  0.88483  0.74328  1.0000
  C   C922      1.0  0.36849  0.88615  0.78098  1.0000
  C   C923      1.0  0.36922  0.87667  0.81710  1.0000
  C   C924      1.0  0.37817  0.86566  0.81541  1.0000
  C   C925      1.0  0.38660  0.86429  0.77765  1.0000
  C   C926      1.0  0.38263  0.87149  0.65538  1.0000
  C   C927      1.0  0.36614  0.86074  0.66570  1.0000
  C   C928      1.0  0.35490  0.85959  0.63725  1.0000
  C   C929      1.0  0.36007  0.86906  0.59830  1.0000
  C   C930      1.0  0.37651  0.87965  0.58783  1.0000
  C   C931      1.0  0.38773  0.88093  0.61626  1.0000
  H   H723      1.0  0.42113  0.86313  0.73536  1.0000
  H   H724      1.0  0.38767  0.84248  0.64892  1.0000
  H   H725      1.0  0.40475  0.90831  0.70208  1.0000
  H   H726      1.0  0.42917  0.93306  0.67698  1.0000
  H   H727      1.0  0.45378  0.93036  0.63516  1.0000
  H   H728      1.0  0.45425  0.90253  0.62140  1.0000
  H   H729      1.0  0.42991  0.87759  0.64538  1.0000
  H   H730      1.0  0.37577  0.89191  0.71544  1.0000
  H   H731      1.0  0.36103  0.89419  0.78200  1.0000
  H   H732      1.0  0.36239  0.87743  0.84619  1.0000
  H   H733      1.0  0.37812  0.85781  0.84322  1.0000
  H   H734      1.0  0.39285  0.85518  0.77693  1.0000
  H   H735      1.0  0.36198  0.85313  0.69563  1.0000
  H   H736      1.0  0.34214  0.85139  0.64553  1.0000
  H   H737      1.0  0.35128  0.86830  0.57644  1.0000
  H   H738      1.0  0.38063  0.88701  0.55779  1.0000
  H   H739      1.0  0.40030  0.88940  0.60759  1.0000
  C   C932      1.0  0.40314  0.93757  0.23412  1.0000
  C   C933      1.0  0.40727  0.93884  0.27416  1.0000
  H   H740      1.0  0.40734  0.92820  0.17639  1.0000
  H   H741      1.0  0.39410  0.94282  0.22388  1.0000
  H   H742      1.0  0.40118  0.94484  0.29519  1.0000
  C   C934      1.0  0.31291  0.91546  0.36076  1.0000
  C   C935      1.0  0.32165  0.92472  0.38958  1.0000
  C   C936      1.0  0.32673  0.94213  0.38396  1.0000
  C   C937      1.0  0.32307  0.95043  0.34962  1.0000
  C   C938      1.0  0.31419  0.94131  0.32103  1.0000
  C   C939      1.0  0.30901  0.92390  0.32670  1.0000
  H   H743      1.0  0.32460  0.91856  0.41641  1.0000
  H   H744      1.0  0.33361  0.94918  0.40617  1.0000
  H   H745      1.0  0.32716  0.96391  0.34507  1.0000
  H   H746      1.0  0.31145  0.94772  0.29419  1.0000
  H   H747      1.0  0.32598  0.90366  0.28699  1.0000
  H   H748      1.0  0.32323  0.89298  0.21967  1.0000
  H   H749      1.0  0.33198  0.87951  0.48871  1.0000
  H   H750      1.0  0.31119  0.88808  0.45566  1.0000
  C   C940      1.0  0.41938  0.86482  0.83534  1.0000
  C   C941      1.0  0.42422  0.88140  0.81760  1.0000
  C   C942      1.0  0.42753  0.89416  0.84284  1.0000
  C   C943      1.0  0.42614  0.89035  0.88580  1.0000
  C   C944      1.0  0.42140  0.87370  0.90383  1.0000
  C   C945      1.0  0.41778  0.86098  0.87824  1.0000
  C   C946      1.0  0.36463  0.85790  0.01560  1.0000
  C   C947      1.0  0.37748  0.86566  0.03757  1.0000
  C   C948      1.0  0.39397  0.86871  0.02083  1.0000
  H   H751      1.0  0.41678  0.85479  0.81611  1.0000
  H   H752      1.0  0.42527  0.88433  0.78438  1.0000
  H   H753      1.0  0.43107  0.90700  0.82914  1.0000
  H   H754      1.0  0.42874  0.90040  0.90471  1.0000
  H   H755      1.0  0.41375  0.84803  0.89142  1.0000
  H   H756      1.0  0.35184  0.85571  0.02836  1.0000
  H   H757      1.0  0.37469  0.86942  0.06757  1.0000
  H   H758      1.0  0.40365  0.87442  0.03899  1.0000
  C   C949      1.0  0.41845  0.98093  0.56145  1.0000
  H   H759      1.0  0.48810  0.84718  0.43165  1.0000
  C   C950      1.0  0.40987  0.94222  0.94526  1.0000
  C   C951      1.0  0.45794  0.98052  0.22020  1.0000
  H   H760      1.0  0.32164  0.91578  0.94753  1.0000
  H   H761      1.0  0.38696  0.78310  0.87793  1.0000
  C   C952      1.0  0.33316  0.92608  0.93819  1.0000
  C   C953      1.0  0.47133  0.87815  0.42233  1.0000
  H   H762      1.0  0.32685  0.93271  0.87893  1.0000
  C   C954      1.0  0.29816  0.91353  0.67627  1.0000
  C   C955      1.0  0.39991  0.96893  0.82322  1.0000
  C   C956      1.0  0.46416  0.93215  0.76046  1.0000
  H   H763      1.0  0.40946  0.98737  0.94577  1.0000
  C   C957      1.0  0.30938  0.91713  0.70497  1.0000
  H   H764      1.0  0.46194  0.96352  0.17826  1.0000
  H   H765      1.0  0.45244  0.97388  0.88882  1.0000
  H   H766      1.0  0.43787  0.96180  0.63302  1.0000
  C   C958      1.0  0.26619  0.86326  0.45084  1.0000
  H   H767      1.0  0.27953  0.90703  0.38743  1.0000
  C   C959      1.0  0.27600  0.89482  0.40503  1.0000
  H   H768      1.0  0.26028  0.77883  0.76545  1.0000
  C   C960      1.0  0.32230  0.88491  0.80130  1.0000
  H   H769      1.0  0.41140  0.78358  0.83165  1.0000
  H   H770      1.0  0.25300  0.77657  0.93315  1.0000
  C   C961      1.0  0.35116  0.94880  0.88760  1.0000
  H   H771      1.0  0.41415  0.96978  0.76426  1.0000
  C   C962      1.0  0.46056  0.76102  0.79300  1.0000
  C   C963      1.0  0.38146  0.76004  0.78071  1.0000
  C   C964      1.0  0.48511  0.97462  0.59666  1.0000
  C   C965      1.0  0.30374  0.91853  0.63406  1.0000
  H   H772      1.0  0.42562  0.99453  0.12182  1.0000
  C   C966      1.0  0.34498  0.92990  0.96523  1.0000
  H   H773      1.0  0.46824  0.90603  0.23882  1.0000
  C   C967      1.0  0.44234  0.96998  0.44247  1.0000
  H   H774      1.0  0.34703  0.81917  0.92242  1.0000
  H   H775      1.0  0.42127  0.98607  0.62402  1.0000
  C   C968      1.0  0.38356  0.98908  0.52952  1.0000
  C   C969      1.0  0.31740  0.75923  0.86843  1.0000
  C   C970      1.0  0.24627  0.75171  0.85368  1.0000
  C   C971      1.0  0.37610  0.98666  0.15833  1.0000
  H   H776      1.0  0.36157  0.97478  0.97173  1.0000
  H   H777      1.0  0.41123  0.96103  0.37651  1.0000
  Fe  Fe78      1.0  0.48663  0.92697  0.45868  1.0000
  H   H778      1.0  0.43692  0.94435  0.43210  1.0000
  C   C972      1.0  0.43837  0.91246  0.00645  1.0000
  C   C973      1.0  0.33259  0.88049  0.45531  1.0000
  C   C974      1.0  0.32074  0.88528  0.43634  1.0000
  C   C975      1.0  0.39776  0.86447  0.98128  1.0000
  C   C976      1.0  0.36827  0.85319  0.97686  1.0000
  H   H779      1.0  0.43705  0.76047  0.82401  1.0000
  H   H780      1.0  0.41539  0.97155  0.18036  1.0000
  C   C977      1.0  0.46944  0.89735  0.72159  1.0000
  H   H781      1.0  0.40851  0.86909  0.43236  1.0000
  C   C978      1.0  0.41040  0.92918  0.20751  1.0000
  H   H782      1.0  0.37471  0.95352  0.72931  1.0000
  H   H783      1.0  0.43172  0.83985  0.73252  1.0000
  H   H784      1.0  0.30205  0.91710  0.30432  1.0000
  C   C979      1.0  0.38008  0.98359  0.82219  1.0000
  C   C980      1.0  0.38270  0.98912  0.60403  1.0000
  C   C981      1.0  0.40455  0.97351  0.78045  1.0000
  S   S150      1.0  0.46964  0.78326  0.78189  1.0000
  C   C982      1.0  0.47744  0.85229  0.52679  1.0000
  H   H785      1.0  0.46918  0.93779  0.69429  1.0000
  C   C983      1.0  0.31561  0.89270  0.28457  1.0000
  C   C984      1.0  0.31408  0.88661  0.24637  1.0000
  H   H786      1.0  0.35826  0.84720  0.95984  1.0000
  H   H787      1.0  0.41165  0.81330  0.03498  1.0000
  H   H788      1.0  0.40824  0.76894  0.76924  1.0000
  H   H789      1.0  0.43531  0.80946  0.99157  1.0000
  S   S151      1.0  0.48545  0.84840  0.89619  1.0000
  C   C985      1.0  0.40397  0.82931  0.66445  1.0000
  P   P29       1.0  0.30611  0.89294  0.36848  1.0000
  C   C986      1.0  0.47188  0.94241  0.72342  1.0000
  C   C987      1.0  0.43344  0.85622  0.52570  1.0000
  C   C988      1.0  0.44157  0.99673  0.50875  1.0000
  H   H790      1.0  0.39003  0.93837  0.90840  1.0000
  H   H791      1.0  0.46389  0.93475  0.21956  1.0000
  H   H792      1.0  0.44531  0.85705  0.92131  1.0000
  H   H793      1.0  0.36898  0.96830  0.57456  1.0000
  C   C989      1.0  0.43034  0.87912  0.38676  1.0000
  C   C990      1.0  0.30386  0.88476  0.31938  1.0000
  C   C991      1.0  0.30076  0.87246  0.24258  1.0000
  C   C992      1.0  0.32146  0.88674  0.39301  1.0000
  C   C993      1.0  0.34539  0.87736  0.43126  1.0000
  H   H794      1.0  0.28919  0.86159  0.42263  1.0000
  H   H795      1.0  0.29958  0.86780  0.21285  1.0000
  H   H796      1.0  0.35483  0.87410  0.44591  1.0000
  C   C994      1.0  0.41399  0.87687  0.40320  1.0000
  C   C995      1.0  0.39712  0.98328  0.75868  1.0000
  Fe  Fe79      1.0  0.49167  0.95048  0.08013  1.0000
  C   C996      1.0  0.33270  0.95083  0.78189  1.0000
  C   C997      1.0  0.41646  0.82851  0.68777  1.0000
  P   P30       1.0  0.41907  0.86844  0.95937  1.0000
  H   H797      1.0  0.37552  0.98581  0.36525  1.0000
  C   C998      1.0  0.42854  0.89793  0.32888  1.0000
  C   C999      1.0  0.42149  0.92175  0.22107  1.0000
  C   C1000     1.0  0.26079  0.88871  0.43097  1.0000
  H   H798      1.0  0.35523  0.75277  0.80004  1.0000
  H   H799      1.0  0.39915  0.81974  0.64496  1.0000
  H   H800      1.0  0.46253  0.88300  0.43800  1.0000
  C   C1001     1.0  0.41831  0.93131  0.28796  1.0000
  C   C1002     1.0  0.44128  0.89724  0.24459  1.0000
  C   C1003     1.0  0.40662  0.96937  0.35847  1.0000
  C   C1004     1.0  0.28899  0.86439  0.27711  1.0000
  C   C1005     1.0  0.29052  0.87049  0.31542  1.0000
  C   C1006     1.0  0.33445  0.88366  0.36908  1.0000
  C   C1007     1.0  0.34632  0.87895  0.38820  1.0000
  C   C1008     1.0  0.42822  0.89954  0.98791  1.0000
  H   H801      1.0  0.38724  0.85274  0.92956  1.0000
  C   C1009     1.0  0.45299  0.91134  0.01924  1.0000
  H   H802      1.0  0.42700  0.91549  0.19964  1.0000
  C   C1010     1.0  0.41197  0.89527  0.34511  1.0000
  H   H803      1.0  0.42144  0.81841  0.68632  1.0000
  C   C1011     1.0  0.42431  0.84983  0.97018  1.0000
  H   H804      1.0  0.40464  0.83885  0.02176  1.0000
  H   H805      1.0  0.49138  0.95473  0.22499  1.0000
  H   H806      1.0  0.28127  0.86404  0.34166  1.0000
  H   H807      1.0  0.33573  0.88519  0.33566  1.0000
  H   H808      1.0  0.35658  0.87709  0.36948  1.0000
  C   C1012     1.0  0.43268  0.88539  0.98177  1.0000
  H   H809      1.0  0.44593  0.79166  0.50080  1.0000
  C   C1013     1.0  0.44753  0.88447  0.99427  1.0000
  C   C1014     1.0  0.42500  0.92214  0.26193  1.0000
  H   H810      1.0  0.48367  0.97492  0.98448  1.0000
  H   H811      1.0  0.37558  0.79621  0.99126  1.0000
  C   C1015     1.0  0.28652  0.88525  0.40224  1.0000
  C   C1016     1.0  0.46424  0.94296  0.93270  1.0000
  C   C1017     1.0  0.42072  0.96972  0.96605  1.0000
  H   H812      1.0  0.41500  0.88497  0.24394  1.0000
  C   C1018     1.0  0.28139  0.86931  0.42487  1.0000
  C   C1019     1.0  0.43779  0.84761  0.94616  1.0000
  C   C1020     1.0  0.48171  0.84290  0.59558  1.0000
  H   H813      1.0  0.41895  0.86702  0.19135  1.0000
  H   H814      1.0  0.42096  0.93194  0.31954  1.0000
  H   H815      1.0  0.40443  0.90107  0.32942  1.0000
  H   H816      1.0  0.44864  0.94428  0.88616  1.0000
  C   C1021     1.0  0.33397  0.76690  0.84990  1.0000
  H   H817      1.0  0.40397  0.93554  0.64330  1.0000
  H   H818      1.0  0.32631  0.96705  0.82266  1.0000
  C   C1022     1.0  0.45649  0.95108  0.90706  1.0000
  C   C1023     1.0  0.42965  0.87548  0.20210  1.0000
  C   C1024     1.0  0.42747  0.88570  0.23181  1.0000
  H   H819      1.0  0.39220  0.88344  0.39515  1.0000
  H   H820      1.0  0.40957  0.92942  0.94679  1.0000
  C   C1025     1.0  0.48571  0.85809  0.41850  1.0000
  C   C1026     1.0  0.32420  0.77669  0.78894  1.0000
  P   P31       1.0  0.43811  0.91118  0.28074  1.0000
  C   C1027     1.0  0.43138  0.98510  0.22205  1.0000
  C   C1028     1.0  0.45729  0.89772  0.22881  1.0000
  C   C1029     1.0  0.44564  0.87644  0.18557  1.0000
  H   H821      1.0  0.44736  0.86869  0.16214  1.0000
  C   C1030     1.0  0.45943  0.88745  0.19920  1.0000
  C   C1031     1.0  0.43757  0.88953  0.34965  1.0000
  H   H822      1.0  0.45498  0.92255  0.35265  1.0000
  H   H823      1.0  0.47187  0.88821  0.18652  1.0000
  H   H824      1.0  0.43749  0.87298  0.40305  1.0000
  H   H825      1.0  0.42426  0.88848  0.56421  1.0000
  S   S152      1.0  0.37759  0.97900  0.48592  1.0000
  H   H826      1.0  0.45026  0.89118  0.33730  1.0000
  H   H827      1.0  0.41068  0.85910  0.55280  1.0000
  H   H828      1.0  0.46075  0.92128  0.03404  1.0000
  C   C1032     1.0  0.44168  0.83309  0.95398  1.0000
  H   H829      1.0  0.45145  0.87385  0.98987  1.0000
  H   H830      1.0  0.28516  0.90662  0.68667  1.0000
  C   C1033     1.0  0.42072  0.95338  0.96683  1.0000
  H   H831      1.0  0.47882  0.97581  0.53490  1.0000
  H   H832      1.0  0.44588  0.95087  0.35658  1.0000
  H   H833      1.0  0.45474  0.90169  0.54625  1.0000
  H   H834      1.0  0.46991  0.98296  0.23087  1.0000
  C   C1034     1.0  0.45753  0.89735  0.01327  1.0000
  H   H835      1.0  0.45205  0.83142  0.93525  1.0000
  P   P32       1.0  0.49356  0.97122  0.67577  1.0000
  H   H836      1.0  0.42861  0.97820  0.98411  1.0000
  C   C1035     1.0  0.45751  0.92688  0.28558  1.0000
  C   C1036     1.0  0.46268  0.92953  0.32445  1.0000
  C   C1037     1.0  0.42394  0.86502  0.54400  1.0000
  C   C1038     1.0  0.43157  0.88149  0.55095  1.0000
  C   C1039     1.0  0.41892  0.82288  0.01017  1.0000
  C   C1040     1.0  0.39267  0.97283  0.37531  1.0000
  C   C1041     1.0  0.32615  0.89737  0.76774  1.0000
  H   H837      1.0  0.35324  0.95601  0.85760  1.0000
  H   H838      1.0  0.46887  0.89650  0.02340  1.0000
  C   C1042     1.0  0.37762  0.98089  0.56978  1.0000
  C   C1043     1.0  0.39881  0.94735  0.92356  1.0000
  C   C1044     1.0  0.43224  0.82071  0.98583  1.0000
  C   C1045     1.0  0.32051  0.92730  0.62055  1.0000
  H   H839      1.0  0.48241  0.91293  0.66500  1.0000
  C   C1046     1.0  0.33618  0.93562  0.89953  1.0000
  H   H840      1.0  0.42735  0.84340  0.52133  1.0000
  C   C1047     1.0  0.44443  0.75306  0.81374  1.0000
  S   S153      1.0  0.48737  0.92313  0.08682  1.0000
  C   C1048     1.0  0.33180  0.93073  0.64907  1.0000
  C   C1049     1.0  0.39402  0.99015  0.31169  1.0000
  H   H841      1.0  0.34179  0.79681  0.87781  1.0000
  C   C1050     1.0  0.38511  0.77640  0.85133  1.0000
  H   H842      1.0  0.47140  0.88660  0.51287  1.0000
  H   H843      1.0  0.45990  0.88314  0.78164  1.0000
  C   C1051     1.0  0.46767  0.93659  0.24988  1.0000
  C   C1052     1.0  0.45059  0.86406  0.51352  1.0000
  H   H844      1.0  0.44852  0.96720  0.55820  1.0000
  C   C1053     1.0  0.44645  0.96086  0.37526  1.0000
  C   C1054     1.0  0.40975  0.97491  0.94421  1.0000
  C   C1055     1.0  0.46199  0.99264  0.02165  1.0000
  C   C1056     1.0  0.48715  0.96377  0.76219  1.0000
  C   C1057     1.0  0.47810  0.94124  0.32735  1.0000
  H   H845      1.0  0.49285  0.94628  0.61840  1.0000
  H   H846      1.0  0.47841  0.99536  0.47533  1.0000
  H   H847      1.0  0.45852  0.89102  0.70793  1.0000
  C   C1058     1.0  0.35197  0.80912  0.92810  1.0000
  C   C1059     1.0  0.45238  0.97742  0.35693  1.0000
  C   C1060     1.0  0.39850  0.96369  0.92338  1.0000
  C   C1061     1.0  0.36318  0.95257  0.91455  1.0000
  H   H848      1.0  0.32568  0.87874  0.86394  1.0000
  C   C1062     1.0  0.45106  0.96514  0.62309  1.0000
  S   S154      1.0  0.27287  0.78128  0.84645  1.0000
  H   H849      1.0  0.48232  0.75693  0.76374  1.0000
  C   C1063     1.0  0.47408  0.97316  0.56763  1.0000
  H   H850      1.0  0.26242  0.85105  0.46869  1.0000
  C   C1064     1.0  0.37546  0.94437  0.70900  1.0000
  C   C1065     1.0  0.33276  0.96631  0.79298  1.0000
  H   H851      1.0  0.48429  0.89757  0.56979  1.0000
  C   C1066     1.0  0.25640  0.76602  0.82695  1.0000
  P   P33       1.0  0.46342  0.85330  0.49014  1.0000
  C   C1067     1.0  0.33928  0.90453  0.84131  1.0000
  H   H852      1.0  0.36986  0.77336  0.94760  1.0000
  H   H853      1.0  0.45785  0.83715  0.57501  1.0000
  C   C1068     1.0  0.48478  0.90010  0.78007  1.0000
  P   P34       1.0  0.38261  0.96956  0.90031  1.0000
  C   C1069     1.0  0.36741  0.75961  0.80717  1.0000
  C   C1070     1.0  0.45360  0.81843  0.49661  1.0000
  C   C1071     1.0  0.47438  0.86413  0.44036  1.0000
  C   C1072     1.0  0.47980  0.88625  0.38356  1.0000
  H   H854      1.0  0.35133  0.92945  0.81063  1.0000
  H   H855      1.0  0.49214  0.97622  0.15837  1.0000
  C   C1073     1.0  0.38770  0.97404  0.84451  1.0000
  H   H856      1.0  0.42456  0.78946  0.45416  1.0000
  H   H857      1.0  0.37812  0.98273  0.63501  1.0000
  H   H858      1.0  0.34075  0.99280  0.77388  1.0000
  H   H859      1.0  0.36871  0.94595  0.97548  1.0000
  H   H860      1.0  0.46241  0.92949  0.82699  1.0000
  C   C1074     1.0  0.49129  0.88034  0.36232  1.0000
  C   C1075     1.0  0.45106  0.83292  0.47976  1.0000
  H   H861      1.0  0.48220  0.94285  0.35737  1.0000
  H   H862      1.0  0.38662  0.96738  0.40638  1.0000
  C   C1076     1.0  0.46804  0.93762  0.79835  1.0000
  C   C1077     1.0  0.48327  0.95838  0.72398  1.0000
  C   C1078     1.0  0.25591  0.87297  0.45398  1.0000
  H   H863      1.0  0.45486  0.98026  0.01617  1.0000
  H   H864      1.0  0.40602  0.97203  0.56966  1.0000
  H   H865      1.0  0.45658  0.98025  0.32396  1.0000
  H   H866      1.0  0.30479  0.91333  0.73758  1.0000
  C   C1079     1.0  0.43197  0.80157  0.46121  1.0000
  H   H867      1.0  0.32134  0.89405  0.73921  1.0000
  C   C1080     1.0  0.48798  0.89147  0.59538  1.0000
  H   H868      1.0  0.43735  0.84268  0.43860  1.0000
  C   C1081     1.0  0.34102  0.94983  0.74348  1.0000
  H   H869      1.0  0.29767  0.77008  0.79157  1.0000
  C   C1082     1.0  0.45301  0.99026  0.38123  1.0000
  C   C1083     1.0  0.42962  0.81597  0.44365  1.0000
  C   C1084     1.0  0.34082  0.98082  0.76546  1.0000
  H   H870      1.0  0.45211  0.98828  0.08639  1.0000
  C   C1085     1.0  0.43919  0.83159  0.45269  1.0000
  C   C1086     1.0  0.32874  0.88850  0.83812  1.0000
  C   C1087     1.0  0.34301  0.91712  0.80792  1.0000
  C   C1088     1.0  0.35523  0.78328  0.90967  1.0000
  H   H871      1.0  0.42494  0.97322  0.30572  1.0000
  H   H872      1.0  0.31431  0.87240  0.79866  1.0000
  H   H873      1.0  0.43482  0.95818  0.15342  1.0000
  H   H874      1.0  0.42043  0.81503  0.42287  1.0000
  C   C1089     1.0  0.47107  0.84344  0.56641  1.0000
  C   C1090     1.0  0.45353  0.96961  0.19059  1.0000
  H   H875      1.0  0.47672  0.83634  0.62642  1.0000
  H   H876      1.0  0.41801  0.97998  0.49639  1.0000
  H   H877      1.0  0.37906  0.91170  0.63645  1.0000
  H   H878      1.0  0.36393  0.81892  0.97955  1.0000
  C   C1091     1.0  0.47390  0.95161  0.96060  1.0000
  C   C1092     1.0  0.42710  0.98868  0.59209  1.0000
  H   H879      1.0  0.35448  0.96382  0.68497  1.0000
  C   C1093     1.0  0.42543  0.98527  0.51986  1.0000
  C   C1094     1.0  0.36266  0.91930  0.67836  1.0000
  C   C1095     1.0  0.33605  0.91374  0.77128  1.0000
  C   C1096     1.0  0.46873  0.97688  0.93607  1.0000
  H   H880      1.0  0.32482  0.93107  0.58774  1.0000
  H   H881      1.0  0.40607  0.96168  0.83962  1.0000
  C   C1097     1.0  0.36152  0.80903  0.96007  1.0000
  C   C1098     1.0  0.48319  0.94810  0.25286  1.0000
  H   H882      1.0  0.29515  0.91539  0.61165  1.0000
  C   C1099     1.0  0.40803  0.98669  0.29442  1.0000
  H   H883      1.0  0.24887  0.74994  0.88502  1.0000
  H   H884      1.0  0.45726  0.96414  0.68487  1.0000
  C   C1100     1.0  0.44785  0.98664  0.42415  1.0000
  C   C1101     1.0  0.32639  0.92521  0.69142  1.0000
  C   C1102     1.0  0.36117  0.93136  0.70357  1.0000
  C   C1103     1.0  0.34867  0.97984  0.72663  1.0000
  C   C1104     1.0  0.45705  0.96829  0.58080  1.0000
  C   C1105     1.0  0.34863  0.96440  0.71552  1.0000
  C   C1106     1.0  0.37527  0.97449  0.19050  1.0000
  C   C1107     1.0  0.41437  0.97636  0.31828  1.0000
  H   H885      1.0  0.47964  0.94516  0.98096  1.0000
  P   P35       1.0  0.34096  0.93001  0.72825  1.0000
  C   C1108     1.0  0.38485  0.98825  0.77955  1.0000
  P   P36       1.0  0.35089  0.76643  0.87804  1.0000
  C   C1109     1.0  0.39912  0.77672  0.82496  1.0000
  C   C1110     1.0  0.38752  0.97741  0.21657  1.0000
  C   C1111     1.0  0.30439  0.76033  0.84729  1.0000
  H   H886      1.0  0.37072  0.98780  0.83793  1.0000
  C   C1112     1.0  0.43821  0.96658  0.17643  1.0000
  C   C1113     1.0  0.36801  0.79617  0.96682  1.0000
  H   H887      1.0  0.49261  0.90717  0.27654  1.0000
  H   H888      1.0  0.43889  0.96669  0.47557  1.0000
  C   C1114     1.0  0.38640  0.98325  0.35200  1.0000
  H   H889      1.0  0.48250  0.95766  0.82860  1.0000
  C   C1115     1.0  0.46207  0.96643  0.65227  1.0000
  C   C1116     1.0  0.47943  0.95347  0.79921  1.0000
  H   H890      1.0  0.32683  0.78372  0.75842  1.0000
  H   H891      1.0  0.36524  0.96266  0.19472  1.0000
  C   C1117     1.0  0.39087  0.94586  0.68734  1.0000
  C   C1118     1.0  0.39214  0.93416  0.66102  1.0000
  C   C1119     1.0  0.47916  0.97070  0.63909  1.0000
  C   C1120     1.0  0.34893  0.79635  0.90283  1.0000
  H   H892      1.0  0.38675  0.96767  0.24090  1.0000
  C   C1121     1.0  0.40083  0.99256  0.21042  1.0000
  C   C1122     1.0  0.30779  0.76901  0.80753  1.0000
  C   C1123     1.0  0.48770  0.86735  0.91784  1.0000
  H   H893      1.0  0.25584  0.81887  0.77875  1.0000
  H   H894      1.0  0.35471  0.99104  0.70490  1.0000
  C   C1124     1.0  0.44696  0.98834  0.23567  1.0000
  H   H895      1.0  0.48541  0.89608  0.81194  1.0000
  C   C1125     1.0  0.48292  0.90962  0.69739  1.0000
  H   H896      1.0  0.33172  0.75607  0.96100  1.0000
  C   C1126     1.0  0.36931  0.98680  0.95558  1.0000
  H   H897      1.0  0.38006  0.75373  0.75330  1.0000
  H   H898      1.0  0.48055  0.99327  0.72156  1.0000
  C   C1127     1.0  0.49374  0.89808  0.95141  1.0000
  C   C1128     1.0  0.46987  0.75100  0.77991  1.0000
  H   H899      1.0  0.24799  0.80488  0.71702  1.0000
  C   C1129     1.0  0.38055  0.98804  0.92011  1.0000
  H   H900      1.0  0.40095  0.98723  0.72569  1.0000
  S   S155      1.0  0.49401  0.93391  0.52032  1.0000
  H   H901      1.0  0.29161  0.75476  0.86190  1.0000
  C   C1130     1.0  0.41973  0.99606  0.09497  1.0000
  H   H902      1.0  0.37931  0.99605  0.76266  1.0000
  P   P37       1.0  0.41741  0.99547  0.24187  1.0000
  H   H903      1.0  0.45060  0.99693  0.25820  1.0000
  H   H904      1.0  0.46326  0.74890  0.63803  1.0000
  H   H905      1.0  0.24417  0.86830  0.47427  1.0000
  H   H906      1.0  0.38887  0.99803  0.29380  1.0000
  C   C1131     1.0  0.46033  0.99721  0.06147  1.0000
  C   C1132     1.0  0.24416  0.80873  0.78092  1.0000
  Fe  Fe80      1.0  0.58088  0.07659  0.02326  1.0000
  S   S156      1.0  0.60862  0.08341  0.01967  1.0000
  H   H907      1.0  0.62975  0.10990  0.12796  1.0000
  Fe  Fe81      1.0  0.58365  0.10742  0.96501  1.0000
  S   S157      1.0  0.61138  0.11657  0.95609  1.0000
  S   S158      1.0  0.56790  0.12120  0.93912  1.0000
  Fe  Fe82      1.0  0.60835  0.08972  0.95108  1.0000
  S   S159      1.0  0.62283  0.08103  0.90156  1.0000
  Fe  Fe83      1.0  0.60912  0.10980  0.02533  1.0000
  S   S160      1.0  0.62242  0.13096  0.06150  1.0000
  S   S161      1.0  0.58081  0.08109  0.95509  1.0000
  S   S162      1.0  0.58135  0.10235  0.03359  1.0000
  Fe  Fe84      1.0  0.59826  0.07348  0.66340  1.0000
  S   S163      1.0  0.60483  0.06378  0.60444  1.0000
  S   S164      1.0  0.61522  0.07334  0.71203  1.0000
  Fe  Fe85      1.0  0.56795  0.07781  0.63321  1.0000
  S   S165      1.0  0.57187  0.06854  0.57220  1.0000
  S   S166      1.0  0.54575  0.08473  0.65427  1.0000
  Fe  Fe86      1.0  0.57778  0.04863  0.61018  1.0000
  H   H908      1.0  0.54460  0.10557  0.72236  1.0000
  Fe  Fe87      1.0  0.59851  0.08459  0.57102  1.0000
  S   S167      1.0  0.61293  0.09719  0.50779  1.0000
  S   S168      1.0  0.57181  0.05679  0.67143  1.0000
  S   S169      1.0  0.59405  0.09554  0.62959  1.0000
  H   H909      1.0  0.55733  0.16896  0.50840  1.0000
  H   H910      1.0  0.53170  0.16665  0.43947  1.0000
  C   C1133     1.0  0.63682  0.12540  0.61813  1.0000
  C   C1134     1.0  0.49750  0.06011  0.64911  1.0000
  C   C1135     1.0  0.53830  0.02134  0.96329  1.0000
  Fe  Fe88      1.0  0.50363  0.19428  0.28317  1.0000
  S   S170      1.0  0.51460  0.18591  0.33707  1.0000
  Fe  Fe89      1.0  0.52229  0.16963  0.29464  1.0000
  S   S171      1.0  0.54407  0.16051  0.29828  1.0000
  H   H911      1.0  0.58034  0.01072  0.01565  1.0000
  C   C1136     1.0  0.54604  0.20452  0.40837  1.0000
  S   S172      1.0  0.51303  0.17892  0.23911  1.0000
  H   H912      1.0  0.62197  0.09049  0.26342  1.0000
  Fe  Fe90      1.0  0.67739  0.20510  0.28387  1.0000
  S   S173      1.0  0.65667  0.20667  0.32945  1.0000
  S   S174      1.0  0.70268  0.22642  0.26312  1.0000
  Fe  Fe91      1.0  0.65534  0.17041  0.26370  1.0000
  S   S175      1.0  0.63363  0.16978  0.30913  1.0000
  S   S176      1.0  0.65214  0.14712  0.23076  1.0000
  Fe  Fe92      1.0  0.63960  0.19643  0.28323  1.0000
  S   S177      1.0  0.61968  0.20711  0.26724  1.0000
  Fe  Fe93      1.0  0.65201  0.17969  0.35230  1.0000
  S   S178      1.0  0.64533  0.17236  0.42231  1.0000
  S   S179      1.0  0.66046  0.19674  0.23517  1.0000
  S   S180      1.0  0.67370  0.17840  0.30926  1.0000
  H   H913      1.0  0.52167  0.03900  0.70265  1.0000
  H   H914      1.0  0.51987  0.15491  0.37894  1.0000
  H   H915      1.0  0.51889  0.04047  0.43189  1.0000
  S   S181      1.0  0.49960  0.06375  0.94963  1.0000
  C   C1137     1.0  0.58373  0.17360  0.49549  1.0000
  C   C1138     1.0  0.56487  0.17390  0.28928  1.0000
  C   C1139     1.0  0.57724  0.16740  0.29890  1.0000
  C   C1140     1.0  0.59394  0.17755  0.29305  1.0000
  C   C1141     1.0  0.59858  0.19426  0.27650  1.0000
  C   C1142     1.0  0.58621  0.20083  0.26689  1.0000
  C   C1143     1.0  0.56936  0.19069  0.27338  1.0000
  H   H916      1.0  0.57394  0.15447  0.31099  1.0000
  H   H917      1.0  0.60320  0.17230  0.30073  1.0000
  H   H918      1.0  0.58967  0.21378  0.25422  1.0000
  H   H919      1.0  0.55992  0.19584  0.26582  1.0000
  H   H920      1.0  0.52984  0.03265  0.17316  1.0000
  C   C1144     1.0  0.50570  0.03356  0.43586  1.0000
  C   C1145     1.0  0.56821  0.16787  0.52043  1.0000
  C   C1146     1.0  0.53263  0.00318  0.27123  1.0000
  H   H921      1.0  0.55827  0.13041  0.38538  1.0000
  C   C1147     1.0  0.49787  0.07790  0.79968  1.0000
  C   C1148     1.0  0.55351  0.12118  0.49500  1.0000
  H   H922      1.0  0.54835  0.12482  0.65938  1.0000
  C   C1149     1.0  0.50766  0.23975  0.28453  1.0000
  H   H923      1.0  0.54517  0.03119  0.56623  1.0000
  C   C1150     1.0  0.52753  0.07016  0.64330  1.0000
  C   C1151     1.0  0.52806  0.05707  0.62093  1.0000
  C   C1152     1.0  0.51334  0.04563  0.61215  1.0000
  C   C1153     1.0  0.55360  0.19729  0.37913  1.0000
  H   H924      1.0  0.62962  0.22239  0.33996  1.0000
  C   C1154     1.0  0.51225  0.07156  0.65769  1.0000
  H   H925      1.0  0.53973  0.05556  0.61076  1.0000
  H   H926      1.0  0.56564  0.11481  0.60417  1.0000
  H   H927      1.0  0.56947  0.16753  0.17551  1.0000
  H   H928      1.0  0.51189  0.08173  0.67476  1.0000
  C   C1155     1.0  0.62154  0.11827  0.48506  1.0000
  C   C1156     1.0  0.62848  0.12163  0.44309  1.0000
  C   C1157     1.0  0.63580  0.13812  0.42357  1.0000
  C   C1158     1.0  0.63617  0.15145  0.44579  1.0000
  C   C1159     1.0  0.62931  0.14814  0.48785  1.0000
  C   C1160     1.0  0.62197  0.13162  0.50743  1.0000
  H   H929      1.0  0.62835  0.11139  0.42565  1.0000
  H   H930      1.0  0.64136  0.14053  0.39149  1.0000
  H   H931      1.0  0.62978  0.15842  0.50536  1.0000
  H   H932      1.0  0.61688  0.12922  0.53983  1.0000
  C   C1161     1.0  0.54850  0.10609  0.93962  1.0000
  C   C1162     1.0  0.53396  0.10835  0.95724  1.0000
  C   C1163     1.0  0.51866  0.09543  0.96031  1.0000
  C   C1164     1.0  0.51805  0.08046  0.94520  1.0000
  C   C1165     1.0  0.53247  0.07850  0.92640  1.0000
  C   C1166     1.0  0.54770  0.09123  0.92399  1.0000
  H   H933      1.0  0.53458  0.11988  0.96932  1.0000
  H   H934      1.0  0.49890  0.13393  0.53059  1.0000
  H   H935      1.0  0.53173  0.06711  0.91353  1.0000
  H   H936      1.0  0.55881  0.08976  0.90893  1.0000
  C   C1167     1.0  0.61885  0.07838  0.85000  1.0000
  C   C1168     1.0  0.63019  0.07359  0.82464  1.0000
  C   C1169     1.0  0.62865  0.07217  0.78291  1.0000
  C   C1170     1.0  0.61547  0.07503  0.76567  1.0000
  C   C1171     1.0  0.60364  0.07933  0.79106  1.0000
  C   C1172     1.0  0.60542  0.08119  0.83325  1.0000
  H   H937      1.0  0.64055  0.07136  0.83711  1.0000
  H   H938      1.0  0.63785  0.06887  0.76374  1.0000
  H   H939      1.0  0.59344  0.08158  0.77796  1.0000
  H   H940      1.0  0.59663  0.08498  0.85252  1.0000
  C   C1173     1.0  0.62978  0.13469  0.10996  1.0000
  C   C1174     1.0  0.63348  0.15085  0.12159  1.0000
  C   C1175     1.0  0.63994  0.15475  0.15879  1.0000
  C   C1176     1.0  0.64294  0.14254  0.18486  1.0000
  C   C1177     1.0  0.63906  0.12631  0.17354  1.0000
  C   C1178     1.0  0.63242  0.12236  0.13648  1.0000
  H   H941      1.0  0.63150  0.16051  0.10141  1.0000
  H   H942      1.0  0.64295  0.16730  0.16680  1.0000
  H   H943      1.0  0.64143  0.11679  0.19330  1.0000
  C   C1179     1.0  0.51869  0.01058  0.33144  1.0000
  H   H944      1.0  0.51688  0.13012  0.25562  1.0000
  H   H945      1.0  0.53657  0.11095  0.59656  1.0000
  H   H946      1.0  0.55027  0.12231  0.46416  1.0000
  C   C1180     1.0  0.67140  0.18155  0.76378  1.0000
  C   C1181     1.0  0.61295  0.20879  0.45669  1.0000
  C   C1182     1.0  0.51346  0.06269  0.51668  1.0000
  H   H947      1.0  0.50839  0.01123  0.46481  1.0000
  C   C1183     1.0  0.63722  0.11587  0.68964  1.0000
  C   C1184     1.0  0.52569  0.01412  0.28969  1.0000
  C   C1185     1.0  0.51810  0.06803  0.06662  1.0000
  C   C1186     1.0  0.53299  0.07922  0.04542  1.0000
  C   C1187     1.0  0.53794  0.09598  0.05173  1.0000
  C   C1188     1.0  0.52818  0.10168  0.07979  1.0000
  C   C1189     1.0  0.51304  0.09044  0.10045  1.0000
  P   P38       1.0  0.53430  0.12347  0.08674  1.0000
  C   C1190     1.0  0.52811  0.12522  0.14021  1.0000
  C   C1191     1.0  0.55661  0.13285  0.07389  1.0000
  C   C1192     1.0  0.56713  0.13434  0.10450  1.0000
  C   C1193     1.0  0.58431  0.14193  0.09390  1.0000
  C   C1194     1.0  0.59113  0.14784  0.05267  1.0000
  C   C1195     1.0  0.58081  0.14611  0.02195  1.0000
  C   C1196     1.0  0.56365  0.13871  0.03248  1.0000
  C   C1197     1.0  0.52072  0.13705  0.15063  1.0000
  C   C1198     1.0  0.51664  0.13868  0.19215  1.0000
  C   C1199     1.0  0.51984  0.12854  0.22357  1.0000
  C   C1200     1.0  0.52676  0.11642  0.21352  1.0000
  C   C1201     1.0  0.53080  0.11470  0.17199  1.0000
  C   C1202     1.0  0.52497  0.13426  0.05228  1.0000
  C   C1203     1.0  0.53122  0.15174  0.04456  1.0000
  H   H948      1.0  0.56657  0.19944  0.48900  1.0000
  C   C1204     1.0  0.56269  0.19833  0.45867  1.0000
  C   C1205     1.0  0.58036  0.15821  0.57668  1.0000
  C   C1206     1.0  0.51190  0.12544  0.03194  1.0000
  C   C1207     1.0  0.54571  0.11478  0.56923  1.0000
  H   H949      1.0  0.51425  0.05511  0.06101  1.0000
  H   H950      1.0  0.54059  0.07498  0.02342  1.0000
  H   H951      1.0  0.54918  0.10451  0.03378  1.0000
  C   C1208     1.0  0.69491  0.17240  0.20793  1.0000
  H   H952      1.0  0.56224  0.12961  0.13640  1.0000
  H   H953      1.0  0.59246  0.14305  0.11742  1.0000
  H   H954      1.0  0.60446  0.15345  0.04442  1.0000
  H   H955      1.0  0.58613  0.15019  0.98978  1.0000
  H   H956      1.0  0.55592  0.13732  0.00804  1.0000
  H   H957      1.0  0.51796  0.14499  0.12704  1.0000
  H   H958      1.0  0.51085  0.14776  0.19998  1.0000
  P   P39       1.0  0.63894  0.13517  0.75446  1.0000
  C   C1209     1.0  0.57254  0.02753  0.76883  1.0000
  H   H959      1.0  0.53623  0.10534  0.16447  1.0000
  H   H960      1.0  0.54128  0.15879  0.06003  1.0000
  C   C1210     1.0  0.52015  0.01224  0.87604  1.0000
  H   H961      1.0  0.51358  0.01914  0.34581  1.0000
  H   H962      1.0  0.52904  0.10843  0.23789  1.0000
  H   H963      1.0  0.50662  0.11200  0.03765  1.0000
  C   C1211     1.0  0.62510  0.21848  0.37263  1.0000
  C   C1212     1.0  0.69585  0.16038  0.23834  1.0000
  H   H964      1.0  0.54504  0.21109  0.47037  1.0000
  H   H965      1.0  0.49532  0.12707  0.98815  1.0000
  C   C1213     1.0  0.60503  0.19927  0.42714  1.0000
  C   C1214     1.0  0.61110  0.20433  0.38499  1.0000
  P   P40       1.0  0.58585  0.18221  0.44216  1.0000
  C   C1215     1.0  0.58562  0.16482  0.41458  1.0000
  C   C1216     1.0  0.57049  0.15359  0.40734  1.0000
  C   C1217     1.0  0.56999  0.13893  0.39085  1.0000
  C   C1218     1.0  0.58455  0.13523  0.38201  1.0000
  C   C1219     1.0  0.59968  0.14641  0.38892  1.0000
  C   C1220     1.0  0.60024  0.16117  0.40508  1.0000
  C   C1221     1.0  0.56551  0.19039  0.38973  1.0000
  H   H966      1.0  0.49601  0.11972  0.90624  1.0000
  C   C1222     1.0  0.54157  0.00484  0.06400  1.0000
  S   S182      1.0  0.49885  0.14802  0.31360  1.0000
  H   H967      1.0  0.53772  0.02653  0.65586  1.0000
  H   H968      1.0  0.60491  0.19750  0.36155  1.0000
  H   H969      1.0  0.61100  0.14361  0.38224  1.0000
  H   H970      1.0  0.61203  0.16955  0.41094  1.0000
  H   H971      1.0  0.57152  0.18524  0.36631  1.0000
  H   H972      1.0  0.68633  0.16880  0.18559  1.0000
  H   H973      1.0  0.50701  0.12437  0.38057  1.0000
  H   H974      1.0  0.68446  0.18709  0.76639  1.0000
  H   H975      1.0  0.63568  0.10053  0.64028  1.0000
  C   C1223     1.0  0.64780  0.15719  0.75782  1.0000
  P   P41       1.0  0.57586  0.01324  0.88927  1.0000
  P   P42       1.0  0.51803  0.09375  0.79423  1.0000
  C   C1224     1.0  0.51975  0.10750  0.83390  1.0000
  C   C1225     1.0  0.53283  0.08280  0.79202  1.0000
  C   C1226     1.0  0.54411  0.08435  0.82062  1.0000
  C   C1227     1.0  0.55559  0.07589  0.81802  1.0000
  C   C1228     1.0  0.55584  0.06577  0.78678  1.0000
  C   C1229     1.0  0.54440  0.06387  0.75871  1.0000
  C   C1230     1.0  0.53287  0.07224  0.76145  1.0000
  C   C1231     1.0  0.53525  0.11926  0.83694  1.0000
  C   C1232     1.0  0.53665  0.13068  0.86569  1.0000
  C   C1233     1.0  0.52252  0.13084  0.89067  1.0000
  H   H976      1.0  0.55546  0.05998  0.90954  1.0000
  H   H977      1.0  0.52365  0.13954  0.91331  1.0000
  C   C1234     1.0  0.52105  0.10761  0.74724  1.0000
  C   C1235     1.0  0.52659  0.15326  0.44004  1.0000
  C   C1236     1.0  0.56224  0.11689  0.57377  1.0000
  C   C1237     1.0  0.52574  0.13005  0.67572  1.0000
  C   C1238     1.0  0.53751  0.12237  0.68217  1.0000
  C   C1239     1.0  0.53527  0.11129  0.71796  1.0000
  H   H978      1.0  0.52084  0.05460  0.51946  1.0000
  H   H979      1.0  0.68961  0.15803  0.43589  1.0000
  C   C1240     1.0  0.50555  0.10801  0.85851  1.0000
  H   H980      1.0  0.55951  0.03180  0.27152  1.0000
  H   H981      1.0  0.51396  0.04926  0.85500  1.0000
  H   H982      1.0  0.54413  0.09214  0.84474  1.0000
  H   H983      1.0  0.56452  0.07745  0.83971  1.0000
  H   H984      1.0  0.56501  0.05955  0.78404  1.0000
  H   H985      1.0  0.54467  0.05624  0.73409  1.0000
  H   H986      1.0  0.52425  0.07082  0.73903  1.0000
  H   H987      1.0  0.54626  0.11966  0.81698  1.0000
  H   H988      1.0  0.54873  0.13927  0.86904  1.0000
  H   H989      1.0  0.50905  0.09559  0.60613  1.0000
  H   H990      1.0  0.63628  0.12291  0.58624  1.0000
  H   H991      1.0  0.66645  0.20463  0.76592  1.0000
  C   C1241     1.0  0.71653  0.24524  0.32523  1.0000
  C   C1242     1.0  0.59429  0.01917  0.91449  1.0000
  S   S183      1.0  0.56011  0.05502  0.06086  1.0000
  H   H992      1.0  0.53376  0.08468  0.52077  1.0000
  H   H993      1.0  0.68840  0.20658  0.39507  1.0000
  H   H994      1.0  0.67834  0.18090  0.44531  1.0000
  H   H995      1.0  0.58310  0.04027  0.02138  1.0000
  H   H996      1.0  0.55903  0.15602  0.41488  1.0000
  C   C1243     1.0  0.63656  0.11280  0.64849  1.0000
  C   C1244     1.0  0.68814  0.18238  0.42013  1.0000
  H   H997      1.0  0.64431  0.23835  0.39238  1.0000
  C   C1245     1.0  0.55333  0.04696  0.91875  1.0000
  H   H998      1.0  0.51380  0.03554  0.59470  1.0000
  C   C1246     1.0  0.69388  0.19690  0.39198  1.0000
  C   C1247     1.0  0.69456  0.16951  0.41486  1.0000
  H   H999      1.0  0.60632  0.16123  0.56316  1.0000
  H   H1000     1.0  0.55041  0.19718  0.34796  1.0000
  C   C1248     1.0  0.56983  0.19045  0.42988  1.0000
  S   S184      1.0  0.50881  0.22207  0.25996  1.0000
  C   C1249     1.0  0.70695  0.17126  0.38180  1.0000
  C   C1250     1.0  0.70623  0.19865  0.35886  1.0000
  H   H1001     1.0  0.71137  0.16093  0.37748  1.0000
  C   C1251     1.0  0.71814  0.24232  0.28375  1.0000
  H   H1002     1.0  0.53533  0.03589  0.84188  1.0000
  C   C1252     1.0  0.71318  0.18605  0.35415  1.0000
  H   H1003     1.0  0.60812  0.20557  0.48925  1.0000
  C   C1253     1.0  0.56159  0.02258  0.91255  1.0000
  H   H1004     1.0  0.70634  0.15571  0.29280  1.0000
  C   C1254     1.0  0.49648  0.05583  0.51476  1.0000
  H   H1005     1.0  0.52736  0.13846  0.64776  1.0000
  H   H1006     1.0  0.68699  0.11528  0.74929  1.0000
  C   C1255     1.0  0.70629  0.16507  0.26844  1.0000
  H   H1007     1.0  0.58411  0.12369  0.37005  1.0000
  H   H1008     1.0  0.53680  0.20988  0.39995  1.0000
  C   C1256     1.0  0.71608  0.18182  0.26794  1.0000
  H   H1009     1.0  0.52921  0.17372  0.01147  1.0000
  C   C1257     1.0  0.58902  0.03284  0.74999  1.0000
  C   C1258     1.0  0.51246  0.11872  0.44179  1.0000
  H   H1010     1.0  0.57373  0.04662  0.87568  1.0000
  C   C1259     1.0  0.52073  0.07983  0.51748  1.0000
  C   C1260     1.0  0.50019  0.01679  0.71542  1.0000
  C   C1261     1.0  0.62721  0.22272  0.44423  1.0000
  C   C1262     1.0  0.56991  0.01371  0.02998  1.0000
  C   C1263     1.0  0.55717  0.02855  0.20713  1.0000
  C   C1264     1.0  0.56369  0.03930  0.89958  1.0000
  H   H1011     1.0  0.70331  0.19852  0.18489  1.0000
  C   C1265     1.0  0.51134  0.03630  0.86680  1.0000
  H   H1012     1.0  0.59727  0.13066  0.87495  1.0000
  C   C1266     1.0  0.56657  0.16035  0.56101  1.0000
  C   C1267     1.0  0.63770  0.16724  0.75739  1.0000
  H   H1013     1.0  0.53285  0.04413  0.96610  1.0000
  H   H1014     1.0  0.54536  0.07560  0.17780  1.0000
  H   H1015     1.0  0.63636  0.10871  0.31265  1.0000
  C   C1268     1.0  0.50808  0.07364  0.09405  1.0000
  H   H1016     1.0  0.55930  0.02877  0.14059  1.0000
  C   C1269     1.0  0.52337  0.02877  0.85948  1.0000
  H   H1017     1.0  0.71008  0.20967  0.33636  1.0000
  C   C1270     1.0  0.70450  0.18910  0.20746  1.0000
  C   C1271     1.0  0.53764  0.10244  0.35257  1.0000
  P   P43       1.0  0.72815  0.18792  0.30945  1.0000
  C   C1272     1.0  0.57640  0.05093  0.15747  1.0000
  H   H1018     1.0  0.53177  0.14793  0.50134  1.0000
  H   H1019     1.0  0.63791  0.15085  0.60534  1.0000
  C   C1273     1.0  0.67623  0.11594  0.76850  1.0000
  C   C1274     1.0  0.50652  0.11536  0.56491  1.0000
  C   C1275     1.0  0.55065  0.20512  0.44808  1.0000
  C   C1276     1.0  0.66590  0.12373  0.75177  1.0000
  C   C1277     1.0  0.57003  0.12341  0.49971  1.0000
  H   H1020     1.0  0.72186  0.20688  0.23724  1.0000
  H   H1021     1.0  0.53286  0.02460  0.08172  1.0000
  S   S185      1.0  0.56930  0.02069  0.60766  1.0000
  H   H1022     1.0  0.55501  0.13386  0.27448  1.0000
  C   C1278     1.0  0.55820  0.03440  0.05241  1.0000
  H   H1023     1.0  0.59789  0.18763  0.17333  1.0000
  C   C1279     1.0  0.59739  0.17089  0.51100  1.0000
  H   H1024     1.0  0.59250  0.07156  0.18290  1.0000
  C   C1280     1.0  0.56890  0.08840  0.14054  1.0000
  C   C1281     1.0  0.61768  0.10043  0.27271  1.0000
  C   C1282     1.0  0.57149  0.03046  0.03308  1.0000
  C   C1283     1.0  0.58119  0.02130  0.83495  1.0000
  C   C1284     1.0  0.50344  0.10515  0.60271  1.0000
  H   H1025     1.0  0.68792  0.14754  0.23942  1.0000
  C   C1285     1.0  0.59774  0.02674  0.81577  1.0000
  H   H1026     1.0  0.67281  0.15710  0.76135  1.0000
  C   C1286     1.0  0.51103  0.09026  0.51601  1.0000
  C   C1287     1.0  0.63330  0.22755  0.40219  1.0000
  C   C1288     1.0  0.60377  0.00857  0.91750  1.0000
  H   H1027     1.0  0.49629  0.06506  0.10956  1.0000
  C   C1289     1.0  0.57435  0.12107  0.53906  1.0000
  H   H1028     1.0  0.58143  0.05929  0.25589  1.0000
  H   H1029     1.0  0.57090  0.09258  0.31289  1.0000
  C   C1290     1.0  0.57894  0.16344  0.18766  1.0000
  C   C1291     1.0  0.58430  0.10096  0.13778  1.0000
  H   H1030     1.0  0.60353  0.13698  0.30388  1.0000
  C   C1292     1.0  0.52459  0.00609  0.18829  1.0000
  H   H1031     1.0  0.59979  0.12060  0.16695  1.0000
  H   H1032     1.0  0.50664  0.10545  0.44204  1.0000
  C   C1293     1.0  0.63814  0.13158  0.70091  1.0000
  C   C1294     1.0  0.51943  0.12532  0.47614  1.0000
  H   H1033     1.0  0.57949  0.12653  0.47288  1.0000
  H   H1034     1.0  0.56269  0.13837  0.20555  1.0000
  C   C1295     1.0  0.62577  0.11063  0.30058  1.0000
  C   C1296     1.0  0.59495  0.17475  0.18616  1.0000
  H   H1035     1.0  0.59843  0.09529  0.23441  1.0000
  C   C1297     1.0  0.57508  0.14697  0.20549  1.0000
  C   C1298     1.0  0.58264  0.05960  0.18980  1.0000
  C   C1299     1.0  0.50544  0.13397  0.00365  1.0000
  C   C1300     1.0  0.66473  0.16449  0.76092  1.0000
  C   C1301     1.0  0.59931  0.12735  0.84405  1.0000
  C   C1302     1.0  0.60440  0.10333  0.25602  1.0000
  C   C1303     1.0  0.57633  0.05272  0.23084  1.0000
  H   H1036     1.0  0.58144  0.05612  0.12559  1.0000
  H   H1037     1.0  0.58704  0.12224  0.54260  1.0000
  H   H1038     1.0  0.70560  0.23769  0.34618  1.0000
  P   P44       1.0  0.51966  0.11208  0.52185  1.0000
  C   C1304     1.0  0.52658  0.14266  0.47489  1.0000
  C   C1305     1.0  0.59919  0.11659  0.26695  1.0000
  C   C1306     1.0  0.60718  0.16949  0.20173  1.0000
  C   C1307     1.0  0.62049  0.12365  0.31206  1.0000
  C   C1308     1.0  0.55416  0.01067  0.57711  1.0000
  H   H1039     1.0  0.59282  0.04317  0.92804  1.0000
  H   H1040     1.0  0.56608  0.08086  0.11550  1.0000
  C   C1309     1.0  0.71506  0.19380  0.23730  1.0000
  C   C1310     1.0  0.54066  0.03804  0.95067  1.0000
  H   H1041     1.0  0.61440  0.03703  0.75878  1.0000
  H   H1042     1.0  0.62709  0.13180  0.33275  1.0000
  H   H1043     1.0  0.61961  0.17828  0.20056  1.0000
  C   C1311     1.0  0.58704  0.14176  0.22330  1.0000
  C   C1312     1.0  0.56376  0.03546  0.16606  1.0000
  C   C1313     1.0  0.56087  0.09511  0.20826  1.0000
  H   H1044     1.0  0.63900  0.15643  0.67803  1.0000
  C   C1314     1.0  0.54117  0.11687  0.52969  1.0000
  C   C1315     1.0  0.54380  0.01853  0.56082  1.0000
  C   C1316     1.0  0.60332  0.15305  0.21987  1.0000
  C   C1317     1.0  0.60721  0.12658  0.29550  1.0000
  H   H1045     1.0  0.60774  0.02677  0.83330  1.0000
  H   H1046     1.0  0.54735  0.08287  0.36935  1.0000
  C   C1318     1.0  0.60159  0.03248  0.77345  1.0000
  H   H1047     1.0  0.63655  0.19194  0.76020  1.0000
  P   P45       1.0  0.58181  0.12037  0.24654  1.0000
  C   C1319     1.0  0.51174  0.12672  0.70525  1.0000
  C   C1320     1.0  0.56236  0.09948  0.31613  1.0000
  C   C1321     1.0  0.54322  0.02156  0.06745  1.0000
  C   C1322     1.0  0.56475  0.11389  0.28872  1.0000
  H   H1048     1.0  0.53147  0.12376  0.32931  1.0000
  C   C1323     1.0  0.54893  0.09385  0.34803  1.0000
  H   H1049     1.0  0.57905  0.15219  0.60793  1.0000
  H   H1050     1.0  0.50623  0.02941  0.13406  1.0000
  C   C1324     1.0  0.55345  0.12253  0.29399  1.0000
  H   H1051     1.0  0.61321  0.14938  0.23077  1.0000
  H   H1052     1.0  0.55583  0.01772  0.82539  1.0000
  C   C1325     1.0  0.50818  0.01847  0.14863  1.0000
  H   H1053     1.0  0.55168  0.09258  0.23534  1.0000
  H   H1054     1.0  0.50742  0.09697  0.97460  1.0000
  C   C1326     1.0  0.49977  0.01709  0.45473  1.0000
  H   H1055     1.0  0.52732  0.09820  0.37748  1.0000
  C   C1327     1.0  0.56375  0.03717  0.23956  1.0000
  C   C1328     1.0  0.52165  0.02025  0.17062  1.0000
  H   H1056     1.0  0.52341  0.01601  0.52587  1.0000
  C   C1329     1.0  0.58787  0.11079  0.16974  1.0000
  H   H1057     1.0  0.63408  0.03181  0.96818  1.0000
  C   C1330     1.0  0.53991  0.11675  0.32547  1.0000
  C   C1331     1.0  0.57627  0.10787  0.20529  1.0000
  C   C1332     1.0  0.51272  0.12938  0.40672  1.0000
  H   H1058     1.0  0.61778  0.05085  0.96185  1.0000
  C   C1333     1.0  0.61802  0.01308  0.93699  1.0000
  C   C1334     1.0  0.61380  0.03895  0.94982  1.0000
  C   C1335     1.0  0.62302  0.02825  0.95321  1.0000
  C   C1336     1.0  0.64442  0.18428  0.76028  1.0000
  C   C1337     1.0  0.66126  0.19143  0.76351  1.0000
  H   H1059     1.0  0.57347  0.11412  0.84319  1.0000
  C   C1338     1.0  0.59954  0.03449  0.93047  1.0000
  H   H1060     1.0  0.62522  0.00482  0.93948  1.0000
  H   H1061     1.0  0.66899  0.12924  0.71970  1.0000
  C   C1339     1.0  0.55721  0.08544  0.17580  1.0000
  H   H1062     1.0  0.59357  0.10319  0.11090  1.0000
  C   C1340     1.0  0.53147  0.00989  0.53792  1.0000
  H   H1063     1.0  0.50493  0.09473  0.12079  1.0000
  C   C1341     1.0  0.51982  0.14662  0.40584  1.0000
  C   C1342     1.0  0.74323  0.20866  0.29794  1.0000
  C   C1343     1.0  0.58586  0.11799  0.82606  1.0000
  C   C1344     1.0  0.52448  0.16024  0.01691  1.0000
  H   H1064     1.0  0.57807  0.10639  0.77218  1.0000
  C   C1345     1.0  0.58847  0.11365  0.78629  1.0000
  C   C1346     1.0  0.52542  0.01908  0.67131  1.0000
  H   H1065     1.0  0.59216  0.03748  0.71724  1.0000
  H   H1066     1.0  0.65582  0.10414  0.86669  1.0000
  C   C1347     1.0  0.61535  0.13243  0.82236  1.0000
  H   H1067     1.0  0.62560  0.13983  0.83672  1.0000
  H   H1068     1.0  0.63738  0.11731  0.83770  1.0000
  C   C1348     1.0  0.65874  0.10975  0.83463  1.0000
  C   C1349     1.0  0.60455  0.11848  0.76474  1.0000
  C   C1350     1.0  0.54877  0.01363  0.94458  1.0000
  C   C1351     1.0  0.59573  0.16335  0.55154  1.0000
  C   C1352     1.0  0.63832  0.14421  0.67028  1.0000
  H   H1069     1.0  0.60929  0.17440  0.49149  1.0000
  C   C1353     1.0  0.64825  0.11732  0.81790  1.0000
  H   H1070     1.0  0.68054  0.10279  0.82292  1.0000
  C   C1354     1.0  0.61815  0.12791  0.78266  1.0000
  C   C1355     1.0  0.51834  0.00267  0.66325  1.0000
  H   H1071     1.0  0.63698  0.10595  0.71278  1.0000
  C   C1356     1.0  0.63769  0.14110  0.62901  1.0000
  C   C1357     1.0  0.67264  0.10894  0.80993  1.0000
  H   H1072     1.0  0.62463  0.16189  0.75489  1.0000
  H   H1073     1.0  0.60627  0.11468  0.73433  1.0000
  C   C1358     1.0  0.65170  0.12435  0.77622  1.0000
  C   C1359     1.0  0.49807  0.04725  0.62585  1.0000
  C   C1360     1.0  0.51641  0.02608  0.69770  1.0000
  H   H1074     1.0  0.55456  0.15591  0.58007  1.0000
  P   P46       1.0  0.54170  0.00802  0.21737  1.0000
  H   H1075     1.0  0.52587  0.02544  0.27183  1.0000
  C   C1361     1.0  0.50936  0.11551  0.74081  1.0000
  H   H1076     1.0  0.49919  0.05393  0.40830  1.0000
  H   H1077     1.0  0.50621  0.15788  0.97533  1.0000
  C   C1362     1.0  0.56863  0.02180  0.81119  1.0000
  C   C1363     1.0  0.51159  0.15135  0.99643  1.0000
  H   H1078     1.0  0.49536  0.08047  0.73449  1.0000
  H   H1079     1.0  0.50256  0.13263  0.70033  1.0000
  C   C1364     1.0  0.50698  0.11957  0.88694  1.0000
  H   H1080     1.0  0.49836  0.11292  0.76327  1.0000
  C   C1365     1.0  0.55500  0.00085  0.04571  1.0000
  C   C1366     1.0  0.49601  0.02726  0.89026  1.0000
  H   H1081     1.0  0.52965  0.00656  0.87151  1.0000
  H   H1082     1.0  0.52865  0.01448  0.98849  1.0000
  C   C1367     1.0  0.49774  0.12656  0.55994  1.0000
  H   H1083     1.0  0.73900  0.21603  0.35889  1.0000
  C   C1368     1.0  0.49831  0.23818  0.32326  1.0000
  H   H1084     1.0  0.73952  0.16568  0.25900  1.0000
  H   H1085     1.0  0.54696  0.00087  0.95608  1.0000
  H   H1086     1.0  0.56288  0.02794  0.75043  1.0000
  H   H1087     1.0  0.49655  0.07149  0.86558  1.0000
  C   C1369     1.0  0.49760  0.00259  0.14415  1.0000
  C   C1370     1.0  0.74022  0.17460  0.31909  1.0000
  C   C1371     1.0  0.49461  0.04110  0.42258  1.0000
  C   C1372     1.0  0.50488  0.00321  0.89982  1.0000
  H   H1088     1.0  0.63348  0.22987  0.46710  1.0000
  C   C1373     1.0  0.74393  0.16520  0.28871  1.0000
  H   H1089     1.0  0.71339  0.30964  0.06211  1.0000
  S   S186      1.0  0.56001  0.46412  0.64534  1.0000
  H   H1090     1.0  0.58103  0.47105  0.71649  1.0000
  H   H1091     1.0  0.53138  0.47724  0.95654  1.0000
  H   H1092     1.0  0.62849  0.45819  0.11235  1.0000
  Fe  Fe94      1.0  0.53914  0.34857  0.30735  1.0000
  S   S187      1.0  0.52797  0.33089  0.36570  1.0000
  S   S188      1.0  0.56573  0.36383  0.27987  1.0000
  Fe  Fe95      1.0  0.50521  0.34520  0.28076  1.0000
  H   H1093     1.0  0.71849  0.27687  0.16361  1.0000
  C   C1374     1.0  0.73253  0.25246  0.25724  1.0000
  Fe  Fe96      1.0  0.50934  0.34432  0.37325  1.0000
  H   H1094     1.0  0.49737  0.41102  0.10059  1.0000
  Fe  Fe97      1.0  0.51063  0.31483  0.32651  1.0000
  C   C1375     1.0  0.57029  0.48861  0.73962  1.0000
  S   S189      1.0  0.52182  0.36287  0.31768  1.0000
  S   S190      1.0  0.52331  0.33169  0.26713  1.0000
  S   S191      1.0  0.50550  0.35374  0.43542  1.0000
  C   C1376     1.0  0.64332  0.48771  0.47927  1.0000
  C   C1377     1.0  0.50844  0.46507  0.93368  1.0000
  Fe  Fe98      1.0  0.67718  0.45987  0.30942  1.0000
  S   S192      1.0  0.65688  0.45552  0.36320  1.0000
  S   S193      1.0  0.70171  0.45860  0.33007  1.0000
  Fe  Fe99      1.0  0.65274  0.46043  0.24702  1.0000
  S   S194      1.0  0.63131  0.45632  0.29683  1.0000
  S   S195      1.0  0.64760  0.45994  0.18013  1.0000
  Fe  Fe100     1.0  0.64958  0.47494  0.32800  1.0000
  C   C1378     1.0  0.56201  0.48976  0.37569  1.0000
  Fe  Fe101     1.0  0.64020  0.43715  0.32796  1.0000
  S   S196      1.0  0.62252  0.41277  0.36378  1.0000
  H   H1095     1.0  0.65016  0.46647  0.64859  1.0000
  S   S197      1.0  0.66074  0.43993  0.27660  1.0000
  H   H1096     1.0  0.63096  0.48081  0.62758  1.0000
  H   H1097     1.0  0.58920  0.43018  0.92530  1.0000
  H   H1098     1.0  0.60468  0.47941  0.46706  1.0000
  C   C1379     1.0  0.72523  0.47980  0.45215  1.0000
  C   C1380     1.0  0.73120  0.47996  0.28259  1.0000
  C   C1381     1.0  0.72376  0.46781  0.31668  1.0000
  C   C1382     1.0  0.73413  0.46228  0.34057  1.0000
  C   C1383     1.0  0.72461  0.30686  0.06601  1.0000
  C   C1384     1.0  0.50519  0.45391  0.14887  1.0000
  C   C1385     1.0  0.55162  0.39878  0.64493  1.0000
  H   H1099     1.0  0.72859  0.45292  0.36705  1.0000
  C   C1386     1.0  0.70498  0.43634  0.18783  1.0000
  C   C1387     1.0  0.58018  0.37808  0.30546  1.0000
  C   C1388     1.0  0.58118  0.37501  0.34763  1.0000
  C   C1389     1.0  0.59401  0.38591  0.36554  1.0000
  C   C1390     1.0  0.60584  0.39995  0.34148  1.0000
  C   C1391     1.0  0.60437  0.40337  0.29993  1.0000
  C   C1392     1.0  0.59159  0.39250  0.28209  1.0000
  H   H1100     1.0  0.57245  0.36395  0.36601  1.0000
  H   H1101     1.0  0.59500  0.38321  0.39784  1.0000
  H   H1102     1.0  0.61341  0.41415  0.28127  1.0000
  H   H1103     1.0  0.59071  0.39517  0.24979  1.0000
  C   C1393     1.0  0.51004  0.45938  0.74633  1.0000
  S   S198      1.0  0.50250  0.45828  0.53773  1.0000
  C   C1394     1.0  0.67111  0.44791  0.45471  1.0000
  C   C1395     1.0  0.72984  0.30653  0.10502  1.0000
  C   C1396     1.0  0.51460  0.27023  0.28045  1.0000
  H   H1104     1.0  0.71559  0.46947  0.47081  1.0000
  H   H1105     1.0  0.61221  0.45158  0.20285  1.0000
  H   H1106     1.0  0.52105  0.28248  0.26395  1.0000
  C   C1397     1.0  0.66805  0.45565  0.52368  1.0000
  H   H1107     1.0  0.53270  0.48532  0.67518  1.0000
  C   C1398     1.0  0.64458  0.48604  0.43672  1.0000
  C   C1399     1.0  0.49801  0.44981  0.72459  1.0000
  H   H1108     1.0  0.54612  0.49667  0.15320  1.0000
  C   C1400     1.0  0.54347  0.46323  0.61790  1.0000
  C   C1401     1.0  0.52850  0.45007  0.62818  1.0000
  C   C1402     1.0  0.51560  0.44885  0.60445  1.0000
  C   C1403     1.0  0.51788  0.46054  0.56980  1.0000
  C   C1404     1.0  0.53274  0.47386  0.56012  1.0000
  C   C1405     1.0  0.54533  0.47545  0.58484  1.0000
  H   H1109     1.0  0.52694  0.44083  0.65433  1.0000
  C   C1406     1.0  0.50507  0.26865  0.31891  1.0000
  H   H1110     1.0  0.53458  0.48294  0.53350  1.0000
  H   H1111     1.0  0.50518  0.37416  0.49950  1.0000
  C   C1407     1.0  0.53581  0.45852  0.03249  1.0000
  C   C1408     1.0  0.54737  0.45362  0.00823  1.0000
  C   C1409     1.0  0.54203  0.43996  0.98612  1.0000
  C   C1410     1.0  0.52507  0.43155  0.98693  1.0000
  C   C1411     1.0  0.51351  0.43695  0.00978  1.0000
  C   C1412     1.0  0.51885  0.45013  0.03340  1.0000
  C   C1413     1.0  0.59293  0.47240  0.26327  1.0000
  H   H1112     1.0  0.55103  0.43601  0.96817  1.0000
  C   C1414     1.0  0.50526  0.46634  0.78054  1.0000
  H   H1113     1.0  0.50983  0.45411  0.05127  1.0000
  C   C1415     1.0  0.72176  0.29027  0.27348  1.0000
  C   C1416     1.0  0.53903  0.42160  0.14479  1.0000
  H   H1114     1.0  0.61098  0.47975  0.20790  1.0000
  H   H1115     1.0  0.72755  0.26007  0.37183  1.0000
  H   H1116     1.0  0.66798  0.43873  0.43325  1.0000
  H   H1117     1.0  0.51886  0.49074  0.61562  1.0000
  H   H1118     1.0  0.52320  0.25740  0.23356  1.0000
  H   H1119     1.0  0.73404  0.25039  0.22518  1.0000
  H   H1120     1.0  0.58328  0.44214  0.65355  1.0000
  C   C1417     1.0  0.70749  0.27801  0.26563  1.0000
  C   C1418     1.0  0.51815  0.27947  0.14678  1.0000
  C   C1419     1.0  0.52024  0.38237  0.57140  1.0000
  C   C1420     1.0  0.52890  0.39948  0.56268  1.0000
  C   C1421     1.0  0.52552  0.41044  0.58878  1.0000
  C   C1422     1.0  0.51359  0.40428  0.62381  1.0000
  H   H1121     1.0  0.74279  0.46662  0.44962  1.0000
  C   C1423     1.0  0.53464  0.30568  0.18900  1.0000
  H   H1122     1.0  0.52306  0.46138  0.73659  1.0000
  C   C1424     1.0  0.50404  0.35545  0.69711  1.0000
  H   H1123     1.0  0.51057  0.30683  0.20947  1.0000
  C   C1425     1.0  0.73388  0.30365  0.03203  1.0000
  C   C1426     1.0  0.53793  0.41670  0.10524  1.0000
  P   P47       1.0  0.59151  0.49298  0.26576  1.0000
  C   C1427     1.0  0.61474  0.45943  0.60476  1.0000
  H   H1124     1.0  0.54238  0.27817  0.12745  1.0000
  C   C1428     1.0  0.67974  0.47143  0.51007  1.0000
  S   S199      1.0  0.58982  0.48680  0.01252  1.0000
  H   H1125     1.0  0.53808  0.40423  0.53540  1.0000
  H   H1126     1.0  0.53199  0.42372  0.58183  1.0000
  C   C1429     1.0  0.50094  0.45488  0.90508  1.0000
  C   C1430     1.0  0.50976  0.41860  0.15330  1.0000
  H   H1127     1.0  0.52308  0.37419  0.55059  1.0000
  H   H1128     1.0  0.69761  0.27159  0.29073  1.0000
  Fe  Fe102     1.0  0.57972  0.48879  0.62368  1.0000
  H   H1129     1.0  0.72983  0.30393  0.00180  1.0000
  H   H1130     1.0  0.54197  0.41415  0.88214  1.0000
  H   H1131     1.0  0.61259  0.46710  0.39000  1.0000
  C   C1431     1.0  0.56200  0.38258  0.49239  1.0000
  C   C1432     1.0  0.55483  0.36689  0.48003  1.0000
  C   C1433     1.0  0.54653  0.36538  0.44537  1.0000
  C   C1434     1.0  0.54538  0.37953  0.42295  1.0000
  C   C1435     1.0  0.55304  0.39538  0.43426  1.0000
  C   C1436     1.0  0.56108  0.39678  0.46968  1.0000
  P   P48       1.0  0.55118  0.41374  0.40682  1.0000
  C   C1437     1.0  0.54752  0.41178  0.35381  1.0000
  C   C1438     1.0  0.53410  0.41769  0.43567  1.0000
  C   C1439     1.0  0.51786  0.40998  0.42751  1.0000
  H   H1132     1.0  0.51500  0.47916  0.11900  1.0000
  C   C1440     1.0  0.50745  0.42418  0.47910  1.0000
  C   C1441     1.0  0.52349  0.43133  0.48862  1.0000
  C   C1442     1.0  0.53678  0.42800  0.46721  1.0000
  C   C1443     1.0  0.53918  0.42139  0.33445  1.0000
  C   C1444     1.0  0.53695  0.42049  0.29287  1.0000
  C   C1445     1.0  0.54319  0.41017  0.27016  1.0000
  C   C1446     1.0  0.55199  0.40108  0.28875  1.0000
  C   C1447     1.0  0.55422  0.40192  0.33033  1.0000
  C   C1448     1.0  0.57055  0.43068  0.40317  1.0000
  C   C1449     1.0  0.58563  0.42748  0.39885  1.0000
  C   C1450     1.0  0.60070  0.44062  0.39454  1.0000
  C   C1451     1.0  0.60087  0.45698  0.39368  1.0000
  C   C1452     1.0  0.58598  0.46029  0.39708  1.0000
  C   C1453     1.0  0.57083  0.44723  0.40161  1.0000
  H   H1133     1.0  0.56829  0.38372  0.51947  1.0000
  H   H1134     1.0  0.55554  0.35585  0.49744  1.0000
  H   H1135     1.0  0.54063  0.35320  0.43617  1.0000
  H   H1136     1.0  0.53829  0.37794  0.39723  1.0000
  H   H1137     1.0  0.56664  0.40885  0.47974  1.0000
  H   H1138     1.0  0.51535  0.40110  0.40518  1.0000
  C   C1454     1.0  0.71504  0.43074  0.16047  1.0000
  H   H1139     1.0  0.52550  0.43936  0.51284  1.0000
  H   H1140     1.0  0.54908  0.43337  0.47541  1.0000
  H   H1141     1.0  0.53443  0.42959  0.35139  1.0000
  H   H1142     1.0  0.53021  0.42763  0.27836  1.0000
  H   H1143     1.0  0.54116  0.40908  0.23825  1.0000
  H   H1144     1.0  0.55689  0.39316  0.27105  1.0000
  H   H1145     1.0  0.56130  0.39500  0.34396  1.0000
  H   H1146     1.0  0.58584  0.41490  0.39811  1.0000
  H   H1147     1.0  0.61234  0.43820  0.39127  1.0000
  C   C1455     1.0  0.56532  0.42039  0.90470  1.0000
  H   H1148     1.0  0.60242  0.37806  0.55736  1.0000
  H   H1149     1.0  0.55944  0.45010  0.40326  1.0000
  H   H1150     1.0  0.61274  0.45947  0.51146  1.0000
  C   C1456     1.0  0.56325  0.46020  0.77118  1.0000
  H   H1151     1.0  0.62482  0.49424  0.28044  1.0000
  Fe  Fe103     1.0  0.56687  0.49330  0.02829  1.0000
  H   H1152     1.0  0.56520  0.44829  0.77168  1.0000
  H   H1153     1.0  0.53939  0.40124  0.70369  1.0000
  C   C1457     1.0  0.66369  0.44391  0.49597  1.0000
  H   H1154     1.0  0.56309  0.40772  0.91817  1.0000
  C   C1458     1.0  0.52556  0.46964  0.93375  1.0000
  C   C1459     1.0  0.58432  0.49546  0.31825  1.0000
  H   H1155     1.0  0.68813  0.46666  0.40867  1.0000
  H   H1156     1.0  0.56988  0.48767  0.13155  1.0000
  H   H1157     1.0  0.65005  0.47728  0.42499  1.0000
  H   H1158     1.0  0.57514  0.46053  0.31783  1.0000
  C   C1460     1.0  0.63988  0.47460  0.15550  1.0000
  H   H1159     1.0  0.54832  0.46717  0.90724  1.0000
  C   C1461     1.0  0.62409  0.48163  0.10295  1.0000
  C   C1462     1.0  0.58334  0.45892  0.29265  1.0000
  C   C1463     1.0  0.60407  0.45364  0.22775  1.0000
  H   H1160     1.0  0.65465  0.43167  0.50643  1.0000
  H   H1161     1.0  0.51075  0.41273  0.64388  1.0000
  C   C1464     1.0  0.71071  0.44253  0.22359  1.0000
  H   H1162     1.0  0.57549  0.47864  0.47382  1.0000
  H   H1163     1.0  0.54913  0.48362  0.38886  1.0000
  C   C1465     1.0  0.58437  0.44305  0.28987  1.0000
  C   C1466     1.0  0.53541  0.28452  0.14496  1.0000
  H   H1164     1.0  0.51487  0.41413  0.87747  1.0000
  C   C1467     1.0  0.59983  0.45867  0.51415  1.0000
  H   H1165     1.0  0.57752  0.43285  0.31333  1.0000
  H   H1166     1.0  0.59527  0.42806  0.25499  1.0000
  H   H1167     1.0  0.51137  0.49351  0.85481  1.0000
  C   C1468     1.0  0.52282  0.41273  0.08969  1.0000
  P   P49       1.0  0.59364  0.43173  0.57504  1.0000
  H   H1168     1.0  0.50045  0.43122  0.00879  1.0000
  H   H1169     1.0  0.49479  0.25157  0.20567  1.0000
  C   C1469     1.0  0.63945  0.45981  0.63460  1.0000
  S   S200      1.0  0.67067  0.48063  0.27561  1.0000
  C   C1470     1.0  0.49743  0.39738  0.29277  1.0000
  H   H1170     1.0  0.55075  0.42466  0.15677  1.0000
  H   H1171     1.0  0.60817  0.41042  0.44529  1.0000
  H   H1172     1.0  0.61702  0.47822  0.07769  1.0000
  S   S201      1.0  0.54242  0.47558  0.06024  1.0000
  C   C1471     1.0  0.54983  0.40690  0.67950  1.0000
  H   H1173     1.0  0.60648  0.46602  0.59615  1.0000
  C   C1472     1.0  0.62701  0.49744  0.11557  1.0000
  H   H1174     1.0  0.69276  0.43596  0.18131  1.0000
  H   H1175     1.0  0.70299  0.44696  0.24485  1.0000
  C   C1473     1.0  0.57478  0.42985  0.65116  1.0000
  H   H1176     1.0  0.53558  0.43926  0.75417  1.0000
  C   C1474     1.0  0.53513  0.46372  0.90593  1.0000
  H   H1177     1.0  0.50191  0.39532  0.22814  1.0000
  S   S202      1.0  0.51850  0.41411  0.96026  1.0000
  C   C1475     1.0  0.68677  0.47577  0.46821  1.0000
  C   C1476     1.0  0.59532  0.47002  0.48893  1.0000
  C   C1477     1.0  0.58778  0.44654  0.54290  1.0000
  H   H1178     1.0  0.71060  0.42602  0.13265  1.0000
  H   H1179     1.0  0.56566  0.40003  0.58601  1.0000
  C   C1478     1.0  0.62270  0.43471  0.60991  1.0000
  C   C1479     1.0  0.63064  0.47032  0.12260  1.0000
  C   C1480     1.0  0.71941  0.28108  0.19380  1.0000
  H   H1180     1.0  0.49817  0.32349  0.05263  1.0000
  C   C1481     1.0  0.60565  0.39293  0.49871  1.0000
  C   C1482     1.0  0.60075  0.37931  0.02361  1.0000
  C   C1483     1.0  0.61380  0.39181  0.99868  1.0000
  C   C1484     1.0  0.61943  0.40784  0.01031  1.0000
  C   C1485     1.0  0.61190  0.41142  0.04664  1.0000
  C   C1486     1.0  0.59844  0.39906  0.07113  1.0000
  C   C1487     1.0  0.59319  0.38286  0.05997  1.0000
  P   P50       1.0  0.58943  0.40361  0.11899  1.0000
  C   C1488     1.0  0.56842  0.38964  0.13435  1.0000
  C   C1489     1.0  0.60308  0.40160  0.15584  1.0000
  C   C1490     1.0  0.60204  0.38568  0.17354  1.0000
  C   C1491     1.0  0.61308  0.38387  0.20055  1.0000
  C   C1492     1.0  0.62538  0.39790  0.20963  1.0000
  C   C1493     1.0  0.62674  0.41374  0.19140  1.0000
  C   C1494     1.0  0.61574  0.41562  0.16431  1.0000
  C   C1495     1.0  0.55755  0.38573  0.10465  1.0000
  C   C1496     1.0  0.54110  0.37529  0.11643  1.0000
  C   C1497     1.0  0.53541  0.36878  0.15789  1.0000
  C   C1498     1.0  0.54600  0.37302  0.18777  1.0000
  C   C1499     1.0  0.56242  0.38351  0.17616  1.0000
  C   C1500     1.0  0.58731  0.42392  0.11212  1.0000
  C   C1501     1.0  0.58487  0.43038  0.07337  1.0000
  C   C1502     1.0  0.58211  0.44560  0.06853  1.0000
  C   C1503     1.0  0.58157  0.45443  0.10235  1.0000
  C   C1504     1.0  0.58371  0.44797  0.14117  1.0000
  C   C1505     1.0  0.58641  0.43267  0.14619  1.0000
  H   H1181     1.0  0.59660  0.36680  0.01500  1.0000
  H   H1182     1.0  0.61972  0.38903  0.97065  1.0000
  H   H1183     1.0  0.62975  0.41747  0.99142  1.0000
  H   H1184     1.0  0.61664  0.42381  0.05574  1.0000
  H   H1185     1.0  0.58338  0.37292  0.07945  1.0000
  H   H1186     1.0  0.59260  0.37464  0.16685  1.0000
  H   H1187     1.0  0.61186  0.37160  0.21518  1.0000
  H   H1188     1.0  0.63374  0.39653  0.23120  1.0000
  H   H1189     1.0  0.63639  0.42458  0.19828  1.0000
  H   H1190     1.0  0.61736  0.42800  0.14978  1.0000
  H   H1191     1.0  0.56172  0.39081  0.07243  1.0000
  H   H1192     1.0  0.53269  0.37229  0.09356  1.0000
  H   H1193     1.0  0.52275  0.36052  0.16694  1.0000
  H   H1194     1.0  0.54145  0.36811  0.22003  1.0000
  H   H1195     1.0  0.57033  0.38673  0.19995  1.0000
  H   H1196     1.0  0.58481  0.42359  0.04689  1.0000
  H   H1197     1.0  0.58028  0.45050  0.03851  1.0000
  H   H1198     1.0  0.57945  0.46625  0.09841  1.0000
  H   H1199     1.0  0.58311  0.45478  0.16734  1.0000
  H   H1200     1.0  0.58759  0.42756  0.17664  1.0000
  C   C1506     1.0  0.50051  0.35209  0.74028  1.0000
  C   C1507     1.0  0.55488  0.49640  0.17457  1.0000
  H   H1201     1.0  0.52617  0.42688  0.19880  1.0000
  H   H1202     1.0  0.50095  0.46899  0.95667  1.0000
  C   C1508     1.0  0.51585  0.25592  0.26343  1.0000
  H   H1203     1.0  0.53101  0.31802  0.61582  1.0000
  C   C1509     1.0  0.50464  0.41348  0.44866  1.0000
  H   H1204     1.0  0.64488  0.43691  0.63758  1.0000
  H   H1205     1.0  0.64987  0.49385  0.19327  1.0000
  C   C1510     1.0  0.72903  0.25804  0.33969  1.0000
  C   C1511     1.0  0.57122  0.44606  0.54617  1.0000
  H   H1206     1.0  0.59384  0.45929  0.89593  1.0000
  H   H1207     1.0  0.56044  0.46026  0.00668  1.0000
  C   C1512     1.0  0.56491  0.40623  0.61326  1.0000
  H   H1208     1.0  0.58630  0.47304  0.39608  1.0000
  H   H1209     1.0  0.51651  0.45153  0.13865  1.0000
  C   C1513     1.0  0.73085  0.43133  0.16888  1.0000
  C   C1514     1.0  0.68253  0.46379  0.44081  1.0000
  C   C1515     1.0  0.73661  0.43743  0.20496  1.0000
  C   C1516     1.0  0.74066  0.47812  0.44025  1.0000
  C   C1517     1.0  0.50441  0.46974  0.13764  1.0000
  C   C1518     1.0  0.59835  0.40134  0.56487  1.0000
  C   C1519     1.0  0.57057  0.45318  0.87174  1.0000
  C   C1520     1.0  0.56681  0.45753  0.52106  1.0000
  H   H1210     1.0  0.51530  0.33410  0.64945  1.0000
  H   H1211     1.0  0.50160  0.44418  0.69835  1.0000
  H   H1212     1.0  0.69559  0.26328  0.22036  1.0000
  C   C1521     1.0  0.52477  0.32461  0.59743  1.0000
  S   S203      1.0  0.50258  0.28621  0.34176  1.0000
  H   H1213     1.0  0.55698  0.30131  0.16535  1.0000
  C   C1522     1.0  0.57681  0.42167  0.61656  1.0000
  C   C1523     1.0  0.55010  0.47851  0.80127  1.0000
  C   C1524     1.0  0.55171  0.46268  0.80131  1.0000
  H   H1214     1.0  0.55412  0.45738  0.52445  1.0000
  H   H1215     1.0  0.72350  0.48437  0.26375  1.0000
  H   H1216     1.0  0.51625  0.36358  0.68308  1.0000
  C   C1525     1.0  0.52503  0.42269  0.16866  1.0000
  H   H1217     1.0  0.52192  0.40896  0.05895  1.0000
  H   H1218     1.0  0.50403  0.43871  0.61273  1.0000
  C   C1526     1.0  0.63648  0.44320  0.62825  1.0000
  H   H1219     1.0  0.51768  0.33135  0.49810  1.0000
  C   C1527     1.0  0.50838  0.34120  0.55000  1.0000
  C   C1528     1.0  0.62858  0.46788  0.62292  1.0000
  C   C1529     1.0  0.51048  0.44900  0.87697  1.0000
  H   H1220     1.0  0.53225  0.31650  0.54017  1.0000
  H   H1221     1.0  0.54197  0.48106  0.82520  1.0000
  H   H1222     1.0  0.54248  0.38690  0.64218  1.0000
  C   C1530     1.0  0.57996  0.43302  0.90890  1.0000
  C   C1531     1.0  0.55575  0.44058  0.86738  1.0000
  C   C1532     1.0  0.60213  0.38965  0.54183  1.0000
  H   H1223     1.0  0.54878  0.41610  0.08640  1.0000
  C   C1533     1.0  0.52765  0.45320  0.87757  1.0000
  C   C1534     1.0  0.64269  0.49036  0.16822  1.0000
  C   C1535     1.0  0.60338  0.46961  0.23088  1.0000
  C   C1536     1.0  0.57884  0.46949  0.49244  1.0000
  H   H1224     1.0  0.72265  0.30924  0.13100  1.0000
  H   H1225     1.0  0.50358  0.38113  0.15431  1.0000
  C   C1537     1.0  0.59454  0.44036  0.25717  1.0000
  C   C1538     1.0  0.50675  0.40047  0.82735  1.0000
  C   C1539     1.0  0.60165  0.41962  0.50155  1.0000
  C   C1540     1.0  0.70635  0.27335  0.22587  1.0000
  H   H1226     1.0  0.51816  0.41523  0.72526  1.0000
  C   C1541     1.0  0.55328  0.42413  0.88402  1.0000
  H   H1227     1.0  0.68322  0.48013  0.53238  1.0000
  H   H1228     1.0  0.57289  0.46606  0.85972  1.0000
  C   C1542     1.0  0.58257  0.44940  0.89239  1.0000
  C   C1543     1.0  0.57230  0.47305  0.74007  1.0000
  H   H1229     1.0  0.49777  0.46477  0.44143  1.0000
  C   C1544     1.0  0.50782  0.40061  0.78446  1.0000
  C   C1545     1.0  0.51816  0.41475  0.75846  1.0000
  C   C1546     1.0  0.52795  0.42849  0.77527  1.0000
  C   C1547     1.0  0.52736  0.42829  0.81850  1.0000
  C   C1548     1.0  0.51629  0.41430  0.84423  1.0000
  P   P51       1.0  0.54020  0.44583  0.84122  1.0000
  C   C1549     1.0  0.60537  0.40788  0.47869  1.0000
  H   H1230     1.0  0.56174  0.43721  0.56881  1.0000
  C   C1550     1.0  0.59811  0.41647  0.54493  1.0000
  H   H1231     1.0  0.50436  0.44097  0.85542  1.0000
  H   H1232     1.0  0.60167  0.43108  0.48496  1.0000
  H   H1233     1.0  0.59574  0.39863  0.59830  1.0000
  H   H1234     1.0  0.51461  0.47371  0.79734  1.0000
  C   C1551     1.0  0.56132  0.42249  0.68242  1.0000
  H   H1235     1.0  0.60866  0.38396  0.48063  1.0000
  H   H1236     1.0  0.62071  0.42189  0.60542  1.0000
  C   C1552     1.0  0.56761  0.48756  0.33556  1.0000
  C   C1553     1.0  0.61171  0.44277  0.59786  1.0000
  S   S204      1.0  0.60430  0.49651  0.64671  1.0000
  H   H1237     1.0  0.73091  0.40680  0.35198  1.0000
  S   S205      1.0  0.59967  0.49514  0.89271  1.0000
  H   H1238     1.0  0.55969  0.42910  0.70849  1.0000
  H   H1239     1.0  0.72302  0.29328  0.30476  1.0000
  H   H1240     1.0  0.66242  0.45255  0.55575  1.0000
  C   C1554     1.0  0.52550  0.32375  0.55483  1.0000
  C   C1555     1.0  0.51736  0.30057  0.19116  1.0000
  C   C1556     1.0  0.54364  0.29757  0.16622  1.0000
  H   H1241     1.0  0.55893  0.47970  0.31795  1.0000
  H   H1242     1.0  0.64772  0.48009  0.50007  1.0000
  P   P52       1.0  0.49597  0.35413  0.61674  1.0000
  H   H1243     1.0  0.49715  0.42675  0.49578  1.0000
  H   H1244     1.0  0.73181  0.41517  0.27773  1.0000
  H   H1245     1.0  0.73080  0.44812  0.25964  1.0000
  C   C1557     1.0  0.50884  0.41384  0.11346  1.0000
  H   H1246     1.0  0.54101  0.31572  0.20575  1.0000
  C   C1558     1.0  0.72647  0.44314  0.23201  1.0000
  C   C1559     1.0  0.55952  0.49147  0.77068  1.0000
  C   C1560     1.0  0.52900  0.49630  0.67221  1.0000
  C   C1561     1.0  0.50473  0.38725  0.63226  1.0000
  P   P53       1.0  0.70177  0.49614  0.44969  1.0000
  H   H1247     1.0  0.55657  0.48598  0.57757  1.0000
  C   C1562     1.0  0.73372  0.29362  0.20127  1.0000
  H   H1248     1.0  0.50993  0.35760  0.75933  1.0000
  H   H1249     1.0  0.60708  0.48786  0.81059  1.0000
  C   C1563     1.0  0.50160  0.49611  0.46742  1.0000
  C   C1564     1.0  0.49785  0.40225  0.25073  1.0000
  H   H1250     1.0  0.73847  0.42706  0.14721  1.0000
  H   H1251     1.0  0.49809  0.38985  0.84763  1.0000
  H   H1252     1.0  0.74267  0.32901  0.20143  1.0000
  C   C1565     1.0  0.73493  0.29784  0.24164  1.0000
  H   H1253     1.0  0.51201  0.26938  0.12995  1.0000
  H   H1254     1.0  0.50580  0.30440  0.10101  1.0000
  C   C1566     1.0  0.50740  0.34202  0.59286  1.0000
  C   C1567     1.0  0.50791  0.37611  0.60602  1.0000
  S   S206      1.0  0.49819  0.36142  0.23226  1.0000
  C   C1568     1.0  0.49700  0.25250  0.34016  1.0000
  C   C1569     1.0  0.51732  0.33208  0.53114  1.0000
  C   C1570     1.0  0.51580  0.33374  0.61642  1.0000
  H   H1255     1.0  0.50200  0.34738  0.53104  1.0000
  C   C1571     1.0  0.74329  0.26838  0.31302  1.0000
  H   H1256     1.0  0.50111  0.38676  0.30213  1.0000
  H   H1257     1.0  0.49988  0.39016  0.77142  1.0000
  C   C1572     1.0  0.72223  0.49449  0.43888  1.0000
  H   H1258     1.0  0.49517  0.38289  0.65898  1.0000
  S   S207      1.0  0.64088  0.49475  0.35558  1.0000
  H   H1259     1.0  0.71131  0.49202  0.36338  1.0000
  C   C1573     1.0  0.63918  0.49604  0.40945  1.0000
  H   H1260     1.0  0.50961  0.49560  0.40285  1.0000
  C   C1574     1.0  0.57757  0.49518  0.22959  1.0000
  H   H1261     1.0  0.59012  0.48707  0.17871  1.0000
  C   C1575     1.0  0.56828  0.49124  0.16233  1.0000
  C   C1576     1.0  0.57966  0.49076  0.18948  1.0000
  C   C1577     1.0  0.74177  0.41644  0.33514  1.0000
  C   C1578     1.0  0.74229  0.42133  0.29304  1.0000
  C   C1579     1.0  0.50896  0.28726  0.17060  1.0000
  Fe  Fe104     1.0  0.60282  0.50953  0.04115  1.0000
  S   S208      1.0  0.57940  0.51477  0.06080  1.0000
  S   S209      1.0  0.61923  0.51231  0.09229  1.0000
  H   H1262     1.0  0.53239  0.65218  0.89170  1.0000
  S   S210      1.0  0.56928  0.50884  0.96779  1.0000
  C   C1580     1.0  0.53507  0.71454  0.90995  1.0000
  Fe  Fe105     1.0  0.58413  0.52996  0.99913  1.0000
  S   S211      1.0  0.58095  0.55514  0.99526  1.0000
  C   C1581     1.0  0.49635  0.66550  0.47458  1.0000
  S   S212      1.0  0.60869  0.52661  0.98092  1.0000
  H   H1263     1.0  0.59837  0.51487  0.40101  1.0000
  Fe  Fe106     1.0  0.51007  0.57888  0.10584  1.0000
  H   H1264     1.0  0.49787  0.62175  0.62788  1.0000
  S   S213      1.0  0.51613  0.55508  0.10648  1.0000
  H   H1265     1.0  0.60808  0.50228  0.74081  1.0000
  Fe  Fe107     1.0  0.51429  0.61141  0.14196  1.0000
  S   S214      1.0  0.52963  0.63019  0.17917  1.0000
  S   S215      1.0  0.52550  0.60539  0.08235  1.0000
  H   H1266     1.0  0.54232  0.60194  0.15810  1.0000
  Fe  Fe108     1.0  0.58634  0.52195  0.57183  1.0000
  S   S216      1.0  0.61174  0.53282  0.59078  1.0000
  S   S217      1.0  0.57385  0.53309  0.52539  1.0000
  C   C1582     1.0  0.54219  0.67821  0.43213  1.0000
  H   H1267     1.0  0.50649  0.67620  0.45900  1.0000
  Fe  Fe109     1.0  0.59938  0.52032  0.65528  1.0000
  S   S218      1.0  0.60103  0.53257  0.71460  1.0000
  H   H1268     1.0  0.49757  0.51195  0.18726  1.0000
  H   H1269     1.0  0.51499  0.58605  0.39424  1.0000
  C   C1583     1.0  0.58974  0.50735  0.38256  1.0000
  S   S219      1.0  0.63608  0.50179  0.54809  1.0000
  C   C1584     1.0  0.51856  0.54808  0.73841  1.0000
  H   H1270     1.0  0.50231  0.72282  0.95993  1.0000
  H   H1271     1.0  0.51471  0.52295  0.92931  1.0000
  C   C1585     1.0  0.56591  0.54745  0.69304  1.0000
  C   C1586     1.0  0.73501  0.50753  0.41413  1.0000
  S   S220      1.0  0.52791  0.62723  0.37479  1.0000
  Fe  Fe110     1.0  0.51249  0.58200  0.55171  1.0000
  S   S221      1.0  0.52976  0.57514  0.59183  1.0000
  S   S222      1.0  0.51224  0.60797  0.53557  1.0000
  C   C1587     1.0  0.56455  0.50120  0.24088  1.0000
  C   C1588     1.0  0.59218  0.54901  0.28397  1.0000
  H   H1272     1.0  0.56029  0.70145  0.40299  1.0000
  C   C1589     1.0  0.57712  0.55553  0.15513  1.0000
  C   C1590     1.0  0.71637  0.52125  0.49776  1.0000
  H   H1273     1.0  0.62559  0.51795  0.47958  1.0000
  H   H1274     1.0  0.54492  0.53650  0.27941  1.0000
  P   P54       1.0  0.56247  0.55568  0.19875  1.0000
  C   C1591     1.0  0.52150  0.64918  0.55353  1.0000
  H   H1275     1.0  0.51334  0.65200  0.38297  1.0000
  H   H1276     1.0  0.58516  0.53677  0.34655  1.0000
  C   C1592     1.0  0.56143  0.54453  0.54429  1.0000
  C   C1593     1.0  0.56112  0.54843  0.58490  1.0000
  C   C1594     1.0  0.55145  0.55791  0.59895  1.0000
  C   C1595     1.0  0.54175  0.56328  0.57284  1.0000
  C   C1596     1.0  0.54192  0.55919  0.53234  1.0000
  C   C1597     1.0  0.55183  0.54998  0.51802  1.0000
  H   H1277     1.0  0.56863  0.54445  0.60510  1.0000
  H   H1278     1.0  0.55163  0.56129  0.62996  1.0000
  H   H1279     1.0  0.53469  0.56337  0.51173  1.0000
  H   H1280     1.0  0.55215  0.54721  0.48640  1.0000
  C   C1598     1.0  0.52801  0.62811  0.23392  1.0000
  C   C1599     1.0  0.52808  0.54308  0.21901  1.0000
  H   H1281     1.0  0.54853  0.57280  0.74155  1.0000
  C   C1600     1.0  0.52726  0.62662  0.32091  1.0000
  C   C1601     1.0  0.53798  0.64049  0.29453  1.0000
  C   C1602     1.0  0.53836  0.64123  0.25157  1.0000
  C   C1603     1.0  0.50734  0.56849  0.70851  1.0000
  H   H1282     1.0  0.54615  0.65079  0.30744  1.0000
  H   H1283     1.0  0.54680  0.65208  0.23182  1.0000
  C   C1604     1.0  0.50983  0.54317  0.95804  1.0000
  H   H1284     1.0  0.49668  0.69168  0.70075  1.0000
  H   H1285     1.0  0.53879  0.70446  0.89929  1.0000
  C   C1605     1.0  0.58659  0.55373  0.24789  1.0000
  C   C1606     1.0  0.60062  0.52196  0.76394  1.0000
  C   C1607     1.0  0.59630  0.52846  0.79984  1.0000
  C   C1608     1.0  0.59585  0.52035  0.83953  1.0000
  Fe  Fe111     1.0  0.61452  0.50798  0.58063  1.0000
  C   C1609     1.0  0.51638  0.62746  0.45233  1.0000
  H   H1286     1.0  0.59343  0.53988  0.79694  1.0000
  H   H1287     1.0  0.59270  0.52556  0.86692  1.0000
  C   C1610     1.0  0.50438  0.67783  0.86298  1.0000
  C   C1611     1.0  0.68637  0.51169  0.50482  1.0000
  C   C1612     1.0  0.51041  0.68386  0.06054  1.0000
  H   H1288     1.0  0.57826  0.58326  0.24565  1.0000
  H   H1289     1.0  0.51192  0.51668  0.60623  1.0000
  C   C1613     1.0  0.56318  0.55517  0.02713  1.0000
  C   C1614     1.0  0.55061  0.54019  0.04291  1.0000
  C   C1615     1.0  0.53617  0.54037  0.06678  1.0000
  C   C1616     1.0  0.53431  0.55547  0.07563  1.0000
  C   C1617     1.0  0.54692  0.57047  0.06015  1.0000
  C   C1618     1.0  0.56130  0.57032  0.03569  1.0000
  H   H1290     1.0  0.55186  0.52848  0.03586  1.0000
  H   H1291     1.0  0.52633  0.52876  0.07785  1.0000
  H   H1292     1.0  0.54559  0.58217  0.06683  1.0000
  H   H1293     1.0  0.57097  0.58193  0.02331  1.0000
  H   H1294     1.0  0.55977  0.54182  0.78791  1.0000
  H   H1295     1.0  0.58054  0.53284  0.18058  1.0000
  H   H1296     1.0  0.54440  0.57393  0.15462  1.0000
  C   C1619     1.0  0.52381  0.50872  0.50712  1.0000
  C   C1620     1.0  0.62915  0.53535  0.21297  1.0000
  C   C1621     1.0  0.64315  0.53269  0.22615  1.0000
  C   C1622     1.0  0.63225  0.50745  0.42522  1.0000
  C   C1623     1.0  0.56144  0.57640  0.20008  1.0000
  C   C1624     1.0  0.51729  0.55857  0.97216  1.0000
  Fe  Fe112     1.0  0.50263  0.60719  0.05704  1.0000
  H   H1297     1.0  0.54990  0.52931  0.14563  1.0000
  H   H1298     1.0  0.67320  0.52481  0.36124  1.0000
  C   C1625     1.0  0.51733  0.51397  0.63326  1.0000
  H   H1299     1.0  0.65228  0.51570  0.26079  1.0000
  H   H1300     1.0  0.54284  0.50574  0.22313  1.0000
  C   C1626     1.0  0.50985  0.67828  0.90193  1.0000
  H   H1301     1.0  0.60174  0.53330  0.12325  1.0000
  C   C1627     1.0  0.54193  0.54195  0.19418  1.0000
  C   C1628     1.0  0.54222  0.74390  0.91736  1.0000
  H   H1302     1.0  0.60538  0.55262  0.28562  1.0000
  C   C1629     1.0  0.58424  0.54287  0.15537  1.0000
  H   H1303     1.0  0.51582  0.69148  0.08365  1.0000
  C   C1630     1.0  0.55898  0.60824  0.20333  1.0000
  C   C1631     1.0  0.56949  0.54918  0.24547  1.0000
  C   C1632     1.0  0.53956  0.53002  0.16640  1.0000
  C   C1633     1.0  0.55015  0.59773  0.17703  1.0000
  C   C1634     1.0  0.63076  0.50895  0.46784  1.0000
  S   S223      1.0  0.50393  0.61797  0.99039  1.0000
  H   H1304     1.0  0.63889  0.51400  0.15756  1.0000
  H   H1305     1.0  0.63050  0.54672  0.19344  1.0000
  H   H1306     1.0  0.65531  0.54202  0.21708  1.0000
  C   C1635     1.0  0.68568  0.51251  0.39975  1.0000
  H   H1307     1.0  0.54613  0.68009  0.46214  1.0000
  H   H1308     1.0  0.50987  0.50828  0.78756  1.0000
  P   P55       1.0  0.51857  0.64775  0.46930  1.0000
  H   H1309     1.0  0.49815  0.62982  0.91062  1.0000
  H   H1310     1.0  0.56114  0.52661  0.85357  1.0000
  C   C1636     1.0  0.53553  0.51123  0.47218  1.0000
  H   H1311     1.0  0.55132  0.69818  0.33363  1.0000
  C   C1637     1.0  0.53622  0.50928  0.85865  1.0000
  H   H1312     1.0  0.70048  0.54207  0.56593  1.0000
  C   C1638     1.0  0.58183  0.56808  0.12125  1.0000
  H   H1313     1.0  0.57586  0.61112  0.24836  1.0000
  C   C1639     1.0  0.55012  0.69054  0.39870  1.0000
  H   H1314     1.0  0.52959  0.55256  0.23970  1.0000
  C   C1640     1.0  0.56908  0.60292  0.22793  1.0000
  C   C1641     1.0  0.51463  0.72489  0.94394  1.0000
  Fe  Fe113     1.0  0.50815  0.60200  0.46762  1.0000
  C   C1642     1.0  0.59367  0.56807  0.08854  1.0000
  H   H1315     1.0  0.59740  0.58464  0.67513  1.0000
  H   H1316     1.0  0.56349  0.53469  0.68712  1.0000
  C   C1643     1.0  0.51889  0.71157  0.92962  1.0000
  H   H1317     1.0  0.50851  0.60247  0.32339  1.0000
  H   H1318     1.0  0.52375  0.65004  0.61830  1.0000
  H   H1319     1.0  0.50825  0.64666  0.55890  1.0000
  C   C1644     1.0  0.51510  0.59655  0.41064  1.0000
  C   C1645     1.0  0.55308  0.50148  0.21378  1.0000
  C   C1646     1.0  0.61347  0.52322  0.22433  1.0000
  C   C1647     1.0  0.70154  0.51076  0.48664  1.0000
  H   H1320     1.0  0.54861  0.51706  0.47426  1.0000
  H   H1321     1.0  0.57630  0.57777  0.11954  1.0000
  C   C1648     1.0  0.52025  0.66919  0.91175  1.0000
  C   C1649     1.0  0.54502  0.68878  0.35969  1.0000
  S   S224      1.0  0.50949  0.57544  0.48799  1.0000
  C   C1650     1.0  0.51216  0.53219  0.21679  1.0000
  H   H1322     1.0  0.50844  0.67542  0.65524  1.0000
  H   H1323     1.0  0.59695  0.57748  0.06182  1.0000
  H   H1324     1.0  0.55498  0.52868  0.34306  1.0000
  C   C1651     1.0  0.51881  0.65874  0.84519  1.0000
  H   H1325     1.0  0.55909  0.73291  0.88825  1.0000
  C   C1652     1.0  0.52470  0.65947  0.88346  1.0000
  C   C1653     1.0  0.50410  0.66653  0.07000  1.0000
  C   C1654     1.0  0.57323  0.58049  0.70904  1.0000
  H   H1326     1.0  0.50919  0.60382  0.24662  1.0000
  H   H1327     1.0  0.67974  0.51519  0.42768  1.0000
  C   C1655     1.0  0.49673  0.66410  0.00087  1.0000
  H   H1328     1.0  0.50156  0.53341  0.23545  1.0000
  C   C1656     1.0  0.60087  0.55558  0.08936  1.0000
  H   H1329     1.0  0.60280  0.52554  0.21397  1.0000
  C   C1657     1.0  0.52099  0.51254  0.80209  1.0000
  P   P56       1.0  0.53343  0.53713  0.73378  1.0000
  C   C1658     1.0  0.52830  0.52222  0.69675  1.0000
  C   C1659     1.0  0.53244  0.50762  0.70130  1.0000
  H   H1330     1.0  0.54017  0.57814  0.97571  1.0000
  H   H1331     1.0  0.52483  0.66944  0.94135  1.0000
  H   H1332     1.0  0.52774  0.67339  0.32410  1.0000
  C   C1660     1.0  0.52081  0.52534  0.66217  1.0000
  C   C1661     1.0  0.51865  0.55988  0.70572  1.0000
  H   H1333     1.0  0.70511  0.50244  0.29723  1.0000
  Fe  Fe114     1.0  0.59342  0.50421  0.95365  1.0000
  C   C1662     1.0  0.52362  0.51902  0.16455  1.0000
  H   H1334     1.0  0.72828  0.52082  0.48471  1.0000
  C   C1663     1.0  0.51005  0.69133  0.02107  1.0000
  H   H1335     1.0  0.51801  0.53667  0.65643  1.0000
  C   C1664     1.0  0.52926  0.66382  0.42655  1.0000
  C   C1665     1.0  0.60454  0.50731  0.76811  1.0000
  H   H1336     1.0  0.52765  0.56265  0.67805  1.0000
  C   C1666     1.0  0.57036  0.58708  0.22630  1.0000
  C   C1667     1.0  0.55753  0.56883  0.72354  1.0000
  C   C1668     1.0  0.55813  0.53998  0.27999  1.0000
  C   C1669     1.0  0.53451  0.52638  0.78298  1.0000
  H   H1337     1.0  0.62817  0.51532  0.40431  1.0000
  C   C1670     1.0  0.56378  0.53545  0.31622  1.0000
  C   C1671     1.0  0.51682  0.61330  0.30355  1.0000
  C   C1672     1.0  0.49616  0.55438  0.77771  1.0000
  H   H1338     1.0  0.73290  0.51888  0.40300  1.0000
  C   C1673     1.0  0.52181  0.50413  0.83999  1.0000
  C   C1674     1.0  0.52372  0.66261  0.38772  1.0000
  H   H1339     1.0  0.52199  0.65096  0.82357  1.0000
  C   C1675     1.0  0.55365  0.55227  0.71494  1.0000
  C   C1676     1.0  0.68914  0.51474  0.32489  1.0000
  H   H1340     1.0  0.68606  0.51892  0.29561  1.0000
  C   C1677     1.0  0.54896  0.53142  0.80202  1.0000
  C   C1678     1.0  0.69983  0.50546  0.32579  1.0000
  H   H1341     1.0  0.72745  0.54059  0.53458  1.0000
  H   H1342     1.0  0.51527  0.70473  0.01434  1.0000
  C   C1679     1.0  0.58079  0.53998  0.31822  1.0000
  H   H1343     1.0  0.57615  0.59326  0.71551  1.0000
  H   H1344     1.0  0.50364  0.63946  0.68507  1.0000
  H   H1345     1.0  0.59563  0.56113  0.22204  1.0000
  C   C1680     1.0  0.52995  0.60504  0.43198  1.0000
  C   C1681     1.0  0.53058  0.62041  0.45259  1.0000
  C   C1682     1.0  0.68197  0.51814  0.36186  1.0000
  H   H1346     1.0  0.67415  0.52349  0.54690  1.0000
  C   C1683     1.0  0.52980  0.65025  0.51348  1.0000
  H   H1347     1.0  0.55788  0.56406  0.94067  1.0000
  H   H1348     1.0  0.52188  0.51002  0.14258  1.0000
  C   C1684     1.0  0.54728  0.65371  0.58198  1.0000
  C   C1685     1.0  0.55563  0.65475  0.54235  1.0000
  C   C1686     1.0  0.54696  0.65307  0.50825  1.0000
  C   C1687     1.0  0.53024  0.65097  0.58752  1.0000
  H   H1349     1.0  0.59092  0.55538  0.66120  1.0000
  C   C1688     1.0  0.58154  0.55916  0.67840  1.0000
  H   H1350     1.0  0.50733  0.53707  0.80115  1.0000
  C   C1689     1.0  0.50093  0.60338  0.41058  1.0000
  C   C1690     1.0  0.50870  0.66795  0.83492  1.0000
  H   H1351     1.0  0.54038  0.60056  0.43082  1.0000
  H   H1352     1.0  0.54161  0.62663  0.46558  1.0000
  H   H1353     1.0  0.50471  0.66070  0.10026  1.0000
  C   C1691     1.0  0.54666  0.73067  0.90371  1.0000
  H   H1354     1.0  0.55398  0.65489  0.60844  1.0000
  H   H1355     1.0  0.56883  0.65676  0.53807  1.0000
  H   H1356     1.0  0.55366  0.65397  0.47772  1.0000
  C   C1692     1.0  0.64148  0.51785  0.25046  1.0000
  H   H1357     1.0  0.54514  0.53632  0.91892  1.0000
  C   C1693     1.0  0.57303  0.49980  0.39903  1.0000
  C   C1694     1.0  0.53725  0.54265  0.93271  1.0000
  C   C1695     1.0  0.54448  0.55831  0.94510  1.0000
  C   C1696     1.0  0.53450  0.56624  0.96489  1.0000
  C   C1697     1.0  0.53173  0.67487  0.35431  1.0000
  S   S225      1.0  0.57387  0.51165  0.63635  1.0000
  C   C1698     1.0  0.51998  0.53510  0.93898  1.0000
  C   C1699     1.0  0.59625  0.54307  0.12296  1.0000
  H   H1358     1.0  0.60974  0.55538  0.06344  1.0000
  H   H1359     1.0  0.55796  0.62051  0.20461  1.0000
  C   C1700     1.0  0.50993  0.52012  0.18966  1.0000
  C   C1701     1.0  0.50731  0.54554  0.77474  1.0000
  C   C1702     1.0  0.51720  0.61405  0.25999  1.0000
  C   C1703     1.0  0.58520  0.57566  0.68631  1.0000
  H   H1360     1.0  0.56874  0.50161  0.43010  1.0000
  C   C1704     1.0  0.55135  0.58188  0.17530  1.0000
  C   C1705     1.0  0.54981  0.52282  0.83951  1.0000
  S   S226      1.0  0.50092  0.58479  0.16732  1.0000
  P   P57       1.0  0.50391  0.69074  0.93857  1.0000
  C   C1706     1.0  0.49856  0.65003  0.48346  1.0000
  H   H1361     1.0  0.49461  0.66466  0.59554  1.0000
  C   C1707     1.0  0.49609  0.56576  0.74450  1.0000
  C   C1708     1.0  0.50331  0.68147  0.99075  1.0000
  C   C1709     1.0  0.59977  0.50569  0.84361  1.0000
  C   C1710     1.0  0.70080  0.53334  0.54394  1.0000
  H   H1362     1.0  0.53874  0.50513  0.72662  1.0000
  C   C1711     1.0  0.59539  0.50519  0.34244  1.0000
  C   C1712     1.0  0.62587  0.50564  0.26145  1.0000
  H   H1363     1.0  0.50990  0.56468  0.98916  1.0000
  H   H1364     1.0  0.50241  0.53442  0.04321  1.0000
  C   C1713     1.0  0.50164  0.61884  0.43114  1.0000
  C   C1714     1.0  0.61175  0.50823  0.24844  1.0000
  C   C1715     1.0  0.68599  0.52291  0.53325  1.0000
  H   H1365     1.0  0.50756  0.57747  0.68275  1.0000
  H   H1366     1.0  0.52793  0.51263  0.53599  1.0000
  H   H1367     1.0  0.50405  0.66733  0.80531  1.0000
  H   H1368     1.0  0.53947  0.50868  0.40757  1.0000
  C   C1716     1.0  0.71597  0.53249  0.52624  1.0000
  C   C1717     1.0  0.53037  0.50640  0.43473  1.0000
  H   H1369     1.0  0.60844  0.51111  0.33074  1.0000
  H   H1370     1.0  0.56320  0.50574  0.27038  1.0000
  C   C1718     1.0  0.69668  0.50345  0.40097  1.0000
  H   H1371     1.0  0.53701  0.50270  0.88773  1.0000
  C   C1719     1.0  0.49763  0.67839  0.64805  1.0000
  C   C1720     1.0  0.49723  0.65668  0.04019  1.0000
  H   H1372     1.0  0.55894  0.50389  0.77155  1.0000
  C   C1721     1.0  0.63640  0.50174  0.14807  1.0000
  H   H1373     1.0  0.49673  0.68502  0.85420  1.0000
  C   C1722     1.0  0.52623  0.74100  0.93756  1.0000
  C   C1723     1.0  0.50691  0.50116  0.50490  1.0000
  C   C1724     1.0  0.70337  0.49960  0.36360  1.0000
  H   H1374     1.0  0.49520  0.56580  0.91533  1.0000
  C   C1725     1.0  0.52135  0.49942  0.63836  1.0000
  H   H1375     1.0  0.67473  0.50370  0.49719  1.0000
  C   C1726     1.0  0.63647  0.49921  0.49499  1.0000
  C   C1727     1.0  0.60400  0.49917  0.80773  1.0000
  H   H1376     1.0  0.49814  0.49947  0.53240  1.0000
  H   H1377     1.0  0.57769  0.49869  0.71626  1.0000
  S   S227      1.0  0.59019  0.49815  0.55736  1.0000
  C   C1728     1.0  0.51348  0.49895  0.43226  1.0000
  H   H1378     1.0  0.57795  0.96549  0.17145  1.0000
  H   H1379     1.0  0.54894  0.96464  0.66122  1.0000
  C   C1729     1.0  0.55202  0.99413  0.57049  1.0000
  Fe  Fe115     1.0  0.52897  0.95933  0.06129  1.0000
  S   S228      1.0  0.55360  0.97996  0.04227  1.0000
  S   S229      1.0  0.52732  0.93233  0.06668  1.0000
  C   C1730     1.0  0.49863  0.91189  0.75543  1.0000
  C   C1731     1.0  0.57113  0.97366  0.18000  1.0000
  H   H1380     1.0  0.56952  0.98837  0.96083  1.0000
  H   H1381     1.0  0.55995  0.98795  0.58312  1.0000
  C   C1732     1.0  0.50025  0.98850  0.16242  1.0000
  C   C1733     1.0  0.50245  0.99288  0.68309  1.0000
  H   H1382     1.0  0.52761  0.97924  0.78840  1.0000
  H   H1383     1.0  0.49631  0.97579  0.76354  1.0000
  C   C1734     1.0  0.51357  0.99022  0.18482  1.0000
  H   H1384     1.0  0.60020  0.99684  0.90479  1.0000
  S   S230      1.0  0.53258  0.94684  0.47135  1.0000
  S   S231      1.0  0.53493  0.94491  0.34715  1.0000
  H   H1385     1.0  0.52789  0.97600  0.69061  1.0000
  C   C1735     1.0  0.51181  0.92510  0.23254  1.0000
  H   H1386     1.0  0.50069  0.95891  0.29384  1.0000
  H   H1387     1.0  0.50108  0.86935  0.68780  1.0000
  S   S232      1.0  0.50388  0.91579  0.18901  1.0000
  S   S233      1.0  0.50902  0.95569  0.02101  1.0000
  Fe  Fe116     1.0  0.50880  0.92977  0.12385  1.0000
  H   H1388     1.0  0.53268  0.94460  0.19751  1.0000
  H   H1389     1.0  0.51291  0.86121  0.81905  1.0000
  S   S234      1.0  0.51193  0.95690  0.11992  1.0000
  Fe  Fe117     1.0  0.51389  0.92278  0.50504  1.0000
  C   C1736     1.0  0.49873  0.85147  0.58569  1.0000
  H   H1390     1.0  0.55841  0.97100  0.12639  1.0000
  H   H1391     1.0  0.58216  0.97900  0.23556  1.0000
  C   C1737     1.0  0.52486  0.98490  0.33634  1.0000
  H   H1392     1.0  0.54918  0.95785  0.84419  1.0000
  C   C1738     1.0  0.51758  0.87399  0.82571  1.0000
  C   C1739     1.0  0.52532  0.87753  0.86090  1.0000
  C   C1740     1.0  0.53113  0.89392  0.87006  1.0000
  C   C1741     1.0  0.52906  0.90676  0.84423  1.0000
  C   C1742     1.0  0.52061  0.90318  0.80984  1.0000
  C   C1743     1.0  0.51531  0.88675  0.80010  1.0000
  P   P58       1.0  0.51805  0.91963  0.77582  1.0000
  C   C1744     1.0  0.51695  0.93689  0.80306  1.0000
  C   C1745     1.0  0.53561  0.92531  0.73541  1.0000
  C   C1746     1.0  0.55045  0.93795  0.73909  1.0000
  C   C1747     1.0  0.56410  0.94207  0.70803  1.0000
  C   C1748     1.0  0.56314  0.93338  0.67354  1.0000
  C   C1749     1.0  0.54864  0.92038  0.67041  1.0000
  C   C1750     1.0  0.53500  0.91621  0.70144  1.0000
  C   C1751     1.0  0.52296  0.95323  0.78264  1.0000
  C   C1752     1.0  0.52264  0.96662  0.80418  1.0000
  C   C1753     1.0  0.51597  0.96373  0.84606  1.0000
  C   C1754     1.0  0.50942  0.94744  0.86621  1.0000
  C   C1755     1.0  0.50975  0.93407  0.84471  1.0000
  H   H1393     1.0  0.52248  0.88888  0.63298  1.0000
  C   C1756     1.0  0.50501  0.95050  0.62812  1.0000
  H   H1394     1.0  0.52280  0.75126  0.94821  1.0000
  C   C1757     1.0  0.50947  0.88666  0.63126  1.0000
  H   H1395     1.0  0.51556  0.97917  0.19858  1.0000
  H   H1396     1.0  0.53852  0.97293  0.54172  1.0000
  C   C1758     1.0  0.56665  0.99076  0.89608  1.0000
  H   H1397     1.0  0.52647  0.86747  0.88150  1.0000
  H   H1398     1.0  0.53700  0.89658  0.89758  1.0000
  H   H1399     1.0  0.53392  0.91939  0.85152  1.0000
  H   H1400     1.0  0.52805  0.95562  0.75021  1.0000
  H   H1401     1.0  0.55159  0.94450  0.76610  1.0000
  H   H1402     1.0  0.57549  0.95193  0.71077  1.0000
  H   H1403     1.0  0.57370  0.93659  0.64941  1.0000
  H   H1404     1.0  0.54794  0.91351  0.64384  1.0000
  H   H1405     1.0  0.52402  0.90582  0.69887  1.0000
  H   H1406     1.0  0.54476  0.95518  0.25966  1.0000
  C   C1759     1.0  0.51045  0.92419  0.30801  1.0000
  H   H1407     1.0  0.51591  0.97406  0.86302  1.0000
  C   C1760     1.0  0.56457  0.99170  0.22720  1.0000
  H   H1408     1.0  0.50468  0.92156  0.86094  1.0000
  C   C1761     1.0  0.53168  0.98828  0.29459  1.0000
  C   C1762     1.0  0.52632  0.93896  0.22813  1.0000
  H   H1409     1.0  0.52471  0.97362  0.35437  1.0000
  C   C1763     1.0  0.55345  0.96462  0.86964  1.0000
  C   C1764     1.0  0.57350  0.98128  0.21605  1.0000
  H   H1410     1.0  0.54207  0.94423  0.61051  1.0000
  C   C1765     1.0  0.53316  0.94496  0.26345  1.0000
  C   C1766     1.0  0.56495  0.98187  0.93521  1.0000
  H   H1411     1.0  0.53620  0.97918  0.28108  1.0000
  C   C1767     1.0  0.53989  0.98559  0.54705  1.0000
  C   C1768     1.0  0.52534  0.93756  0.30359  1.0000
  C   C1769     1.0  0.50896  0.96258  0.65546  1.0000
  C   C1770     1.0  0.53277  0.94906  0.62394  1.0000
  H   H1412     1.0  0.55542  0.95798  0.97267  1.0000
  H   H1413     1.0  0.55119  0.75641  0.91235  1.0000
  H   H1414     1.0  0.52997  0.99505  0.07587  1.0000
  C   C1771     1.0  0.56003  0.97668  0.15474  1.0000
  H   H1415     1.0  0.50774  0.92640  0.69516  1.0000
  H   H1416     1.0  0.49804  0.88677  0.33252  1.0000
  C   C1772     1.0  0.51693  0.94390  0.61224  1.0000
  H   H1417     1.0  0.49965  0.86921  0.48844  1.0000
  C   C1773     1.0  0.52466  0.96708  0.66869  1.0000
  Fe  Fe118     1.0  0.52141  0.93895  0.41344  1.0000
  C   C1774     1.0  0.55707  0.96461  0.94189  1.0000
  C   C1775     1.0  0.56104  0.98197  0.86307  1.0000
  C   C1776     1.0  0.55121  0.95597  0.90918  1.0000
  C   C1777     1.0  0.53659  0.96052  0.65249  1.0000
  H   H1418     1.0  0.56254  0.98837  0.83227  1.0000
  H   H1419     1.0  0.51814  0.86823  0.54015  1.0000
  H   H1420     1.0  0.50927  0.88369  0.77298  1.0000
  Fe  Fe119     1.0  0.51210  0.95740  0.48401  1.0000
  S   S235      1.0  0.52029  0.90754  0.55742  1.0000
  H   H1421     1.0  0.54498  0.94259  0.91461  1.0000
  S   S236      1.0  0.51415  0.98307  0.50112  1.0000
  C   C1778     1.0  0.49963  0.88589  0.96837  1.0000
  H   H1422     1.0  0.51400  0.93492  0.59035  1.0000
  S   S237      1.0  0.49864  0.91823  0.96821  1.0000
  C   C1779     1.0  0.50386  0.91784  0.27271  1.0000
  H   H1423     1.0  0.50428  0.94513  0.89877  1.0000
  C   C1780     1.0  0.50483  0.89454  0.59743  1.0000
  H   H1424     1.0  0.50163  0.86150  0.96436  1.0000
  H   H1425     1.0  0.54294  0.98954  0.14501  1.0000
  S   S238      1.0  0.50500  0.91387  0.44580  1.0000
  S   S239      1.0  0.50246  0.95143  0.42417  1.0000
  Fe  Fe120     1.0  0.50584  0.92833  0.02929  1.0000
  H   H1426     1.0  0.49830  0.97859  0.58591  1.0000
  C   C1781     1.0  0.49668  0.87068  0.95155  1.0000
  H   H1427     1.0  0.50286  0.99059  0.91309  1.0000
  C   C1782     1.0  0.52962  0.99347  0.53050  1.0000
  H   H1428     1.0  0.56663  0.99758  0.25514  1.0000
  H   H1429     1.0  0.50429  0.91850  0.33870  1.0000
  C   C1783     1.0  0.55294  0.99433  0.20274  1.0000
  H   H1430     1.0  0.51327  0.99334  0.38744  1.0000
  H   H1431     1.0  0.50685  0.88834  0.99370  1.0000
  C   C1784     1.0  0.51842  0.99604  0.35489  1.0000
  C   C1785     1.0  0.49737  0.91707  0.71445  1.0000
  C   C1786     1.0  0.55109  0.98709  0.16577  1.0000
  H   H1432     1.0  0.50315  0.86172  0.36323  1.0000
  C   C1787     1.0  0.50508  0.86084  0.54693  1.0000
  H   H1433     1.0  0.50690  0.85142  0.60873  1.0000
  C   C1788     1.0  0.49737  0.87551  0.66225  1.0000
  C   C1789     1.0  0.49449  0.86134  0.51760  1.0000
  C   C1790     1.0  0.49420  0.86623  0.37973  1.0000
  H   H1434     1.0  0.52527  0.99784  0.64110  1.0000
  C   C1791     1.0  0.74603  0.21960  0.32822  1.0000
  H   H1435     1.0  0.77249  0.23327  0.21982  1.0000
  C   C1792     1.0  0.76745  0.24046  0.27990  1.0000
  C   C1793     1.0  0.76510  0.22946  0.25004  1.0000
  C   C1794     1.0  0.75800  0.23548  0.31904  1.0000
  H   H1436     1.0  0.76131  0.16394  0.39323  1.0000
  H   H1437     1.0  0.76723  0.14683  0.33998  1.0000
  H   H1438     1.0  0.75976  0.24410  0.34204  1.0000
  C   C1795     1.0  0.75639  0.16422  0.36413  1.0000
  H   H1439     1.0  0.75153  0.20515  0.23575  1.0000
  C   C1796     1.0  0.75314  0.21358  0.25911  1.0000
  H   H1440     1.0  0.75632  0.14783  0.27292  1.0000
  C   C1797     1.0  0.75974  0.15460  0.33411  1.0000
  C   C1798     1.0  0.75357  0.15514  0.29637  1.0000
  C   C1799     1.0  0.74674  0.17427  0.35657  1.0000
  H   H1441     1.0  0.74439  0.18181  0.37991  1.0000
  Fe  Fe121     1.0  0.91863  0.39634  0.53137  1.0000
  S   S240      1.0  0.90375  0.37467  0.57917  1.0000
  S   S241      1.0  0.94353  0.40156  0.49237  1.0000
  Fe  Fe122     1.0  0.89413  0.41476  0.54679  1.0000
  S   S242      1.0  0.87752  0.39501  0.59602  1.0000
  S   S243      1.0  0.88943  0.43817  0.52511  1.0000
  Fe  Fe123     1.0  0.90097  0.39409  0.61996  1.0000
  S   S244      1.0  0.90986  0.40007  0.68277  1.0000
  Fe  Fe124     1.0  0.88151  0.37746  0.55100  1.0000
  S   S245      1.0  0.85821  0.35794  0.53554  1.0000
  S   S246      1.0  0.91716  0.41535  0.57260  1.0000
  S   S247      1.0  0.89679  0.39761  0.50077  1.0000
  Fe  Fe125     1.0  0.91171  0.42704  0.95140  1.0000
  S   S248      1.0  0.91313  0.41943  0.01751  1.0000
  S   S249      1.0  0.91876  0.45340  0.92071  1.0000
  Fe  Fe126     1.0  0.89937  0.39166  0.93030  1.0000
  S   S250      1.0  0.90032  0.38076  0.99545  1.0000
  S   S251      1.0  0.89006  0.37647  0.87806  1.0000
  Fe  Fe127     1.0  0.88870  0.39930  0.01697  1.0000
  S   S252      1.0  0.86969  0.39711  0.07307  1.0000
  Fe  Fe128     1.0  0.92472  0.40175  0.99177  1.0000
  S   S253      1.0  0.94804  0.39965  0.01521  1.0000
  S   S254      1.0  0.88613  0.40882  0.95260  1.0000
  S   S255      1.0  0.92477  0.41053  0.92521  1.0000
  C   C1800     1.0  0.86812  0.39873  0.20632  1.0000
  S   S256      1.0  0.91078  0.49147  0.64889  1.0000
  Fe  Fe129     1.0  0.82898  0.49332  0.36505  1.0000
  H   H1442     1.0  0.85729  0.43823  0.55408  1.0000
  C   C1801     1.0  0.86431  0.40944  0.23290  1.0000
  H   H1443     1.0  0.85000  0.40867  0.58111  1.0000
  C   C1802     1.0  0.92662  0.49193  0.46260  1.0000
  S   S257      1.0  0.84588  0.48204  0.33236  1.0000
  C   C1803     1.0  0.75528  0.42389  0.35538  1.0000
  S   S258      1.0  0.82054  0.47327  0.26293  1.0000
  Fe  Fe130     1.0  0.82320  0.46121  0.32411  1.0000
  S   S259      1.0  0.82744  0.43651  0.33569  1.0000
  C   C1804     1.0  0.75783  0.27320  0.15360  1.0000
  H   H1444     1.0  0.76727  0.34722  0.39515  1.0000
  H   H1445     1.0  0.90642  0.31479  0.10116  1.0000
  Fe  Fe131     1.0  0.81508  0.33275  0.32811  1.0000
  S   S260      1.0  0.81646  0.35129  0.27374  1.0000
  S   S261      1.0  0.83950  0.34128  0.35590  1.0000
  Fe  Fe132     1.0  0.78109  0.30848  0.30982  1.0000
  S   S262      1.0  0.78085  0.32602  0.25505  1.0000
  H   H1446     1.0  0.90457  0.48529  0.00641  1.0000
  Fe  Fe133     1.0  0.80791  0.32951  0.23884  1.0000
  S   S263      1.0  0.82028  0.32932  0.17423  1.0000
  Fe  Fe134     1.0  0.78964  0.34656  0.29443  1.0000
  S   S264      1.0  0.77986  0.36822  0.29064  1.0000
  S   S265      1.0  0.80798  0.31078  0.29136  1.0000
  S   S266      1.0  0.78831  0.32913  0.35111  1.0000
  C   C1805     1.0  0.81404  0.41771  0.32297  1.0000
  C   C1806     1.0  0.79974  0.41704  0.30552  1.0000
  C   C1807     1.0  0.78921  0.40175  0.29632  1.0000
  C   C1808     1.0  0.79321  0.38717  0.30310  1.0000
  C   C1809     1.0  0.80757  0.38787  0.32045  1.0000
  C   C1810     1.0  0.81780  0.40305  0.33089  1.0000
  H   H1447     1.0  0.79686  0.42831  0.29911  1.0000
  H   H1448     1.0  0.77798  0.40122  0.28379  1.0000
  H   H1449     1.0  0.82598  0.47425  0.49404  1.0000
  C   C1811     1.0  0.81886  0.43195  0.60579  1.0000
  C   C1812     1.0  0.84849  0.40904  0.46561  1.0000
  C   C1813     1.0  0.82366  0.36704  0.58266  1.0000
  C   C1814     1.0  0.95574  0.40080  0.38169  1.0000
  C   C1815     1.0  0.82265  0.46932  0.56104  1.0000
  H   H1450     1.0  0.78594  0.37511  0.54152  1.0000
  H   H1451     1.0  0.75227  0.47106  0.19064  1.0000
  C   C1816     1.0  0.81840  0.42146  0.20301  1.0000
  H   H1452     1.0  0.88121  0.40640  0.40205  1.0000
  H   H1453     1.0  0.78450  0.32453  0.12399  1.0000
  C   C1817     1.0  0.91827  0.38543  0.16046  1.0000
  C   C1818     1.0  0.75539  0.33403  0.18648  1.0000
  H   H1454     1.0  0.78213  0.35798  0.60885  1.0000
  P   P59       1.0  0.75110  0.30265  0.16057  1.0000
  C   C1819     1.0  0.79662  0.37327  0.55323  1.0000
  C   C1820     1.0  0.92985  0.46948  0.94730  1.0000
  C   C1821     1.0  0.93530  0.46615  0.98484  1.0000
  C   C1822     1.0  0.94352  0.47933  0.00613  1.0000
  H   H1455     1.0  0.75575  0.29794  0.01057  1.0000
  C   C1823     1.0  0.88788  0.47532  0.93494  1.0000
  C   C1824     1.0  0.93325  0.48600  0.93035  1.0000
  H   H1456     1.0  0.93309  0.45347  0.99763  1.0000
  H   H1457     1.0  0.94737  0.47674  0.03563  1.0000
  C   C1825     1.0  0.86485  0.41275  0.44709  1.0000
  C   C1826     1.0  0.77851  0.40341  0.14925  1.0000
  C   C1827     1.0  0.85606  0.37807  0.10035  1.0000
  C   C1828     1.0  0.85601  0.36266  0.08892  1.0000
  C   C1829     1.0  0.84489  0.34781  0.11159  1.0000
  C   C1830     1.0  0.83399  0.34824  0.14626  1.0000
  C   C1831     1.0  0.83415  0.36367  0.15779  1.0000
  C   C1832     1.0  0.84500  0.37850  0.13464  1.0000
  H   H1458     1.0  0.86442  0.36219  0.06241  1.0000
  H   H1459     1.0  0.84481  0.33593  0.10234  1.0000
  H   H1460     1.0  0.82574  0.36420  0.18416  1.0000
  H   H1461     1.0  0.84485  0.39036  0.14350  1.0000
  C   C1833     1.0  0.96023  0.41664  0.03823  1.0000
  H   H1462     1.0  0.87621  0.48075  0.28775  1.0000
  C   C1834     1.0  0.95786  0.43210  0.03396  1.0000
  H   H1463     1.0  0.77645  0.25292  0.27276  1.0000
  H   H1464     1.0  0.94861  0.43385  0.01595  1.0000
  C   C1835     1.0  0.89391  0.45249  0.56123  1.0000
  C   C1836     1.0  0.89667  0.44771  0.60100  1.0000
  C   C1837     1.0  0.90138  0.45966  0.62841  1.0000
  C   C1838     1.0  0.90353  0.47638  0.61582  1.0000
  C   C1839     1.0  0.89995  0.48092  0.57681  1.0000
  C   C1840     1.0  0.89514  0.46898  0.54963  1.0000
  H   H1465     1.0  0.89540  0.43488  0.61048  1.0000
  H   H1466     1.0  0.90376  0.45604  0.65897  1.0000
  H   H1467     1.0  0.90078  0.49360  0.56758  1.0000
  H   H1468     1.0  0.89287  0.47265  0.51910  1.0000
  C   C1841     1.0  0.90352  0.39342  0.73691  1.0000
  C   C1842     1.0  0.88978  0.37935  0.75264  1.0000
  C   C1843     1.0  0.88576  0.37441  0.79585  1.0000
  C   C1844     1.0  0.89521  0.38360  0.82394  1.0000
  C   C1845     1.0  0.90882  0.39778  0.80818  1.0000
  C   C1846     1.0  0.91302  0.40250  0.76503  1.0000
  H   H1469     1.0  0.88240  0.37213  0.73156  1.0000
  H   H1470     1.0  0.87527  0.36336  0.80761  1.0000
  H   H1471     1.0  0.91633  0.40491  0.82918  1.0000
  H   H1472     1.0  0.92396  0.41308  0.75331  1.0000
  C   C1847     1.0  0.85304  0.35451  0.48487  1.0000
  C   C1848     1.0  0.83633  0.34684  0.47961  1.0000
  C   C1849     1.0  0.83185  0.34302  0.44033  1.0000
  C   C1850     1.0  0.84410  0.34648  0.40596  1.0000
  C   C1851     1.0  0.86080  0.35412  0.41127  1.0000
  C   C1852     1.0  0.86523  0.35834  0.45024  1.0000
  H   H1473     1.0  0.82682  0.34365  0.50623  1.0000
  H   H1474     1.0  0.81899  0.33699  0.43689  1.0000
  H   H1475     1.0  0.87037  0.35675  0.38505  1.0000
  H   H1476     1.0  0.87813  0.36407  0.45381  1.0000
  C   C1853     1.0  0.96038  0.40966  0.51974  1.0000
  C   C1854     1.0  0.92561  0.47559  0.47540  1.0000
  C   C1855     1.0  0.97338  0.42681  0.85790  1.0000
  H   H1477     1.0  0.95173  0.39234  0.68799  1.0000
  C   C1856     1.0  0.92759  0.40662  0.31065  1.0000
  C   C1857     1.0  0.94969  0.48585  0.51073  1.0000
  C   C1858     1.0  0.93714  0.47254  0.49927  1.0000
  P   P60       1.0  0.96538  0.48209  0.53857  1.0000
  C   C1859     1.0  0.85256  0.46654  0.51295  1.0000
  C   C1860     1.0  0.76542  0.47298  0.18678  1.0000
  H   H1478     1.0  0.79006  0.26023  0.17374  1.0000
  C   C1861     1.0  0.83307  0.42014  0.21517  1.0000
  C   C1862     1.0  0.81088  0.43660  0.44338  1.0000
  H   H1479     1.0  0.77221  0.37747  0.38379  1.0000
  H   H1480     1.0  0.94976  0.44023  0.46378  1.0000
  H   H1481     1.0  0.93493  0.38593  0.75715  1.0000
  C   C1863     1.0  0.95771  0.46333  0.57476  1.0000
  C   C1864     1.0  0.94133  0.45786  0.59492  1.0000
  C   C1865     1.0  0.88785  0.46422  0.31416  1.0000
  C   C1866     1.0  0.91946  0.39114  0.33472  1.0000
  H   H1482     1.0  0.91548  0.46529  0.46815  1.0000
  C   C1867     1.0  0.98516  0.45287  0.69249  1.0000
  C   C1868     1.0  0.76257  0.32425  0.16379  1.0000
  C   C1869     1.0  0.96753  0.39031  0.90069  1.0000
  H   H1483     1.0  0.93608  0.45983  0.50960  1.0000
  C   C1870     1.0  0.88473  0.43911  0.28193  1.0000
  C   C1871     1.0  0.78132  0.35715  0.17250  1.0000
  C   C1872     1.0  0.98734  0.42280  0.56347  1.0000
  C   C1873     1.0  0.76377  0.28947  0.16412  1.0000
  H   H1484     1.0  0.82862  0.40342  0.34539  1.0000
  C   C1874     1.0  0.84122  0.41510  0.58784  1.0000
  C   C1875     1.0  0.76726  0.26267  0.15709  1.0000
  H   H1485     1.0  0.98273  0.49087  0.01617  1.0000
  H   H1486     1.0  0.76515  0.29745  0.07914  1.0000
  H   H1487     1.0  0.97636  0.42534  0.46655  1.0000
  H   H1488     1.0  0.80738  0.43640  0.16783  1.0000
  C   C1876     1.0  0.98859  0.42827  0.52133  1.0000
  H   H1489     1.0  0.90309  0.43279  0.41956  1.0000
  H   H1490     1.0  0.89974  0.40432  0.24220  1.0000
  C   C1877     1.0  0.76484  0.35031  0.19143  1.0000
  C   C1878     1.0  0.86904  0.49199  0.65940  1.0000
  C   C1879     1.0  0.88167  0.48130  0.04719  1.0000
  H   H1491     1.0  0.75582  0.27301  0.25070  1.0000
  P   P61       1.0  0.86826  0.47626  0.00780  1.0000
  C   C1880     1.0  0.85250  0.48580  0.01668  1.0000
  C   C1881     1.0  0.94605  0.49580  0.99007  1.0000
  H   H1492     1.0  0.92440  0.38729  0.36132  1.0000
  H   H1493     1.0  0.88560  0.37716  0.28569  1.0000
  C   C1882     1.0  0.74869  0.48623  0.27234  1.0000
  C   C1883     1.0  0.76923  0.43635  0.33363  1.0000
  H   H1494     1.0  0.81290  0.48155  0.17518  1.0000
  C   C1884     1.0  0.77863  0.41825  0.12753  1.0000
  H   H1495     1.0  0.76258  0.25013  0.14895  1.0000
  H   H1496     1.0  0.97174  0.44209  0.18094  1.0000
  C   C1885     1.0  0.83609  0.47757  0.01035  1.0000
  C   C1886     1.0  0.85866  0.45389  0.01057  1.0000
  C   C1887     1.0  0.85606  0.44356  0.04810  1.0000
  C   C1888     1.0  0.84922  0.42625  0.04959  1.0000
  C   C1889     1.0  0.84502  0.41911  0.01372  1.0000
  C   C1890     1.0  0.84706  0.42931  0.97654  1.0000
  C   C1891     1.0  0.85362  0.44663  0.97505  1.0000
  H   H1497     1.0  0.78652  0.48721  0.55670  1.0000
  C   C1892     1.0  0.75320  0.49106  0.41513  1.0000
  H   H1498     1.0  0.75424  0.49556  0.24580  1.0000
  C   C1893     1.0  0.78265  0.26828  0.17134  1.0000
  H   H1499     1.0  0.77969  0.44207  0.34935  1.0000
  H   H1500     1.0  0.97160  0.43564  0.62747  1.0000
  C   C1894     1.0  0.90822  0.40656  0.12996  1.0000
  C   C1895     1.0  0.96313  0.44177  0.61814  1.0000
  H   H1501     1.0  0.88746  0.46313  0.94825  1.0000
  H   H1502     1.0  0.77148  0.38775  0.20801  1.0000
  C   C1896     1.0  0.90909  0.48953  0.06837  1.0000
  H   H1503     1.0  0.83260  0.46537  0.00005  1.0000
  H   H1504     1.0  0.85953  0.44875  0.07611  1.0000
  H   H1505     1.0  0.84756  0.41822  0.07827  1.0000
  H   H1506     1.0  0.84036  0.40566  0.01474  1.0000
  H   H1507     1.0  0.84381  0.42375  0.94869  1.0000
  H   H1508     1.0  0.85506  0.45431  0.94593  1.0000
  S   S267      1.0  0.80608  0.47138  0.36187  1.0000
  C   C1897     1.0  0.98223  0.36746  0.87418  1.0000
  C   C1898     1.0  0.77188  0.42893  0.14750  1.0000
  C   C1899     1.0  0.97252  0.40745  0.78437  1.0000
  C   C1900     1.0  0.93872  0.42956  0.37027  1.0000
  H   H1509     1.0  0.97869  0.42015  0.28881  1.0000
  Fe  Fe135     1.0  0.84255  0.49494  0.27281  1.0000
  C   C1901     1.0  0.95867  0.44504  0.90666  1.0000
  C   C1902     1.0  0.95322  0.44084  0.86906  1.0000
  C   C1903     1.0  0.96047  0.43171  0.84465  1.0000
  H   H1510     1.0  0.98218  0.40719  0.68057  1.0000
  H   H1511     1.0  0.99138  0.48239  0.90833  1.0000
  C   C1904     1.0  0.96661  0.39318  0.39594  1.0000
  C   C1905     1.0  0.79360  0.49198  0.16742  1.0000
  H   H1512     1.0  0.91016  0.49319  0.13242  1.0000
  C   C1906     1.0  0.77898  0.29478  0.17968  1.0000
  C   C1907     1.0  0.89732  0.38535  0.29234  1.0000
  C   C1908     1.0  0.75161  0.46859  0.33037  1.0000
  H   H1513     1.0  0.81140  0.47882  0.01178  1.0000
  C   C1909     1.0  0.90442  0.38056  0.32552  1.0000
  C   C1910     1.0  0.97998  0.44351  0.07541  1.0000
  H   H1514     1.0  0.94269  0.44385  0.86021  1.0000
  H   H1515     1.0  0.95561  0.42814  0.81640  1.0000
  H   H1516     1.0  0.90207  0.47406  0.87785  1.0000
  H   H1517     1.0  0.89261  0.47207  0.33746  1.0000
  C   C1911     1.0  0.92415  0.41831  0.12569  1.0000
  H   H1518     1.0  0.94779  0.39572  0.81844  1.0000
  H   H1519     1.0  0.86665  0.37350  0.19927  1.0000
  C   C1912     1.0  0.98362  0.48510  0.68958  1.0000
  H   H1520     1.0  0.94769  0.39528  0.57786  1.0000
  H   H1521     1.0  0.75956  0.35736  0.21128  1.0000
  C   C1913     1.0  0.95543  0.39857  0.78844  1.0000
  C   C1914     1.0  0.95910  0.40436  0.56187  1.0000
  C   C1915     1.0  0.77651  0.48893  0.17182  1.0000
  C   C1916     1.0  0.75629  0.43388  0.27089  1.0000
  Fe  Fe136     1.0  0.80473  0.48508  0.30123  1.0000
  H   H1522     1.0  0.81056  0.37665  0.32687  1.0000
  P   P62       1.0  0.84035  0.46244  0.56347  1.0000
  H   H1523     1.0  0.78886  0.36947  0.17784  1.0000
  H   H1524     1.0  0.75931  0.46421  0.34920  1.0000
  H   H1525     1.0  0.85172  0.45094  0.42020  1.0000
  H   H1526     1.0  0.99394  0.45485  0.44309  1.0000
  H   H1527     1.0  0.74625  0.30652  0.24905  1.0000
  C   C1917     1.0  0.84762  0.45551  0.48358  1.0000
  C   C1918     1.0  0.87854  0.46908  0.28631  1.0000
  H   H1528     1.0  0.85287  0.36229  0.27105  1.0000
  C   C1919     1.0  0.85589  0.45931  0.44301  1.0000
  H   H1529     1.0  0.84850  0.49711  0.57900  1.0000
  C   C1920     1.0  0.86418  0.38182  0.22024  1.0000
  C   C1921     1.0  0.79643  0.48204  0.55801  1.0000
  C   C1922     1.0  0.88016  0.48479  0.95725  1.0000
  H   H1530     1.0  0.86470  0.46289  0.23596  1.0000
  C   C1923     1.0  0.85628  0.37546  0.26049  1.0000
  H   H1531     1.0  0.93279  0.46416  0.58693  1.0000
  C   C1924     1.0  0.80030  0.47696  0.59621  1.0000
  H   H1532     1.0  0.96647  0.44664  0.74567  1.0000
  C   C1925     1.0  0.87205  0.45887  0.25669  1.0000
  H   H1533     1.0  0.87368  0.40317  0.17454  1.0000
  H   H1534     1.0  0.90289  0.45282  0.19888  1.0000
  C   C1926     1.0  0.87843  0.43316  0.13026  1.0000
  H   H1535     1.0  0.90539  0.44495  0.84060  1.0000
  C   C1927     1.0  0.85232  0.38598  0.28701  1.0000
  C   C1928     1.0  0.94806  0.39303  0.75380  1.0000
  H   H1536     1.0  0.84556  0.38079  0.31761  1.0000
  C   C1929     1.0  0.89093  0.44923  0.31201  1.0000
  C   C1930     1.0  0.84529  0.43185  0.57232  1.0000
  C   C1931     1.0  0.87506  0.44376  0.25429  1.0000
  H   H1537     1.0  0.89807  0.44544  0.33376  1.0000
  C   C1932     1.0  0.94890  0.43444  0.40108  1.0000
  H   H1538     1.0  0.87018  0.49004  0.52321  1.0000
  C   C1933     1.0  0.85640  0.40293  0.27341  1.0000
  H   H1539     1.0  0.96356  0.38616  0.42661  1.0000
  H   H1540     1.0  0.85285  0.41087  0.29397  1.0000
  C   C1934     1.0  0.83387  0.44809  0.16298  1.0000
  H   H1541     1.0  0.88634  0.43505  0.06476  1.0000
  P   P63       1.0  0.86763  0.43094  0.21446  1.0000
  H   H1542     1.0  0.86615  0.42462  0.12850  1.0000
  H   H1543     1.0  0.83229  0.40922  0.23560  1.0000
  C   C1935     1.0  0.86924  0.47411  0.43160  1.0000
  S   S268      1.0  0.75867  0.28442  0.33353  1.0000
  C   C1936     1.0  0.88289  0.43803  0.16846  1.0000
  C   C1937     1.0  0.90581  0.44984  0.09577  1.0000
  H   H1544     1.0  0.91458  0.45443  0.06761  1.0000
  H   H1545     1.0  0.88745  0.42765  0.28036  1.0000
  C   C1938     1.0  0.88983  0.43905  0.09410  1.0000
  P   P64       1.0  0.94590  0.42114  0.32601  1.0000
  C   C1939     1.0  0.87481  0.48124  0.08812  1.0000
  H   H1546     1.0  0.75889  0.40591  0.24257  1.0000
  H   H1547     1.0  0.83719  0.44413  0.49195  1.0000
  C   C1940     1.0  0.89906  0.44879  0.16997  1.0000
  C   C1941     1.0  0.91046  0.45465  0.13370  1.0000
  H   H1548     1.0  0.92288  0.46303  0.13480  1.0000
  H   H1549     1.0  0.86158  0.47839  0.09618  1.0000
  C   C1942     1.0  0.98355  0.48636  0.36068  1.0000
  C   C1943     1.0  0.83420  0.44045  0.58132  1.0000
  C   C1944     1.0  0.97426  0.45647  0.72200  1.0000
  C   C1945     1.0  0.84835  0.43277  0.20099  1.0000
  C   C1946     1.0  0.95968  0.41046  0.34268  1.0000
  C   C1947     1.0  0.95646  0.43732  0.28360  1.0000
  H   H1550     1.0  0.92030  0.43844  0.47570  1.0000
  H   H1551     1.0  0.80670  0.41166  0.21418  1.0000
  H   H1552     1.0  0.97158  0.40615  0.61567  1.0000
  C   C1948     1.0  0.81873  0.47455  0.52287  1.0000
  H   H1553     1.0  0.96564  0.45730  0.04909  1.0000
  C   C1949     1.0  0.86609  0.48128  0.50134  1.0000
  H   H1554     1.0  0.91421  0.42603  0.35326  1.0000
  H   H1555     1.0  0.85876  0.45353  0.62829  1.0000
  C   C1950     1.0  0.97202  0.36385  0.91231  1.0000
  C   C1951     1.0  0.85930  0.46632  0.62887  1.0000
  C   C1952     1.0  0.85220  0.47403  0.60009  1.0000
  C   C1953     1.0  0.97924  0.43165  0.89495  1.0000
  H   H1556     1.0  0.98912  0.42785  0.90560  1.0000
  H   H1557     1.0  0.85856  0.38444  0.37833  1.0000
  C   C1954     1.0  0.84859  0.44673  0.17477  1.0000
  C   C1955     1.0  0.98166  0.46659  0.48548  1.0000
  C   C1956     1.0  0.96865  0.44542  0.21127  1.0000
  H   H1558     1.0  0.94242  0.42548  0.66114  1.0000
  H   H1559     1.0  0.93302  0.48681  0.73159  1.0000
  C   C1957     1.0  0.82606  0.40681  0.61276  1.0000
  H   H1560     1.0  0.82313  0.39397  0.62574  1.0000
  H   H1561     1.0  0.93034  0.37639  0.09043  1.0000
  H   H1562     1.0  0.97461  0.40284  0.06428  1.0000
  H   H1563     1.0  0.86018  0.45658  0.16361  1.0000
  H   H1564     1.0  0.92589  0.42342  0.25895  1.0000
  C   C1958     1.0  0.96765  0.44543  0.05252  1.0000
  H   H1565     1.0  0.79914  0.40582  0.54450  1.0000
  C   C1959     1.0  0.97205  0.48689  0.87763  1.0000
  H   H1566     1.0  0.95255  0.45156  0.92610  1.0000
  C   C1960     1.0  0.80791  0.36030  0.60586  1.0000
  C   C1961     1.0  0.76482  0.42474  0.18932  1.0000
  C   C1962     1.0  0.96447  0.48571  0.84167  1.0000
  H   H1567     1.0  0.96047  0.48133  0.40073  1.0000
  C   C1963     1.0  0.86756  0.47527  0.65859  1.0000
  C   C1964     1.0  0.90529  0.40067  0.26802  1.0000
  H   H1568     1.0  0.95888  0.45780  0.31995  1.0000
  C   C1965     1.0  0.80567  0.48087  0.52141  1.0000
  C   C1966     1.0  0.81483  0.41518  0.62146  1.0000
  C   C1967     1.0  0.98215  0.41015  0.74532  1.0000
  C   C1968     1.0  0.97466  0.40489  0.71065  1.0000
  C   C1969     1.0  0.82596  0.37693  0.54480  1.0000
  C   C1970     1.0  0.98575  0.48169  0.88016  1.0000
  C   C1971     1.0  0.91775  0.44233  0.74009  1.0000
  H   H1569     1.0  0.94154  0.45615  0.70561  1.0000
  H   H1570     1.0  0.80308  0.48530  0.49171  1.0000
  H   H1571     1.0  0.91313  0.43583  0.71445  1.0000
  C   C1972     1.0  0.81343  0.47073  0.59776  1.0000
  C   C1973     1.0  0.93396  0.45358  0.73554  1.0000
  C   C1974     1.0  0.90754  0.43905  0.77807  1.0000
  H   H1572     1.0  0.89515  0.42995  0.78181  1.0000
  H   H1573     1.0  0.83411  0.36434  0.59360  1.0000
  H   H1574     1.0  0.81664  0.46736  0.62760  1.0000
  H   H1575     1.0  0.81006  0.43821  0.61333  1.0000
  C   C1975     1.0  0.81878  0.43541  0.17698  1.0000
  C   C1976     1.0  0.97025  0.47880  0.80826  1.0000
  C   C1977     1.0  0.76972  0.44145  0.29163  1.0000
  C   C1978     1.0  0.94010  0.46169  0.76909  1.0000
  C   C1979     1.0  0.75906  0.48050  0.29581  1.0000
  C   C1980     1.0  0.98557  0.40456  0.33252  1.0000
  H   H1576     1.0  0.87472  0.42225  0.45796  1.0000
  P   P65       1.0  0.96047  0.47749  0.76155  1.0000
  H   H1577     1.0  0.80310  0.40872  0.64088  1.0000
  P   P66       1.0  0.98199  0.41357  0.82996  1.0000
  C   C1981     1.0  0.74845  0.30024  0.03700  1.0000
  C   C1982     1.0  0.92942  0.45895  0.80645  1.0000
  H   H1578     1.0  0.83822  0.38149  0.52698  1.0000
  C   C1983     1.0  0.91335  0.44741  0.81117  1.0000
  C   C1984     1.0  0.98412  0.47366  0.81111  1.0000
  C   C1985     1.0  0.74425  0.30273  0.11040  1.0000
  C   C1986     1.0  0.98142  0.48171  0.49884  1.0000
  H   H1579     1.0  0.80620  0.35245  0.63488  1.0000
  H   H1580     1.0  0.82161  0.41971  0.41686  1.0000
  C   C1987     1.0  0.77623  0.35562  0.41120  1.0000
  C   C1988     1.0  0.90220  0.48959  0.10887  1.0000
  H   H1581     1.0  0.93335  0.46560  0.83222  1.0000
  H   H1582     1.0  0.95669  0.42008  0.23877  1.0000
  H   H1583     1.0  0.94878  0.38145  0.28957  1.0000
  C   C1989     1.0  0.97268  0.41055  0.58328  1.0000
  C   C1990     1.0  0.82402  0.48517  0.01692  1.0000
  H   H1584     1.0  0.78368  0.30695  0.18953  1.0000
  H   H1585     1.0  0.87534  0.47731  0.39995  1.0000
  H   H1586     1.0  0.84594  0.41583  0.49051  1.0000
  H   H1587     1.0  0.80096  0.35314  0.13285  1.0000
  H   H1588     1.0  0.82966  0.37769  0.41061  1.0000
  H   H1589     1.0  0.80031  0.28871  0.19425  1.0000
  H   H1590     1.0  0.83415  0.45902  0.14319  1.0000
  C   C1991     1.0  0.78845  0.28430  0.18282  1.0000
  C   C1992     1.0  0.97528  0.42137  0.49926  1.0000
  H   H1591     1.0  0.89829  0.40995  0.11816  1.0000
  H   H1592     1.0  0.81434  0.44531  0.41525  1.0000
  H   H1593     1.0  0.85018  0.32907  0.26360  1.0000
  C   C1993     1.0  0.79440  0.36346  0.59121  1.0000
  C   C1994     1.0  0.86849  0.40390  0.41557  1.0000
  C   C1995     1.0  0.91075  0.33616  0.13455  1.0000
  C   C1996     1.0  0.96146  0.45418  0.28978  1.0000
  C   C1997     1.0  0.89890  0.48522  0.03762  1.0000
  P   P67       1.0  0.81473  0.39126  0.47884  1.0000
  H   H1594     1.0  0.89815  0.36871  0.34456  1.0000
  C   C1998     1.0  0.93428  0.39735  0.15585  1.0000
  C   C1999     1.0  0.91590  0.43336  0.41398  1.0000
  C   C2000     1.0  0.97481  0.41237  0.31832  1.0000
  C   C2001     1.0  0.96017  0.43302  0.24409  1.0000
  H   H1595     1.0  0.87340  0.46943  0.68012  1.0000
  C   C2002     1.0  0.81510  0.42213  0.44445  1.0000
  C   C2003     1.0  0.86513  0.33886  0.20416  1.0000
  C   C2004     1.0  0.85570  0.39148  0.40223  1.0000
  C   C2005     1.0  0.98245  0.42809  0.07957  1.0000
  C   C2006     1.0  0.97357  0.47270  0.72109  1.0000
  C   C2007     1.0  0.93713  0.41374  0.13896  1.0000
  H   H1596     1.0  0.98159  0.45973  0.57334  1.0000
  H   H1597     1.0  0.96159  0.43451  0.39725  1.0000
  C   C2008     1.0  0.93589  0.44431  0.62608  1.0000
  H   H1598     1.0  0.92314  0.43980  0.64089  1.0000
  C   C2009     1.0  0.81246  0.38024  0.52989  1.0000
  C   C2010     1.0  0.83562  0.39635  0.45290  1.0000
  H   H1599     1.0  0.95822  0.34271  0.22640  1.0000
  H   H1600     1.0  0.87970  0.48543  0.15020  1.0000
  C   C2011     1.0  0.83930  0.38763  0.42085  1.0000
  C   C2012     1.0  0.78859  0.46312  0.19298  1.0000
  C   C2013     1.0  0.81054  0.41061  0.48038  1.0000
  C   C2014     1.0  0.97352  0.46217  0.21759  1.0000
  C   C2015     1.0  0.92231  0.42961  0.37646  1.0000
  C   C2016     1.0  0.91929  0.33764  0.06099  1.0000
  H   H1601     1.0  0.79279  0.39681  0.41858  1.0000
  C   C2017     1.0  0.79986  0.37753  0.45142  1.0000
  C   C2018     1.0  0.88504  0.48522  0.11885  1.0000
  C   C2019     1.0  0.80240  0.41420  0.51601  1.0000
  C   C2020     1.0  0.79080  0.38366  0.42469  1.0000
  H   H1602     1.0  0.80427  0.35536  0.47678  1.0000
  C   C2021     1.0  0.80231  0.43984  0.47843  1.0000
  C   C2022     1.0  0.94675  0.43617  0.63747  1.0000
  C   C2023     1.0  0.79719  0.36035  0.45705  1.0000
  H   H1603     1.0  0.79891  0.45100  0.47719  1.0000
  H   H1604     1.0  0.90468  0.32870  0.16380  1.0000
  H   H1605     1.0  0.94477  0.39389  0.16347  1.0000
  H   H1606     1.0  0.98185  0.47333  0.35874  1.0000
  H   H1607     1.0  0.91985  0.33154  0.03342  1.0000
  C   C2024     1.0  0.79831  0.42879  0.51496  1.0000
  C   C2025     1.0  0.96465  0.37526  0.92547  1.0000
  C   C2026     1.0  0.96997  0.46656  0.25683  1.0000
  C   C2027     1.0  0.77898  0.37270  0.40491  1.0000
  C   C2028     1.0  0.78535  0.34945  0.43724  1.0000
  H   H1608     1.0  0.77228  0.44051  0.13045  1.0000
  H   H1609     1.0  0.95657  0.37246  0.95483  1.0000
  H   H1610     1.0  0.78341  0.33621  0.44161  1.0000
  H   H1611     1.0  0.79195  0.43152  0.54236  1.0000
  H   H1612     1.0  0.98908  0.46844  0.78607  1.0000
  C   C2029     1.0  0.91172  0.32823  0.09914  1.0000
  C   C2030     1.0  0.91738  0.35360  0.13200  1.0000
  H   H1613     1.0  0.89298  0.38115  0.14842  1.0000
  C   C2031     1.0  0.92603  0.35497  0.05829  1.0000
  H   H1614     1.0  0.97276  0.45487  0.50039  1.0000
  C   C2032     1.0  0.92028  0.41136  0.27732  1.0000
  C   C2033     1.0  0.90525  0.39017  0.14725  1.0000
  H   H1615     1.0  0.87375  0.33883  0.30306  1.0000
  P   P68       1.0  0.91519  0.36383  0.17733  1.0000
  C   C2034     1.0  0.92513  0.36294  0.09361  1.0000
  H   H1616     1.0  0.93179  0.36235  0.02869  1.0000
  C   C2035     1.0  0.93062  0.36285  0.21011  1.0000
  H   H1617     1.0  0.94959  0.42274  0.13433  1.0000
  C   C2036     1.0  0.93411  0.37358  0.24074  1.0000
  H   H1618     1.0  0.97561  0.44348  0.94921  1.0000
  H   H1619     1.0  0.92662  0.43080  0.11066  1.0000
  H   H1620     1.0  0.98030  0.47170  0.19204  1.0000
  C   C2037     1.0  0.89186  0.34983  0.24854  1.0000
  H   H1621     1.0  0.92755  0.38231  0.24491  1.0000
  C   C2038     1.0  0.93939  0.35170  0.20515  1.0000
  C   C2039     1.0  0.95144  0.35130  0.23046  1.0000
  H   H1622     1.0  0.90198  0.35367  0.26648  1.0000
  C   C2040     1.0  0.89456  0.35315  0.20509  1.0000
  H   H1623     1.0  0.95405  0.49014  0.84010  1.0000
  C   C2041     1.0  0.95482  0.36202  0.26086  1.0000
  C   C2042     1.0  0.77138  0.45995  0.19764  1.0000
  H   H1624     1.0  0.96419  0.36173  0.28036  1.0000
  C   C2043     1.0  0.77880  0.33159  0.14279  1.0000
  H   H1625     1.0  0.85477  0.33443  0.18706  1.0000
  C   C2044     1.0  0.97154  0.49087  0.38433  1.0000
  H   H1626     1.0  0.88265  0.35002  0.14957  1.0000
  C   C2045     1.0  0.74494  0.26540  0.27161  1.0000
  H   H1627     1.0  0.93709  0.34336  0.18169  1.0000
  C   C2046     1.0  0.88100  0.34768  0.18309  1.0000
  C   C2047     1.0  0.94614  0.37315  0.26602  1.0000
  C   C2048     1.0  0.97264  0.41473  0.06092  1.0000
  C   C2049     1.0  0.96868  0.45536  0.58710  1.0000
  C   C2050     1.0  0.95759  0.39646  0.71481  1.0000
  C   C2051     1.0  0.87589  0.34127  0.26950  1.0000
  H   H1628     1.0  0.97400  0.47956  0.26174  1.0000
  C   C2052     1.0  0.94232  0.43789  0.43879  1.0000
  H   H1629     1.0  0.94450  0.39955  0.40202  1.0000
  C   C2053     1.0  0.86256  0.33572  0.24730  1.0000
  C   C2054     1.0  0.78817  0.34791  0.14751  1.0000
  C   C2055     1.0  0.92573  0.43693  0.44555  1.0000
  H   H1630     1.0  0.78059  0.45130  0.27573  1.0000
  H   H1631     1.0  0.78391  0.39524  0.13395  1.0000
  C   C2056     1.0  0.87448  0.48496  0.46090  1.0000
  H   H1632     1.0  0.96968  0.35215  0.93149  1.0000
  C   C2057     1.0  0.94302  0.49797  0.73516  1.0000
  P   P69       1.0  0.75723  0.43914  0.21577  1.0000
  H   H1633     1.0  0.79346  0.45336  0.20196  1.0000
  C   C2058     1.0  0.97813  0.39424  0.86275  1.0000
  H   H1634     1.0  0.96724  0.49179  0.90373  1.0000
  C   C2059     1.0  0.89632  0.48153  0.89502  1.0000
  H   H1635     1.0  0.98324  0.49764  0.68770  1.0000
  H   H1636     1.0  0.92956  0.48874  0.90077  1.0000
  C   C2060     1.0  0.77142  0.39913  0.19077  1.0000
  H   H1637     1.0  0.94584  0.49364  0.59889  1.0000
  S   S269      1.0  0.99152  0.46054  0.09928  1.0000
  C   C2061     1.0  0.76442  0.40962  0.21056  1.0000
  H   H1638     1.0  0.78410  0.42156  0.09530  1.0000
  C   C2062     1.0  0.97172  0.44051  0.91956  1.0000
  C   C2063     1.0  0.79964  0.47906  0.17779  1.0000
  H   H1639     1.0  0.96124  0.39863  0.91138  1.0000
  C   C2064     1.0  0.98149  0.39499  0.37128  1.0000
  C   C2065     1.0  0.75369  0.29986  0.07600  1.0000
  C   C2066     1.0  0.85372  0.49084  0.60116  1.0000
  S   S270      1.0  0.78108  0.48850  0.28007  1.0000
  H   H1640     1.0  0.79337  0.47819  0.62464  1.0000
  H   H1641     1.0  0.75496  0.42003  0.38791  1.0000
  H   H1642     1.0  0.98998  0.38922  0.38248  1.0000
  C   C2067     1.0  0.99375  0.49708  0.99383  1.0000
  H   H1643     1.0  0.98565  0.44038  0.69291  1.0000
  C   C2068     1.0  0.99179  0.47507  0.84691  1.0000
  H   H1644     1.0  0.92239  0.49295  0.06075  1.0000
  H   H1645     1.0  0.91733  0.49428  0.44544  1.0000
  C   C2069     1.0  0.98521  0.38256  0.84937  1.0000
  H   H1646     1.0  0.74584  0.26861  0.14301  1.0000
  H   H1647     1.0  0.76502  0.48960  0.40497  1.0000
  H   H1648     1.0  0.99190  0.42646  0.09718  1.0000
  C   C2070     1.0  0.89788  0.49755  0.87783  1.0000
  C   C2071     1.0  0.95791  0.49728  0.74781  1.0000
  H   H1649     1.0  0.98776  0.35852  0.86373  1.0000
  H   H1650     1.0  0.88477  0.49649  0.45215  1.0000
  C   C2072     1.0  0.99351  0.46652  0.45279  1.0000
  H   H1651     1.0  0.99302  0.38513  0.81970  1.0000
  C   C2073     1.0  0.99267  0.49668  0.47781  1.0000
  S   S271      1.0  0.92732  0.52388  0.54896  1.0000
  Fe  Fe137     1.0  0.92165  0.55293  0.62929  1.0000
  S   S272      1.0  0.93241  0.56267  0.56216  1.0000
  S   S273      1.0  0.92077  0.56879  0.68163  1.0000
  Fe  Fe138     1.0  0.91188  0.54052  0.54677  1.0000
  Fe  Fe139     1.0  0.94688  0.54518  0.56809  1.0000
  S   S274      1.0  0.97304  0.54755  0.54176  1.0000
  S   S275      1.0  0.93781  0.53729  0.63557  1.0000
  H   H1652     1.0  0.86586  0.51837  0.38262  1.0000
  Fe  Fe140     1.0  0.94478  0.53271  0.99743  1.0000
  Fe  Fe141     1.0  0.95214  0.56970  0.98027  1.0000
  S   S276      1.0  0.92768  0.56645  0.95633  1.0000
  S   S277      1.0  0.97106  0.59567  0.97603  1.0000
  Fe  Fe142     1.0  0.91665  0.54664  0.01154  1.0000
  H   H1653     1.0  0.98126  0.62947  0.87800  1.0000
  Fe  Fe143     1.0  0.93288  0.54644  0.92247  1.0000
  S   S278      1.0  0.92931  0.53796  0.85887  1.0000
  S   S279      1.0  0.94073  0.55145  0.03755  1.0000
  S   S280      1.0  0.95810  0.55120  0.94220  1.0000
  C   C2074     1.0  0.88273  0.52990  0.47046  1.0000
  H   H1654     1.0  0.97260  0.58143  0.53609  1.0000
  H   H1655     1.0  0.92917  0.51363  0.71725  1.0000
  H   H1656     1.0  0.90502  0.52671  0.27224  1.0000
  H   H1657     1.0  0.93488  0.54053  0.36807  1.0000
  H   H1658     1.0  0.96399  0.55668  0.82791  1.0000
  C   C2075     1.0  0.94120  0.49912  0.95180  1.0000
  C   C2076     1.0  0.98368  0.60355  0.01416  1.0000
  H   H1659     1.0  0.98799  0.53422  0.28844  1.0000
  H   H1660     1.0  0.89892  0.51497  0.17875  1.0000
  H   H1661     1.0  0.98089  0.61503  0.21491  1.0000
  H   H1662     1.0  0.84803  0.52181  0.04462  1.0000
  S   S281      1.0  0.83263  0.50181  0.42860  1.0000
  C   C2077     1.0  0.94075  0.51328  0.72689  1.0000
  C   C2078     1.0  0.92224  0.56033  0.73197  1.0000
  C   C2079     1.0  0.91961  0.54335  0.74094  1.0000
  C   C2080     1.0  0.92150  0.53682  0.78026  1.0000
  C   C2081     1.0  0.92605  0.54712  0.81126  1.0000
  C   C2082     1.0  0.92839  0.56412  0.80278  1.0000
  C   C2083     1.0  0.92642  0.57068  0.76327  1.0000
  H   H1663     1.0  0.91600  0.53520  0.71753  1.0000
  H   H1664     1.0  0.91949  0.52365  0.78661  1.0000
  H   H1665     1.0  0.93183  0.57219  0.82642  1.0000
  H   H1666     1.0  0.92837  0.58384  0.75672  1.0000
  H   H1667     1.0  0.89256  0.53410  0.40564  1.0000
  C   C2084     1.0  0.84459  0.50935  0.03564  1.0000
  H   H1668     1.0  0.96477  0.51087  0.40709  1.0000
  C   C2085     1.0  0.96841  0.52751  0.74184  1.0000
  H   H1669     1.0  0.97464  0.56615  0.61885  1.0000
  H   H1670     1.0  0.97068  0.57326  0.30834  1.0000
  C   C2086     1.0  0.98519  0.58169  0.53736  1.0000
  H   H1671     1.0  0.89239  0.51990  0.88725  1.0000
  C   C2087     1.0  0.86863  0.52923  0.11835  1.0000
  H   H1672     1.0  0.96075  0.53544  0.34278  1.0000
  C   C2088     1.0  0.96600  0.57094  0.67869  1.0000
  C   C2089     1.0  0.98657  0.62016  0.02058  1.0000
  H   H1673     1.0  0.99276  0.64250  0.80576  1.0000
  H   H1674     1.0  0.95172  0.52387  0.17384  1.0000
  H   H1675     1.0  0.90839  0.52937  0.10706  1.0000
  C   C2090     1.0  0.87397  0.51548  0.18081  1.0000
  S   S282      1.0  0.90200  0.54181  0.48485  1.0000
  H   H1676     1.0  0.98253  0.53169  0.64713  1.0000
  S   S283      1.0  0.95417  0.51221  0.01887  1.0000
  H   H1677     1.0  0.93138  0.49820  0.21184  1.0000
  C   C2091     1.0  0.88164  0.52834  0.42830  1.0000
  C   C2092     1.0  0.89041  0.51895  0.16207  1.0000
  C   C2093     1.0  0.97002  0.57499  0.71755  1.0000
  C   C2094     1.0  0.95505  0.60563  0.84210  1.0000
  C   C2095     1.0  0.97338  0.58935  0.84565  1.0000
  H   H1678     1.0  0.86330  0.51276  0.63121  1.0000
  C   C2096     1.0  0.88189  0.50096  0.93978  1.0000
  C   C2097     1.0  0.97493  0.55296  0.82594  1.0000
  C   C2098     1.0  0.98852  0.52009  0.36769  1.0000
  H   H1679     1.0  0.92545  0.55272  0.23491  1.0000
  C   C2099     1.0  0.96296  0.51246  0.62652  1.0000
  H   H1680     1.0  0.98925  0.58133  0.03195  1.0000
  C   C2100     1.0  0.89581  0.52707  0.12133  1.0000
  H   H1681     1.0  0.97821  0.53900  0.74402  1.0000
  C   C2101     1.0  0.98642  0.57874  0.72569  1.0000
  C   C2102     1.0  0.99161  0.59426  0.03614  1.0000
  H   H1682     1.0  0.98643  0.52002  0.85802  1.0000
  H   H1683     1.0  0.98678  0.58718  0.42321  1.0000
  C   C2103     1.0  0.88494  0.53228  0.09924  1.0000
  S   S284      1.0  0.91992  0.52644  0.97580  1.0000
  C   C2104     1.0  0.97947  0.52220  0.62657  1.0000
  H   H1684     1.0  0.95456  0.61714  0.78138  1.0000
  C   C2105     1.0  0.97369  0.53742  0.84589  1.0000
  C   C2106     1.0  0.95882  0.50073  0.59889  1.0000
  H   H1685     1.0  0.86026  0.53359  0.10195  1.0000
  H   H1686     1.0  0.97855  0.58176  0.86435  1.0000
  C   C2107     1.0  0.93020  0.51014  0.21695  1.0000
  H   H1687     1.0  0.95151  0.53983  0.72381  1.0000
  C   C2108     1.0  0.91704  0.51084  0.24479  1.0000
  H   H1688     1.0  0.94345  0.51181  0.93871  1.0000
  H   H1689     1.0  0.96022  0.57501  0.74111  1.0000
  H   H1690     1.0  0.77184  0.49905  0.16481  1.0000
  H   H1691     1.0  0.84213  0.50892  0.50851  1.0000
  C   C2109     1.0  0.75039  0.50578  0.40223  1.0000
  H   H1692     1.0  0.98718  0.51905  0.98092  1.0000
  C   C2110     1.0  0.89076  0.50729  0.90030  1.0000
  H   H1693     1.0  0.98201  0.55534  0.44914  1.0000
  H   H1694     1.0  0.86925  0.50846  0.03427  1.0000
  H   H1695     1.0  0.87667  0.50887  0.95650  1.0000
  Fe  Fe144     1.0  0.91701  0.51732  0.61590  1.0000
  H   H1696     1.0  0.90786  0.49949  0.26079  1.0000
  H   H1697     1.0  0.80217  0.50445  0.15702  1.0000
  C   C2111     1.0  0.93935  0.50524  0.47302  1.0000
  S   S285      1.0  0.86776  0.50433  0.23134  1.0000
  C   C2112     1.0  0.94529  0.54369  0.38548  1.0000
  C   C2113     1.0  0.94399  0.55066  0.42223  1.0000
  C   C2114     1.0  0.95726  0.55465  0.44506  1.0000
  C   C2115     1.0  0.97194  0.55185  0.43100  1.0000
  C   C2116     1.0  0.99196  0.51961  0.60005  1.0000
  H   H1698     1.0  0.95324  0.51402  0.64753  1.0000
  H   H1699     1.0  0.96058  0.51277  0.50505  1.0000
  C   C2117     1.0  0.97806  0.56971  0.64843  1.0000
  S   S286      1.0  0.89990  0.53231  0.61338  1.0000
  H   H1700     1.0  0.85047  0.51829  0.17294  1.0000
  H   H1701     1.0  0.96888  0.59630  0.16545  1.0000
  H   H1702     1.0  0.97487  0.60614  0.74642  1.0000
  P   P70       1.0  0.99151  0.58322  0.77644  1.0000
  C   C2118     1.0  0.97064  0.51216  0.75095  1.0000
  H   H1703     1.0  0.86905  0.52398  0.53178  1.0000
  H   H1704     1.0  0.99219  0.50837  0.48666  1.0000
  C   C2119     1.0  0.99001  0.56337  0.80318  1.0000
  C   C2120     1.0  0.97134  0.60310  0.77962  1.0000
  C   C2121     1.0  0.85663  0.50174  0.02957  1.0000
  C   C2122     1.0  0.95991  0.60948  0.79936  1.0000
  S   S287      1.0  0.89138  0.54293  0.04822  1.0000
  C   C2123     1.0  0.86651  0.51944  0.41513  1.0000
  H   H1705     1.0  0.93266  0.55290  0.43321  1.0000
  H   H1706     1.0  0.95614  0.55984  0.47393  1.0000
  H   H1707     1.0  0.95341  0.56848  0.67219  1.0000
  C   C2124     1.0  0.85319  0.51412  0.48607  1.0000
  C   C2125     1.0  0.97340  0.54485  0.39409  1.0000
  C   C2126     1.0  0.95992  0.54080  0.37142  1.0000
  H   H1708     1.0  0.99276  0.53390  0.46209  1.0000
  C   C2127     1.0  0.97649  0.59537  0.26493  1.0000
  H   H1709     1.0  0.97795  0.53488  0.06016  1.0000
  S   S288      1.0  0.82685  0.50788  0.30649  1.0000
  C   C2128     1.0  0.98069  0.54309  0.08388  1.0000
  C   C2129     1.0  0.96775  0.54583  0.10853  1.0000
  C   C2130     1.0  0.97111  0.55629  0.13969  1.0000
  C   C2131     1.0  0.98772  0.56439  0.14482  1.0000
  P   P71       1.0  0.95416  0.55955  0.17158  1.0000
  C   C2132     1.0  0.96249  0.57367  0.20839  1.0000
  C   C2133     1.0  0.94345  0.56887  0.13721  1.0000
  C   C2134     1.0  0.95261  0.58175  0.10572  1.0000
  C   C2135     1.0  0.94453  0.58904  0.07892  1.0000
  C   C2136     1.0  0.92724  0.58329  0.08261  1.0000
  C   C2137     1.0  0.91801  0.57037  0.11339  1.0000
  C   C2138     1.0  0.92602  0.56315  0.14051  1.0000
  C   C2139     1.0  0.96331  0.56737  0.24893  1.0000
  C   C2140     1.0  0.97012  0.57820  0.27714  1.0000
  H   H1710     1.0  0.94000  0.51790  0.46365  1.0000
  C   C2141     1.0  0.98793  0.50736  0.57337  1.0000
  C   C2142     1.0  0.96895  0.59097  0.19648  1.0000
  C   C2143     1.0  0.93996  0.54033  0.20068  1.0000
  C   C2144     1.0  0.95341  0.52803  0.73024  1.0000
  H   H1711     1.0  0.94595  0.61030  0.85736  1.0000
  C   C2145     1.0  0.97771  0.59248  0.80243  1.0000
  C   C2146     1.0  0.94167  0.52481  0.19507  1.0000
  C   C2147     1.0  0.92698  0.54091  0.22978  1.0000
  H   H1712     1.0  0.95822  0.59286  0.89843  1.0000
  H   H1713     1.0  0.98224  0.51189  0.76046  1.0000
  C   C2148     1.0  0.86308  0.52068  0.15875  1.0000
  H   H1714     1.0  0.95508  0.53959  0.10363  1.0000
  P   P72       1.0  0.99242  0.54177  0.37365  1.0000
  H   H1715     1.0  0.96603  0.58609  0.10152  1.0000
  H   H1716     1.0  0.95165  0.59892  0.05464  1.0000
  H   H1717     1.0  0.92098  0.58860  0.06111  1.0000
  H   H1718     1.0  0.90458  0.56568  0.11562  1.0000
  H   H1719     1.0  0.91840  0.55292  0.16311  1.0000
  H   H1720     1.0  0.95884  0.55410  0.25881  1.0000
  C   C2149     1.0  0.97591  0.60173  0.22462  1.0000
  H   H1721     1.0  0.96196  0.52953  0.86361  1.0000
  C   C2150     1.0  0.86843  0.52264  0.49937  1.0000
  C   C2151     1.0  0.91547  0.52622  0.25132  1.0000
  C   C2152     1.0  0.82828  0.50106  0.02951  1.0000
  C   C2153     1.0  0.96191  0.59572  0.86524  1.0000
  C   C2154     1.0  0.85216  0.51239  0.44394  1.0000
  C   C2155     1.0  0.97128  0.49814  0.57188  1.0000
  H   H1722     1.0  0.76006  0.51568  0.38217  1.0000
  C   C2156     1.0  0.95090  0.50225  0.49686  1.0000
  H   H1723     1.0  0.90492  0.50260  0.84747  1.0000
  H   H1724     1.0  0.98197  0.60374  0.28661  1.0000
  H   H1725     1.0  0.99083  0.57305  0.16733  1.0000
  C   C2157     1.0  0.98871  0.56683  0.54052  1.0000
  H   H1726     1.0  0.81899  0.50705  0.03414  1.0000
  C   C2158     1.0  0.97403  0.50768  0.38794  1.0000
  C   C2159     1.0  0.98740  0.53200  0.84239  1.0000
  H   H1727     1.0  0.98047  0.62744  0.00401  1.0000
  C   C2160     1.0  0.86206  0.49975  0.63078  1.0000
  H   H1728     1.0  0.87597  0.49902  0.68159  1.0000
