data_image0
_chemical_formula_structural       SFeSCFeSFeS2Fe2S2FeS2FeSFeS3C3H2PHC4H4C4H2C2H3C6H7PHC3H2CHCH5SH2C2SCH2CH5C2HCH3C4PC12HCHC3HCHC2HCH2PC2H3CHC4H4CHC2H2PHC11HCHC3HC3H2CH6CHC4PC21H18CHC2HC3H2CHC2HC2H2C2H2CH2CHC3H2CHCHCHC3FeS2FeSHFeSFeHS2FeS2FeS2FeSFeS3FeS2FeS2FeSFeS3HCH3C3H2C6H5C3PC4HCH2C3H3C7H4CPC5H3C2HCHCHCH2CH3C3H2C3PC13HC2H4C2H6C3H3C4HC2HC2HC8H4CH4CH2PCHC5HCH2CH5C4H2CH2C2HC2HCH4C2HCHC2HCH2C2SC2HC4H2CPCH2CH4C6PC18H18CH2C2H2C2H2CHCHC2HC2H2C4H2CHCHC4H2CHCHC6HC6H3CHC5HCHC2FeSHFeS2FeSFeS2CFeS2FeS2FeSFeS3PFeS2FeS2FeSFeS3CH3C5H3C6H4CHC6H4CHC5H3C6H6C2H4C6PC10HC7H10CH2CH6C2PC18H3CH11CHC2PC4HCH2C2H2CH3C2HPH2C3H2CH3C3HC6PC7HCH2C7H2C3H4C2HC2H5C2HCHCH2C3HC2HCHCHC2HCH2C4H9C2HC2HC2HC3HC2HC3HC2H2CH3C2H2SCH2CHC2HC3H4C3HCHC4HCHCH2CHCHC2PCHC4H2CH8C2H3CH2C4HC4HC2H3CH2CFeS2FeS2FeSFeS3FeSCSFeSFeS2C4HC3HC7H4C6H4CHC5H3CHCH5C5HC3H2CHCHSC4HCH3CHCHCHCHC5HCH2PCH3CHC7HCH3FeC2H4C2H2C3PCH6C3HC10H2CSHCH3CPH7CH2CHC4HCH3PCHC2HC3H2C3HCHCHC2HCPH2CHCH2C4HC2SC2H2C6HCHSCFeSCFeSFeSHSFeS2FeS2FeSFeS3C3H2CHC2H3C4H4C6H5CH2C4HC2HCHCPHCHC2H2CH4CHC2HC3HCHCH2CH4CHC6HC2HPCSHC2H4CH2CHC2H6C2HSCPHCHC2HCHC3HC2HC7HCH2CHCHCH2CH2CHCHCHC2HC5HC9HCHFeHCH2C2H4C2H3C2HCHC2H2CHC2H2CFeS2FeS2FeSFeS3FeS2FeS2FeSFeS3HFeS2FeS2FeCFeS3HCHC4H2C3HC2HCH2C6H4C6H2CHC6H4C4H3C4H2C4HPC18H5CH11CH6C2HC7H4CHC2H2C2HC3H3CHC2H4PC4HCH3C2H6CH3CH2CH2PH2C3HC3HC3SC4HCHC3HCH2C5HC2PCHC2HCH4CH3CHC2H2C3H3CH3CH2CHCHC7HCH2C5HC2HCH3CHCHCP2CHC4HC2HC2HCH2C2H4CH2CH2C2HC2HC2H3C2SHCH2C3FeSHFeS2FeSFeS3FeS2FeS2FeSFeS3CFeS2FeSFeSFeS3HCHC2HCHC6H4C3SC2HCH2C6H4C6H4CH2C6H2CHC6PCHCHC5H2CHC5H6CSC3HCH6C6PC2HCHC7H4CHC2H3CH2C6H2C2HC2HC4H4CH4CHCHCH4CH2CH2C6PC4HC13HCH3PCH12C5H2C3H6CPC7H2CHC9H6C2H5CH4C4HC2H2C3HC2HCHCH2C4HCHC2H3C3HCHCH3C6HC3SCHCH6CH2CHCPCH3CHCHCHPCH2CHC4HCH2C3HCFeSCFeS2FeSFeS3FeSHFeS2FeSFeS3C2HC2HCH3C7H4C6H3CH6CH6C2H2CHC3SCH4CH2C2H2C2HC2H3CHC5HCH4CH2C3HCH2CSCHCHCHC2HCHCHCH3C4H2C3HCH2CH4C2H2C2HC6PC13H3CH2CHCHCHC4HCHC3PHCHC2FeS2FeS2FeSFeS3FeSHS2FeSFeS2FeSCFeSFeS3HSCHCFeC7H5C2H6C8HCH2C6H4C6H5C2HCHCHC5H8C6PC18H8CH3CH7C3H3C2HC2HSCHC2H3CHCHC10HCHC3HCHPC3HCH2C2H5CH2PC6PC2HCH2CH2C4H8C2H2CH5C4HPC2H3C2HC2HC2HCH4CFeCH2C3H2CH2C2FeH4CH2C2HC3SFeHCHC2FePSC3HSFeHCSC2HC2HCHSC2HC2HC2H2CHC2HCHC4H3C3SHCHC4H3C2H5SCHC2H2CH2C3HCSCH2C4HPC2FeSCHSCFeSCSFeS2FeS2FeCFeS3C3H2CH2C7H4CHCHCHC2H4CHCHC3H3CH2C3HC4HC5H2CH8CPHCHCHCFeHCHC5HCHC3HC2SH3CHCHC2HCHCHCFeHCH4C3HC2FeSHFeS2FeSFeS3FeSFeS2FeSFeS3C6HCH4C3H2C2PH4C7H4C2HC2H2C8H2CH2CSH3CHC4HCHCHC3H2C4HSCH4C2HC2HC2H4CHCH2C2PHC4H2CHCSCH3C2HC6HC6HCHC2H5CHCH3C3H3CHCH2FeS2FeS2FeSFeS3FeCHFeS2FeCFeHS2FeS2FeS2FeSFeS4HFeS2HC10H4CHCHC2HCH2C6H5PCH2C6H4C6H4SHC2H4CHCH2C5H9PC3H2C2HCH2C2HC2HCH2C2HC3H3C4HFeCH2C7PC5HC7H8CH5CH2C6HFeH2SH3SC4HC3H2C3HCHCHC4H4C2HC11HCH4C6H2CH2C2HPH2CHC3HC8PC3H2C13H7CH13CH3C2HC2H3C2H2C2H2CH2C3H3S2H2C3H2CSH2CHC3H2CSPH2CHCHCHC3H2C2HCHCH2FeCFeS2FeS2FeSFeS3FeS2FeS2FeHFeS4FeSFeSHSFeS2FeS2FeSFeS3HC6H2CHC6H4CH2C7H3C5H2C6H4C6H5CH3CSCHCHSHC6HCH5CHCHC2H3C3H2C7PC18H7SH13C2PC15H8PH5C6PC18H6CH11CHC4HCH3CH2CH2C2PH4C3HSHFe2HCH2CH4SCSHCHC2HCHC3HCHC3H2CHC2HC11H2C3H2CHPHCHC5HC3HC3H2PH2CHCH4C2H4C5HC5HC2H3C4H2C4HPHCHC2H2C5H2CPC3H3CHC2H3CHCHCHCHC4H3C7SCPH3CH3C6HCH2C3H2C3H4C4HC3H2FeS2FeSFeS2FeS2FeS2FeSFeS3C2HCH3C4HPH2C3HC3H3CHPHC6H6C9HC2HC2H2C3PCHC6HC3FeC3H2CH3CHCH3C6SHCH3CHCHC2H6C3HCHC2H2C2HCHSCHCHCHC4H2PC2H3C2H2C8HCH3C2HC3H2CHCH5PHCHCHCH2C2H2C3HC2H8C3HCHCHC4HCHC7HCHCHSCH2C2HCH3CHC5HPFeS2FeS2FeSFeS3Fe2S2FeSFeS3C4H2C3HCHC4HCH3CHCH2C6H4C2H3CHSH2C2PHC2H2C5HC3H2C16H2C5H3CHCH7CPCH3C2HSH2C3HCH3C11PC18H22C5H2CHCHCH2CHC4HC3H4C5HCHCH3C2PC2H4C2PCH4CH4CHCHCHC2H6C2HC2PHCH2C3H2C2PCP2H3C5HFeS2FeS2FeSFeS3FeSHFeS2FeSFeS3FeS2FeS2FeSFeS3FeS2FeS2FeSFeS3CHC4HCH2C6H4C2H4CHCH4C4H2C8H2C2PH2C2HC6H4C6H5CH2CHC8HCH5C4HCH2CH3CH2CH4C2H2C2H2SHC2HC11HCHC3H4CHC2PC4HC13H4CH3C3H2C2H4C2HCH2CHCHC2HC3H3CH2C3HC4H7CHC2H2C2H3C3H2C3HC2H3C3HC3HCHCHC3HC2HCH2C4HPHC2HC5HC3HPCHC6H2C4HC2H3C6HC2H2C3HC2H2C2H2CH2C2PCH3CHC2H2CH7PC2HCHCHC2HC4H5C3HC2HC2HCH2C4HC4HCPC2H2CH4CHCH3C3H3C3HC2HC2H5C4HCHCH2C2HC2FeS2FeS2FeSFeS3HFeSFeS2FeSFeS3CHC4HCHC4HCHC6HSH2C6H4CH4C6H5PHCHC2H3CH2C2HC6HC13H2CH2CH3CH7C2H2CHC3PCHCHSCHC13H2C2H2CH4CH5C2PCH2C4H2PHCSCH2C3HC4HC2PHC2HC2HC2H3SC2HC2HCH2CHCHC2H2CH2C5HCH2C3H2CH4C8PC18H22CH3CHC2HC3H4CH2CHC2H2CHC2HC4HC2PC2H2C2FeS2FeSHFeSFeS3H2FeS2FeS2FeSFeS3FeS2FeS2FeSFeS3HCHCSC2HC6H5C2HSHC3HCHC7H8C4H2CH4PC2HC2HCHC2HC3HCHCSPCH2CHC4H3C3HC3HC7HCHC7HCH2CH2C3H2C6PC12H10CH5CHCHC6PC8HC10H19C2H5CHC2H2CHCH2C2HCPSHCHC2H2CH2CH5CH2C3HC6H3C2H2CH5C2HCHC5H3CFeS2FeS2FeSFeS3HFeSFeS2FeSFeS3FeS2FeS2FeSFeS3C3H4CH2C6H5C2H2C3H4C6H4C3H2C6HCH6C3HC3HCPH5CHC2H2C6PC9PC8H11CH3CH2C2HC2H2CHCHCH2CH3C6PC2SC9H3CH3C6H3C2H5C4HCHCHC3H2CHCHC7HC2H3C2H2C2H4CPHCHC4H2CHC8HC2H9CHPCHCHC7HCHCHC2HC2HC3HCH7C3H2CHC2HC2HCHC3HC5PH2CH3C4HC2HCHSHFeS2FeS2FeSFeS3FeS2FeS2FeSFeS2CHC4H3C6HC5H4C2H2C2HC2HC6H4C6H5C2H3CH2C2H2CSHSC2HPC16HCH15C6HC8HC2H4CHCHCHC2HCHC2H2CHCHC3HC3HCHC2HC3HCH2C6H6CH4CHCHC2HCHCH2C2HCHC2P2C2HC4H3C2H2C2H2CH3CHCH3C3HCHPC2PH4CHC3HCHC2H4CHCH2CHCH2C2H4C8HC3H3C2HC2FeS2FeSFeSFeS3FeS2FeS2FeSFeS3H3C2HC3H3C7H5CH2C3HCH2C7H4CHC2HC4H5C2H3CH2C2H2C3H5C2HC2H2C2H4C2H2C3H2CHSHCHC7HC2HC5H4C2HC2H3CHC2HC2HCHC3H3C4PC7H2CHCH4CH4CHC3HCHC4FeS2FeS2FeSFeS3HCH2FeS2FeS2FeSFeS2FeS2FeSCFeHFeS3C2HCH3C2HC6H4C4H2CHCHC9H4C4HCH2C5H2C3H2C2HC4PC3HCHC12H6C2H9C2HC6PC4HC14H5C2H13CHC2H3PC9HCH8C2H5SCHCHC2HC3H2C4HC2HC2H2CPH2C6PHCH2C3HPC4H2CHPC2HCHC4HCHCH2C2H2C3H2C2HSCHC2H2CH2CHC2H3SC3H3CHCHC5HC5HC3HCH3C2HCSH6C2HCH4CHCH2C2H4C3H2C2SH3CFeS2FeS2FeSFeS3HCFeSFeS2FeSFeHS2FeS2FeSCFeSHSHC4H2C2H3C6H4C6H4C2HCHC3HC2HCH4C5HC2HCHCHC2SC2HC3HC2H2C2H4CHCH2C3H2CHC2H2CSC6PC18H21CHCHC2HCHFeH2PC2HC6PC15HC2H16C2HCHCH2CH2CH2CH4C3HCSCH2C3HCHC2H3C2H3C3H3C2HC3HCHC3HC7HC4H2C2HC2FeS2FeSCFeSFeS3FeS2FeS2FeHFeHS2C2H2CHC2HCHC7H6C3H3C7PCHC2HC3HC4H10CHCHC2HC2PHC2HCH4C3H2CH2CH2C4HCSCH3CH2CH2CH3CHC4SH2CHC6HC3H3C3PHCHCH2CHCH3C4HCH7CH2SHC6H2CH3C2HCH
_chemical_formula_sum              "S512 Fe256 C3840 H3072 P128"
_cell_length_a       65.7348
_cell_length_b       66.1927
_cell_length_c       79.7862
_cell_angle_alpha    81.6327
_cell_angle_beta     81.7607
_cell_angle_gamma    80.8083

_space_group_name_H-M_alt    "P 1"
_space_group_IT_number       1

loop_
  _space_group_symop_operation_xyz
  'x, y, z'

loop_
  _atom_site_type_symbol
  _atom_site_label
  _atom_site_symmetry_multiplicity
  _atom_site_fract_x
  _atom_site_fract_y
  _atom_site_fract_z
  _atom_site_occupancy
  S   S1        1.0  0.28124  0.33384  0.05041  1.0000
  Fe  Fe1       1.0  0.28053  0.39234  0.03310  1.0000
  S   S2        1.0  0.25152  0.37797  0.04180  1.0000
  C   C1        1.0  0.22265  0.24804  0.09253  1.0000
  Fe  Fe2       1.0  0.26787  0.36168  0.06370  1.0000
  S   S3        1.0  0.25274  0.36219  0.09113  1.0000
  Fe  Fe3       1.0  0.26714  0.35177  0.02761  1.0000
  S   S4        1.0  0.24800  0.33614  0.01349  1.0000
  S   S5        1.0  0.29635  0.37741  0.05578  1.0000
  Fe  Fe4       1.0  0.30833  0.35084  0.04046  1.0000
  Fe  Fe5       1.0  0.13765  0.35856  0.13564  1.0000
  S   S6        1.0  0.14928  0.36283  0.15986  1.0000
  S   S7        1.0  0.15785  0.34981  0.11142  1.0000
  Fe  Fe6       1.0  0.09146  0.36995  0.14961  1.0000
  S   S8        1.0  0.09992  0.37483  0.17481  1.0000
  S   S9        1.0  0.05758  0.38115  0.14562  1.0000
  Fe  Fe7       1.0  0.12526  0.39108  0.15990  1.0000
  S   S10       1.0  0.13141  0.42000  0.16903  1.0000
  Fe  Fe8       1.0  0.12295  0.34629  0.17289  1.0000
  S   S11       1.0  0.12513  0.32273  0.19625  1.0000
  S   S12       1.0  0.11565  0.38824  0.13460  1.0000
  S   S13       1.0  0.11267  0.33973  0.14865  1.0000
  C   C2        1.0  0.12050  0.44294  0.15765  1.0000
  C   C3        1.0  0.10979  0.44242  0.14384  1.0000
  C   C4        1.0  0.12317  0.46197  0.16206  1.0000
  H   H1        1.0  0.10706  0.42797  0.14065  1.0000
  H   H2        1.0  0.13105  0.46247  0.17292  1.0000
  P   P1        1.0  0.13946  0.47006  0.21454  1.0000
  H   H3        1.0  0.14216  0.46554  0.11255  1.0000
  C   C5        1.0  0.01619  0.37766  0.14815  1.0000
  C   C6        1.0  0.03654  0.36705  0.14651  1.0000
  C   C7        1.0  0.03952  0.34605  0.14463  1.0000
  C   C8        1.0  0.02228  0.33592  0.14423  1.0000
  H   H4        1.0  0.18981  0.32630  0.15402  1.0000
  H   H5        1.0  0.01360  0.39384  0.14969  1.0000
  H   H6        1.0  0.05510  0.33774  0.14319  1.0000
  H   H7        1.0  0.02469  0.31972  0.14265  1.0000
  C   C9        1.0  0.14605  0.34505  0.21301  1.0000
  C   C10       1.0  0.13093  0.33204  0.21445  1.0000
  C   C11       1.0  0.22175  0.22698  0.09310  1.0000
  C   C12       1.0  0.23361  0.29926  0.07345  1.0000
  H   H8        1.0  0.15404  0.34983  0.20060  1.0000
  H   H9        1.0  0.07405  0.30821  0.23281  1.0000
  C   C13       1.0  0.10285  0.46073  0.13386  1.0000
  C   C14       1.0  0.30036  0.44022  0.04275  1.0000
  H   H10       1.0  0.28547  0.30564  0.00527  1.0000
  H   H11       1.0  0.20168  0.45346  0.05101  1.0000
  H   H12       1.0  0.28571  0.26095  0.13118  1.0000
  C   C15       1.0  0.22594  0.36030  0.09638  1.0000
  C   C16       1.0  0.21461  0.35463  0.08472  1.0000
  C   C17       1.0  0.19363  0.35213  0.08945  1.0000
  C   C18       1.0  0.18385  0.35473  0.10596  1.0000
  C   C19       1.0  0.19504  0.36079  0.11758  1.0000
  C   C20       1.0  0.21605  0.36348  0.11281  1.0000
  H   H13       1.0  0.22208  0.35185  0.07211  1.0000
  H   H14       1.0  0.18487  0.34811  0.08027  1.0000
  H   H15       1.0  0.18766  0.36290  0.13033  1.0000
  H   H16       1.0  0.22475  0.36773  0.12196  1.0000
  H   H17       1.0  0.17862  0.31874  0.06031  1.0000
  H   H18       1.0  0.18246  0.30325  0.08983  1.0000
  H   H19       1.0  0.04158  0.42506  0.12569  1.0000
  P   P2        1.0  0.22194  0.45857  0.10763  1.0000
  H   H20       1.0  0.24911  0.29368  0.07673  1.0000
  C   C21       1.0  0.22365  0.42747  0.05920  1.0000
  C   C22       1.0  0.23501  0.41772  0.07235  1.0000
  C   C23       1.0  0.23127  0.30825  0.05673  1.0000
  H   H21       1.0  0.24304  0.41905  0.09720  1.0000
  H   H22       1.0  0.17555  0.27853  0.11604  1.0000
  C   C24       1.0  0.99384  0.26415  0.22215  1.0000
  H   H23       1.0  0.24206  0.38347  0.99970  1.0000
  C   C25       1.0  0.28564  0.44556  0.03125  1.0000
  H   H24       1.0  0.21725  0.31436  0.13188  1.0000
  H   H25       1.0  0.14816  0.29116  0.13819  1.0000
  H   H26       1.0  0.24480  0.30979  0.04737  1.0000
  H   H27       1.0  0.26885  0.47079  0.01624  1.0000
  H   H28       1.0  0.29748  0.29539  0.12468  1.0000
  S   S14       1.0  0.29481  0.36726  0.01683  1.0000
  H   H29       1.0  0.22518  0.42075  0.04739  1.0000
  H   H30       1.0  0.99821  0.39817  0.10353  1.0000
  C   C26       1.0  0.19969  0.47826  0.11015  1.0000
  C   C27       1.0  0.27988  0.47444  0.09007  1.0000
  S   S15       1.0  0.27416  0.42664  0.02383  1.0000
  C   C28       1.0  0.21824  0.41270  0.15694  1.0000
  H   H31       1.0  0.20853  0.25261  0.13482  1.0000
  H   H32       1.0  0.09513  0.46015  0.12288  1.0000
  C   C29       1.0  0.14715  0.42739  0.21455  1.0000
  H   H33       1.0  0.25196  0.25597  0.12366  1.0000
  H   H34       1.0  0.32078  0.45143  0.05704  1.0000
  H   H35       1.0  0.15542  0.31446  0.15755  1.0000
  H   H36       1.0  0.20982  0.32228  0.03900  1.0000
  H   H37       1.0  0.08935  0.40508  0.20080  1.0000
  C   C30       1.0  0.16813  0.46391  0.18523  1.0000
  C   C31       1.0  0.21148  0.31525  0.05198  1.0000
  H   H38       1.0  0.18317  0.46137  0.13173  1.0000
  C   C32       1.0  0.13263  0.46709  0.04046  1.0000
  H   H39       1.0  0.23496  0.47462  0.03519  1.0000
  H   H40       1.0  0.18881  0.45967  0.16215  1.0000
  H   H41       1.0  0.00163  0.27680  0.21548  1.0000
  C   C33       1.0  0.02172  0.41021  0.11383  1.0000
  C   C34       1.0  0.02594  0.42546  0.12276  1.0000
  C   C35       1.0  0.00991  0.44063  0.12829  1.0000
  C   C36       1.0  0.00162  0.41032  0.11000  1.0000
  P   P3        1.0  0.01536  0.46066  0.13940  1.0000
  C   C37       1.0  0.03604  0.45209  0.15254  1.0000
  C   C38       1.0  0.00198  0.34675  0.14540  1.0000
  C   C39       1.0  0.24425  0.28767  0.11244  1.0000
  C   C40       1.0  0.11269  0.46873  0.03577  1.0000
  C   C41       1.0  0.30113  0.29831  0.00165  1.0000
  C   C42       1.0  0.21091  0.42298  0.12778  1.0000
  C   C43       1.0  0.19866  0.29524  0.12233  1.0000
  C   C44       1.0  0.08002  0.45946  0.21305  1.0000
  C   C45       1.0  0.21120  0.22460  0.12357  1.0000
  C   C46       1.0  0.06861  0.43895  0.17256  1.0000
  C   C47       1.0  0.05620  0.42485  0.16964  1.0000
  C   C48       1.0  0.03980  0.43143  0.15984  1.0000
  H   H42       1.0  0.24166  0.31995  0.10246  1.0000
  C   C49       1.0  0.22896  0.42957  0.15582  1.0000
  H   H43       1.0  0.16778  0.44757  0.18838  1.0000
  C   C50       1.0  0.25685  0.27105  0.12058  1.0000
  C   C51       1.0  0.16742  0.30916  0.14770  1.0000
  C   C52       1.0  0.10056  0.45728  0.21652  1.0000
  H   H44       1.0  0.01852  0.33743  0.21835  1.0000
  C   C53       1.0  0.27999  0.46649  0.02530  1.0000
  H   H45       1.0  0.23875  0.45633  0.14016  1.0000
  C   C54       1.0  0.26268  0.46382  0.09341  1.0000
  C   C55       1.0  0.22180  0.43988  0.12651  1.0000
  H   H46       1.0  0.24511  0.40329  0.07089  1.0000
  C   C56       1.0  0.22136  0.44583  0.08913  1.0000
  H   H47       1.0  0.23585  0.43215  0.16675  1.0000
  H   H48       1.0  0.21683  0.40221  0.16869  1.0000
  P   P4        1.0  0.21922  0.28466  0.10701  1.0000
  C   C57       1.0  0.08750  0.39493  0.21266  1.0000
  C   C58       1.0  0.11338  0.47209  0.20910  1.0000
  H   H49       1.0  0.05958  0.40868  0.17454  1.0000
  H   H50       1.0  0.03038  0.42027  0.15774  1.0000
  H   H51       1.0  0.30501  0.42417  0.04728  1.0000
  C   C59       1.0  0.18687  0.31573  0.14577  1.0000
  H   H52       1.0  0.30037  0.33999  0.08498  1.0000
  C   C60       1.0  0.25252  0.33326  0.99151  1.0000
  C   C61       1.0  0.23378  0.42674  0.08730  1.0000
  C   C62       1.0  0.07069  0.36783  0.23055  1.0000
  C   C63       1.0  0.11590  0.48038  0.15226  1.0000
  H   H53       1.0  0.16417  0.36004  0.22658  1.0000
  H   H54       1.0  0.25508  0.47910  0.05800  1.0000
  H   H55       1.0  0.08182  0.43379  0.17957  1.0000
  H   H56       1.0  0.23157  0.31069  0.99497  1.0000
  C   C64       1.0  0.16339  0.29592  0.13684  1.0000
  H   H57       1.0  0.20355  0.42034  0.11714  1.0000
  C   C65       1.0  0.25116  0.30699  0.10870  1.0000
  C   C66       1.0  0.19624  0.30432  0.08074  1.0000
  H   H58       1.0  0.26779  0.40769  0.99504  1.0000
  H   H59       1.0  0.07029  0.44790  0.21879  1.0000
  P   P5        1.0  0.05143  0.35051  0.23392  1.0000
  H   H60       1.0  0.15313  0.39453  0.21427  1.0000
  C   C67       1.0  0.07262  0.38150  0.21538  1.0000
  C   C68       1.0  0.19397  0.31317  0.06395  1.0000
  C   C69       1.0  0.10063  0.39468  0.22497  1.0000
  C   C70       1.0  0.15381  0.40714  0.22135  1.0000
  C   C71       1.0  0.05126  0.33993  0.21433  1.0000
  C   C72       1.0  0.06978  0.33607  0.20344  1.0000
  C   C73       1.0  0.06995  0.32735  0.18849  1.0000
  C   C74       1.0  0.05157  0.32250  0.18424  1.0000
  C   C75       1.0  0.03302  0.32630  0.19499  1.0000
  C   C76       1.0  0.03289  0.33485  0.21006  1.0000
  C   C77       1.0  0.21610  0.29737  0.08566  1.0000
  H   H61       1.0  0.03386  0.39786  0.11041  1.0000
  C   C78       1.0  0.99001  0.44126  0.12360  1.0000
  H   H62       1.0  0.06283  0.38155  0.20554  1.0000
  C   C79       1.0  0.20242  0.30889  0.13312  1.0000
  C   C80       1.0  0.17893  0.28894  0.12423  1.0000
  C   C81       1.0  0.21055  0.44599  0.06120  1.0000
  H   H63       1.0  0.20680  0.21551  0.13561  1.0000
  C   C82       1.0  0.18013  0.47077  0.17015  1.0000
  C   C83       1.0  0.06440  0.45968  0.16591  1.0000
  C   C84       1.0  0.20944  0.45522  0.07607  1.0000
  H   H64       1.0  0.29320  0.46923  0.08128  1.0000
  H   H65       1.0  0.14108  0.43009  0.20235  1.0000
  C   C85       1.0  0.00053  0.24428  0.21772  1.0000
  H   H66       1.0  0.14259  0.47847  0.03482  1.0000
  H   H67       1.0  0.08418  0.33961  0.20662  1.0000
  H   H68       1.0  0.08441  0.32429  0.18027  1.0000
  H   H69       1.0  0.05171  0.31580  0.17262  1.0000
  H   H70       1.0  0.01878  0.32264  0.19158  1.0000
  H   H71       1.0  0.10990  0.31498  0.23190  1.0000
  C   C86       1.0  0.09996  0.45382  0.04274  1.0000
  H   H72       1.0  0.08460  0.45493  0.03892  1.0000
  C   C87       1.0  0.04801  0.46632  0.15616  1.0000
  C   C88       1.0  0.13975  0.45068  0.05230  1.0000
  C   C89       1.0  0.12687  0.43591  0.05967  1.0000
  C   C90       1.0  0.10708  0.43734  0.05453  1.0000
  P   P6        1.0  0.13671  0.41453  0.07445  1.0000
  C   C91       1.0  0.11685  0.39931  0.08465  1.0000
  C   C92       1.0  0.15731  0.39946  0.06224  1.0000
  C   C93       1.0  0.17813  0.39915  0.06452  1.0000
  C   C94       1.0  0.19394  0.38784  0.05464  1.0000
  C   C95       1.0  0.18921  0.37680  0.04241  1.0000
  C   C96       1.0  0.16852  0.37730  0.03988  1.0000
  C   C97       1.0  0.15261  0.38871  0.04968  1.0000
  C   C98       1.0  0.12052  0.37766  0.08611  1.0000
  C   C99       1.0  0.10571  0.36601  0.09538  1.0000
  C   C100      1.0  0.08725  0.37584  0.10340  1.0000
  C   C101      1.0  0.08368  0.39734  0.10229  1.0000
  C   C102      1.0  0.09845  0.40905  0.09307  1.0000
  C   C103      1.0  0.14570  0.42320  0.09211  1.0000
  C   C104      1.0  0.14118  0.44389  0.09516  1.0000
  C   C105      1.0  0.14644  0.44971  0.10995  1.0000
  C   C106      1.0  0.15568  0.43488  0.12198  1.0000
  C   C107      1.0  0.16016  0.41430  0.11902  1.0000
  C   C108      1.0  0.15526  0.40851  0.10411  1.0000
  C   C109      1.0  0.28270  0.29319  0.12124  1.0000
  C   C110      1.0  0.27604  0.27382  0.12490  1.0000
  C   C111      1.0  0.99905  0.36768  0.14743  1.0000
  H   H73       1.0  0.15532  0.44942  0.05573  1.0000
  H   H74       1.0  0.09714  0.42572  0.05945  1.0000
  H   H75       1.0  0.18232  0.40746  0.07393  1.0000
  H   H76       1.0  0.20987  0.38729  0.05680  1.0000
  H   H77       1.0  0.20158  0.36784  0.03493  1.0000
  H   H78       1.0  0.16483  0.36883  0.03033  1.0000
  H   H79       1.0  0.13663  0.38906  0.04755  1.0000
  H   H80       1.0  0.13514  0.36962  0.08082  1.0000
  H   H81       1.0  0.10894  0.34932  0.09690  1.0000
  H   H82       1.0  0.07605  0.36680  0.11105  1.0000
  H   H83       1.0  0.06987  0.40483  0.10924  1.0000
  H   H84       1.0  0.09582  0.42564  0.09297  1.0000
  H   H85       1.0  0.13281  0.45542  0.08666  1.0000
  H   H86       1.0  0.26165  0.45202  0.99391  1.0000
  H   H87       1.0  0.15843  0.43909  0.13399  1.0000
  H   H88       1.0  0.16662  0.40265  0.12859  1.0000
  H   H89       1.0  0.15811  0.39242  0.10224  1.0000
  H   H90       1.0  0.20085  0.39637  0.14381  1.0000
  C   C112      1.0  0.20924  0.40941  0.14291  1.0000
  H   H91       1.0  0.27519  0.32489  0.11038  1.0000
  C   C113      1.0  0.21209  0.24565  0.12306  1.0000
  C   C114      1.0  0.21755  0.25760  0.10749  1.0000
  H   H92       1.0  0.22727  0.25678  0.08041  1.0000
  C   C115      1.0  0.15165  0.35099  0.22775  1.0000
  C   C116      1.0  0.23066  0.44319  0.14069  1.0000
  C   C117      1.0  0.24515  0.47089  0.10443  1.0000
  H   H93       1.0  0.05505  0.47158  0.12086  1.0000
  H   H94       1.0  0.26316  0.45040  0.08703  1.0000
  C   C118      1.0  0.27023  0.30977  0.11315  1.0000
  H   H95       1.0  0.22555  0.21972  0.08149  1.0000
  C   C119      1.0  0.30926  0.45570  0.04826  1.0000
  C   C120      1.0  0.14811  0.44391  0.22350  1.0000
  H   H96       1.0  0.21525  0.19896  0.10900  1.0000
  C   C121      1.0  0.21598  0.21527  0.10859  1.0000
  C   C122      1.0  0.12114  0.32547  0.23069  1.0000
  H   H97       1.0  0.01325  0.24172  0.20765  1.0000
  H   H98       1.0  0.31361  0.30812  0.02218  1.0000
  C   C123      1.0  0.31698  0.29970  0.01118  1.0000
  C   C124      1.0  0.18296  0.47533  0.12286  1.0000
  H   H99       1.0  0.11244  0.40468  0.22266  1.0000
  H   H100      1.0  0.10630  0.44412  0.22510  1.0000
  C   C125      1.0  0.30320  0.47666  0.04265  1.0000
  H   H101      1.0  0.19962  0.46983  0.07707  1.0000
  H   H102      1.0  0.31232  0.30232  0.08872  1.0000
  C   C126      1.0  0.30542  0.28717  0.98765  1.0000
  H   H103      1.0  0.99610  0.21230  0.22286  1.0000
  C   C127      1.0  0.31624  0.33420  0.08729  1.0000
  C   C128      1.0  0.07208  0.47650  0.20221  1.0000
  C   C129      1.0  0.15662  0.47814  0.19571  1.0000
  H   H104      1.0  0.07434  0.47051  0.16776  1.0000
  H   H105      1.0  0.05621  0.47810  0.19943  1.0000
  C   C130      1.0  0.99347  0.46962  0.15417  1.0000
  H   H106      1.0  0.03377  0.39467  0.22922  1.0000
  C   C131      1.0  0.02183  0.38587  0.23570  1.0000
  H   H107      1.0  0.99871  0.41276  0.23632  1.0000
  C   C132      1.0  0.10627  0.47967  0.13786  1.0000
  H   H108      1.0  0.32173  0.30135  0.05518  1.0000
  C   C133      1.0  0.99087  0.22771  0.22629  1.0000
  C   C134      1.0  0.24581  0.39153  0.98706  1.0000
  C   C135      1.0  0.02173  0.48121  0.12294  1.0000
  Fe  Fe9       1.0  0.26878  0.01056  0.42279  1.0000
  S   S16       1.0  0.23506  0.02087  0.42038  1.0000
  S   S17       1.0  0.27895  0.99469  0.44789  1.0000
  Fe  Fe10      1.0  0.28241  0.02121  0.38440  1.0000
  S   S18       1.0  0.24946  0.03195  0.37896  1.0000
  H   H109      1.0  0.99410  0.13450  0.43066  1.0000
  Fe  Fe11      1.0  0.24568  0.04788  0.40263  1.0000
  S   S19       1.0  0.23353  0.08179  0.40514  1.0000
  Fe  Fe12      1.0  0.24157  0.00409  0.39720  1.0000
  H   H110      1.0  0.29417  0.08552  0.47000  1.0000
  S   S20       1.0  0.27936  0.03866  0.40689  1.0000
  S   S21       1.0  0.27455  0.99222  0.40079  1.0000
  Fe  Fe13      1.0  0.11115  0.38852  0.31208  1.0000
  S   S22       1.0  0.10717  0.39125  0.28442  1.0000
  S   S23       1.0  0.11571  0.41423  0.32678  1.0000
  Fe  Fe14      1.0  0.10125  0.34355  0.31902  1.0000
  S   S24       1.0  0.09637  0.34294  0.29175  1.0000
  S   S25       1.0  0.09252  0.32000  0.34174  1.0000
  Fe  Fe15      1.0  0.12455  0.35906  0.28493  1.0000
  S   S26       1.0  0.14857  0.35340  0.26209  1.0000
  Fe  Fe16      1.0  0.07950  0.37495  0.29310  1.0000
  S   S27       1.0  0.05002  0.38565  0.28129  1.0000
  S   S28       1.0  0.13107  0.35736  0.31226  1.0000
  S   S29       1.0  0.08182  0.37464  0.32079  1.0000
  Fe  Fe17      1.0  0.12834  0.16210  0.40324  1.0000
  S   S30       1.0  0.14640  0.18866  0.39528  1.0000
  S   S31       1.0  0.14030  0.12757  0.40388  1.0000
  Fe  Fe18      1.0  0.08798  0.19072  0.41211  1.0000
  S   S32       1.0  0.10315  0.21943  0.40540  1.0000
  S   S33       1.0  0.05435  0.19392  0.42399  1.0000
  Fe  Fe19      1.0  0.11887  0.20497  0.38237  1.0000
  S   S34       1.0  0.12336  0.22329  0.35591  1.0000
  Fe  Fe20      1.0  0.12925  0.20142  0.41886  1.0000
  S   S35       1.0  0.14901  0.21604  0.43335  1.0000
  S   S36       1.0  0.10198  0.17712  0.38820  1.0000
  S   S37       1.0  0.11293  0.17388  0.42773  1.0000
  H   H111      1.0  0.16639  0.41619  0.25919  1.0000
  C   C136      1.0  0.24104  0.12465  0.43842  1.0000
  H   H112      1.0  0.27453  0.01156  0.34325  1.0000
  H   H113      1.0  0.05289  0.18003  0.39095  1.0000
  H   H114      1.0  0.29393  0.14178  0.44171  1.0000
  C   C137      1.0  0.12879  0.21612  0.46678  1.0000
  C   C138      1.0  0.14568  0.22108  0.45478  1.0000
  C   C139      1.0  0.16141  0.22977  0.45997  1.0000
  H   H115      1.0  0.11657  0.20942  0.46283  1.0000
  H   H116      1.0  0.17444  0.23369  0.45081  1.0000
  C   C140      1.0  0.10099  0.29305  0.34500  1.0000
  C   C141      1.0  0.09405  0.28181  0.36052  1.0000
  C   C142      1.0  0.10070  0.26049  0.36400  1.0000
  C   C143      1.0  0.11436  0.25010  0.35193  1.0000
  C   C144      1.0  0.12098  0.26125  0.33622  1.0000
  C   C145      1.0  0.11442  0.28265  0.33278  1.0000
  H   H117      1.0  0.08370  0.28970  0.37003  1.0000
  H   H118      1.0  0.09526  0.25208  0.37600  1.0000
  H   H119      1.0  0.13148  0.25334  0.32676  1.0000
  H   H120      1.0  0.11986  0.29110  0.32076  1.0000
  H   H121      1.0  0.00041  0.45548  0.25223  1.0000
  C   C146      1.0  0.18271  0.01689  0.42508  1.0000
  C   C147      1.0  0.01762  0.28991  0.26899  1.0000
  C   C148      1.0  0.27916  0.13700  0.44081  1.0000
  P   P7        1.0  0.18176  0.02401  0.45899  1.0000
  C   C149      1.0  0.05217  0.42861  0.30584  1.0000
  C   C150      1.0  0.03016  0.37311  0.29322  1.0000
  C   C151      1.0  0.03437  0.35823  0.30709  1.0000
  C   C152      1.0  0.11853  0.11999  0.48102  1.0000
  H   H122      1.0  0.23404  0.08193  0.46720  1.0000
  C   C153      1.0  0.12309  0.01933  0.48340  1.0000
  H   H123      1.0  0.04986  0.35458  0.31073  1.0000
  H   H124      1.0  0.16578  0.38746  0.24280  1.0000
  C   C154      1.0  0.12373  0.44594  0.30063  1.0000
  C   C155      1.0  0.11951  0.43987  0.31820  1.0000
  C   C156      1.0  0.11837  0.45456  0.32950  1.0000
  H   H125      1.0  0.20693  0.02696  0.48590  1.0000
  H   H126      1.0  0.12490  0.43473  0.29182  1.0000
  H   H127      1.0  0.11526  0.45000  0.34309  1.0000
  C   C157      1.0  0.01853  0.34772  0.31617  1.0000
  C   C158      1.0  0.20763  0.09436  0.40422  1.0000
  C   C159      1.0  0.19145  0.08370  0.40255  1.0000
  C   C160      1.0  0.17108  0.09427  0.40216  1.0000
  C   C161      1.0  0.16655  0.11550  0.40352  1.0000
  C   C162      1.0  0.18278  0.12620  0.40505  1.0000
  C   C163      1.0  0.20317  0.11565  0.40547  1.0000
  H   H128      1.0  0.19464  0.06737  0.40143  1.0000
  H   H129      1.0  0.15874  0.08607  0.40049  1.0000
  H   H130      1.0  0.17961  0.14258  0.40593  1.0000
  H   H131      1.0  0.21557  0.12412  0.40662  1.0000
  C   C164      1.0  0.12593  0.33235  0.24537  1.0000
  P   P8        1.0  0.00735  0.17785  0.48397  1.0000
  C   C165      1.0  0.16126  0.41941  0.24662  1.0000
  C   C166      1.0  0.27268  0.04766  0.46876  1.0000
  C   C167      1.0  0.27391  0.03349  0.45712  1.0000
  C   C168      1.0  0.27698  0.01236  0.46264  1.0000
  C   C169      1.0  0.00809  0.42403  0.39889  1.0000
  H   H132      1.0  0.02214  0.42032  0.31531  1.0000
  H   H133      1.0  0.27022  0.06397  0.46435  1.0000
  H   H134      1.0  0.27250  0.03898  0.44386  1.0000
  C   C170      1.0  0.30381  0.08247  0.40180  1.0000
  C   C171      1.0  0.00975  0.30398  0.28061  1.0000
  H   H135      1.0  0.02183  0.33625  0.32692  1.0000
  C   C172      1.0  0.01024  0.37722  0.28826  1.0000
  H   H136      1.0  0.00715  0.38835  0.27729  1.0000
  C   C173      1.0  0.19568  0.99811  0.46147  1.0000
  H   H137      1.0  0.03276  0.40844  0.41318  1.0000
  C   C174      1.0  0.25871  0.11797  0.42755  1.0000
  H   H138      1.0  0.09124  0.47862  0.26900  1.0000
  H   H139      1.0  0.01745  0.46483  0.29227  1.0000
  C   C175      1.0  0.17598  0.02085  0.40892  1.0000
  H   H140      1.0  0.04559  0.46076  0.34360  1.0000
  H   H141      1.0  0.08559  0.28117  0.25542  1.0000
  H   H142      1.0  0.03522  0.45432  0.26480  1.0000
  C   C176      1.0  0.99755  0.46653  0.34618  1.0000
  C   C177      1.0  0.27859  0.00541  0.47994  1.0000
  C   C178      1.0  0.16083  0.40315  0.23739  1.0000
  H   H143      1.0  0.01198  0.27579  0.24792  1.0000
  H   H144      1.0  0.99126  0.37272  0.33957  1.0000
  C   C179      1.0  0.99440  0.36670  0.29733  1.0000
  C   C180      1.0  0.22106  0.12953  0.48582  1.0000
  C   C181      1.0  0.01617  0.24912  0.39709  1.0000
  P   P9        1.0  0.01023  0.26760  0.36414  1.0000
  C   C182      1.0  0.01502  0.29364  0.36463  1.0000
  C   C183      1.0  0.03318  0.25132  0.35596  1.0000
  C   C184      1.0  0.03637  0.23013  0.36192  1.0000
  C   C185      1.0  0.05486  0.21788  0.35653  1.0000
  C   C186      1.0  0.07007  0.22656  0.34490  1.0000
  C   C187      1.0  0.06655  0.24737  0.33827  1.0000
  C   C188      1.0  0.04807  0.25967  0.34359  1.0000
  C   C189      1.0  0.22103  0.05447  0.47833  1.0000
  C   C190      1.0  0.00242  0.33033  0.36362  1.0000
  C   C191      1.0  0.00244  0.43185  0.38269  1.0000
  C   C192      1.0  0.03865  0.31791  0.36608  1.0000
  C   C193      1.0  0.03490  0.29764  0.36641  1.0000
  C   C194      1.0  0.99036  0.36418  0.25293  1.0000
  H   H145      1.0  0.19527  0.00446  0.42729  1.0000
  C   C195      1.0  0.21184  0.20039  0.48523  1.0000
  C   C196      1.0  0.12767  0.10323  0.47224  1.0000
  H   H146      1.0  0.03585  0.15974  0.45569  1.0000
  H   H147      1.0  0.05636  0.42254  0.25637  1.0000
  H   H148      1.0  0.02099  0.23459  0.42244  1.0000
  H   H149      1.0  0.13697  0.27686  0.47198  1.0000
  C   C197      1.0  0.99683  0.18774  0.41458  1.0000
  C   C198      1.0  0.20852  0.04006  0.47618  1.0000
  H   H150      1.0  0.03263  0.24727  0.39261  1.0000
  H   H151      1.0  0.02481  0.22309  0.37098  1.0000
  H   H152      1.0  0.05756  0.20170  0.36156  1.0000
  H   H153      1.0  0.08468  0.21721  0.34113  1.0000
  H   H154      1.0  0.07843  0.25408  0.32932  1.0000
  H   H155      1.0  0.04571  0.27578  0.33834  1.0000
  C   C199      1.0  0.00375  0.16316  0.46744  1.0000
  C   C200      1.0  0.22267  0.20739  0.45493  1.0000
  C   C201      1.0  0.02614  0.36443  0.24011  1.0000
  H   H156      1.0  0.05424  0.32094  0.36674  1.0000
  H   H157      1.0  0.04761  0.28517  0.36784  1.0000
  H   H158      1.0  0.29668  0.07244  0.41213  1.0000
  C   C202      1.0  0.03404  0.18130  0.48431  1.0000
  C   C203      1.0  0.03170  0.44008  0.33139  1.0000
  C   C204      1.0  0.21637  0.21439  0.47081  1.0000
  C   C205      1.0  0.27529  0.99498  0.34383  1.0000
  H   H159      1.0  0.30431  0.99150  0.32758  1.0000
  C   C206      1.0  0.00565  0.28696  0.25660  1.0000
  C   C207      1.0  0.07617  0.29531  0.25882  1.0000
  H   H160      1.0  0.01074  0.19702  0.43455  1.0000
  C   C208      1.0  0.03402  0.42893  0.31738  1.0000
  C   C209      1.0  0.08323  0.46642  0.26685  1.0000
  H   H161      1.0  0.08243  0.35792  0.25494  1.0000
  C   C210      1.0  0.15711  0.04487  0.43450  1.0000
  C   C211      1.0  0.01028  0.35370  0.24889  1.0000
  C   C212      1.0  0.15970  0.03664  0.40559  1.0000
  C   C213      1.0  0.09513  0.44837  0.26185  1.0000
  C   C214      1.0  0.08540  0.43260  0.25813  1.0000
  C   C215      1.0  0.06381  0.43492  0.25923  1.0000
  C   C216      1.0  0.05184  0.45293  0.26434  1.0000
  C   C217      1.0  0.00158  0.25809  0.38596  1.0000
  H   H162      1.0  0.27574  0.09103  0.38982  1.0000
  H   H163      1.0  0.29135  0.11503  0.36653  1.0000
  H   H164      1.0  0.25755  0.10809  0.41811  1.0000
  H   H165      1.0  0.03755  0.19595  0.45825  1.0000
  C   C218      1.0  0.12142  0.47505  0.32341  1.0000
  H   H166      1.0  0.04419  0.34656  0.27101  1.0000
  H   H167      1.0  0.04890  0.41847  0.35895  1.0000
  H   H168      1.0  0.01329  0.33721  0.25241  1.0000
  H   H169      1.0  0.15759  0.18297  0.47416  1.0000
  C   C219      1.0  0.17338  0.02896  0.43798  1.0000
  H   H170      1.0  0.32180  0.98748  0.42673  1.0000
  H   H171      1.0  0.16411  0.27989  0.44712  1.0000
  P   P10       1.0  0.00934  0.43991  0.34735  1.0000
  C   C220      1.0  0.20156  0.05903  0.44877  1.0000
  H   H172      1.0  0.09462  0.41858  0.25436  1.0000
  C   C221      1.0  0.22397  0.07102  0.46566  1.0000
  C   C222      1.0  0.02245  0.33427  0.36457  1.0000
  C   C223      1.0  0.12718  0.46640  0.29454  1.0000
  C   C224      1.0  0.03740  0.42049  0.36997  1.0000
  C   C225      1.0  0.03386  0.18913  0.41363  1.0000
  H   H173      1.0  0.25432  0.11938  0.48214  1.0000
  C   C226      1.0  0.26153  0.14367  0.45174  1.0000
  H   H174      1.0  0.11192  0.44659  0.26090  1.0000
  H   H175      1.0  0.15830  0.17031  0.43482  1.0000
  C   C227      1.0  0.00184  0.39625  0.23965  1.0000
  H   H176      1.0  0.30501  0.06737  0.44457  1.0000
  H   H177      1.0  0.15428  0.29072  0.41806  1.0000
  H   H178      1.0  0.21719  0.08557  0.44072  1.0000
  H   H179      1.0  0.02951  0.14165  0.43264  1.0000
  H   H180      1.0  0.08218  0.43864  0.29938  1.0000
  C   C228      1.0  0.15873  0.02582  0.47454  1.0000
  C   C229      1.0  0.12288  0.10218  0.45586  1.0000
  C   C230      1.0  0.10860  0.11753  0.44834  1.0000
  C   C231      1.0  0.09889  0.13382  0.45725  1.0000
  H   H181      1.0  0.14108  0.01084  0.46025  1.0000
  H   H182      1.0  0.00803  0.47267  0.36928  1.0000
  C   C232      1.0  0.10395  0.13517  0.47343  1.0000
  H   H183      1.0  0.02321  0.17294  0.37755  1.0000
  H   H184      1.0  0.99850  0.29415  0.33311  1.0000
  C   C233      1.0  0.01356  0.19191  0.42204  1.0000
  C   C234      1.0  0.21443  0.07314  0.45083  1.0000
  H   H185      1.0  0.22648  0.11983  0.43706  1.0000
  C   C235      1.0  0.03729  0.18234  0.39752  1.0000
  C   C236      1.0  0.12819  0.21937  0.48404  1.0000
  H   H186      1.0  0.10924  0.38072  0.24951  1.0000
  C   C237      1.0  0.25960  0.98497  0.35358  1.0000
  H   H187      1.0  0.13041  0.08968  0.44880  1.0000
  H   H188      1.0  0.10525  0.11696  0.43548  1.0000
  H   H189      1.0  0.08767  0.14565  0.45146  1.0000
  H   H190      1.0  0.24650  0.99384  0.36032  1.0000
  C   C238      1.0  0.06142  0.46872  0.26862  1.0000
  C   C239      1.0  0.04301  0.41270  0.38618  1.0000
  H   H191      1.0  0.09981  0.28526  0.46781  1.0000
  C   C240      1.0  0.16064  0.23328  0.47691  1.0000
  H   H192      1.0  0.22590  0.21829  0.44370  1.0000
  C   C241      1.0  0.15489  0.17252  0.48573  1.0000
  C   C242      1.0  0.17253  0.12068  0.45162  1.0000
  H   H193      1.0  0.22640  0.00732  0.45945  1.0000
  C   C243      1.0  0.02046  0.17829  0.38997  1.0000
  H   H194      1.0  0.14984  0.05449  0.44418  1.0000
  H   H195      1.0  0.17299  0.24000  0.48066  1.0000
  C   C244      1.0  0.04721  0.45169  0.33310  1.0000
  C   C245      1.0  0.99691  0.14183  0.44125  1.0000
  S   S38       1.0  0.30977  0.01527  0.36385  1.0000
  C   C246      1.0  0.07123  0.29840  0.27598  1.0000
  C   C247      1.0  0.21346  0.17936  0.48379  1.0000
  H   H196      1.0  0.09656  0.14815  0.48001  1.0000
  C   C248      1.0  0.19833  0.04245  0.46152  1.0000
  C   C249      1.0  0.15014  0.04851  0.41843  1.0000
  C   C250      1.0  0.14132  0.34509  0.24395  1.0000
  C   C251      1.0  0.14312  0.15661  0.48602  1.0000
  H   H197      1.0  0.13757  0.06083  0.41578  1.0000
  H   H198      1.0  0.13122  0.47076  0.28102  1.0000
  C   C252      1.0  0.06957  0.31075  0.24600  1.0000
  P   P11       1.0  0.21989  0.14543  0.46543  1.0000
  C   C253      1.0  0.19641  0.14277  0.45710  1.0000
  H   H199      1.0  0.19461  0.06098  0.43703  1.0000
  H   H200      1.0  0.22872  0.18127  0.44094  1.0000
  C   C254      1.0  0.29183  0.09326  0.38936  1.0000
  H   H201      1.0  0.26288  0.15352  0.46114  1.0000
  H   H202      1.0  0.10955  0.01322  0.48105  1.0000
  H   H203      1.0  0.05430  0.41961  0.29532  1.0000
  H   H204      1.0  0.18353  0.01167  0.39895  1.0000
  C   C255      1.0  0.06250  0.27113  0.40786  1.0000
  C   C256      1.0  0.04623  0.28753  0.40811  1.0000
  C   C257      1.0  0.05049  0.30768  0.40739  1.0000
  C   C258      1.0  0.07102  0.31147  0.40628  1.0000
  C   C259      1.0  0.08750  0.29511  0.40551  1.0000
  C   C260      1.0  0.08301  0.27493  0.40667  1.0000
  P   P12       1.0  0.11407  0.29955  0.40487  1.0000
  C   C261      1.0  0.13101  0.28161  0.39215  1.0000
  C   C262      1.0  0.11683  0.32558  0.39514  1.0000
  C   C263      1.0  0.12921  0.33743  0.40148  1.0000
  C   C264      1.0  0.13199  0.35715  0.39321  1.0000
  C   C265      1.0  0.12253  0.36510  0.37853  1.0000
  C   C266      1.0  0.11009  0.35343  0.37224  1.0000
  C   C267      1.0  0.10715  0.33384  0.38056  1.0000
  C   C268      1.0  0.13757  0.26146  0.39960  1.0000
  C   C269      1.0  0.15038  0.24737  0.38988  1.0000
  C   C270      1.0  0.15670  0.25318  0.37264  1.0000
  C   C271      1.0  0.15052  0.27323  0.36516  1.0000
  C   C272      1.0  0.13774  0.28740  0.37483  1.0000
  C   C273      1.0  0.12119  0.29443  0.42631  1.0000
  C   C274      1.0  0.10591  0.29301  0.44052  1.0000
  C   C275      1.0  0.11163  0.28687  0.45693  1.0000
  C   C276      1.0  0.13259  0.28217  0.45930  1.0000
  C   C277      1.0  0.14788  0.28389  0.44528  1.0000
  C   C278      1.0  0.14224  0.29005  0.42885  1.0000
  H   H205      1.0  0.05934  0.25541  0.40864  1.0000
  H   H206      1.0  0.03033  0.28462  0.40892  1.0000
  H   H207      1.0  0.03786  0.32038  0.40764  1.0000
  H   H208      1.0  0.07397  0.32714  0.40605  1.0000
  H   H209      1.0  0.09536  0.26209  0.40664  1.0000
  H   H210      1.0  0.13694  0.33144  0.41263  1.0000
  H   H211      1.0  0.14176  0.36618  0.39799  1.0000
  H   H212      1.0  0.12502  0.38018  0.37187  1.0000
  H   H213      1.0  0.10307  0.35935  0.36066  1.0000
  H   H214      1.0  0.09778  0.32485  0.37532  1.0000
  H   H215      1.0  0.13261  0.25642  0.41289  1.0000
  H   H216      1.0  0.15513  0.23182  0.39570  1.0000
  H   H217      1.0  0.16595  0.24198  0.36497  1.0000
  H   H218      1.0  0.15503  0.27759  0.35167  1.0000
  H   H219      1.0  0.13280  0.30258  0.36848  1.0000
  H   H220      1.0  0.08958  0.29610  0.43897  1.0000
  H   H221      1.0  0.13860  0.09106  0.47784  1.0000
  H   H222      1.0  0.07743  0.45975  0.32320  1.0000
  C   C279      1.0  0.04493  0.19100  0.46974  1.0000
  H   H223      1.0  0.11816  0.32730  0.25780  1.0000
  H   H224      1.0  0.03293  0.28115  0.26971  1.0000
  C   C280      1.0  0.22431  0.18638  0.45343  1.0000
  C   C281      1.0  0.01687  0.14587  0.44237  1.0000
  H   H225      1.0  0.07360  0.20187  0.45847  1.0000
  H   H226      1.0  0.01879  0.30612  0.29040  1.0000
  C   C282      1.0  0.05811  0.32948  0.25027  1.0000
  C   C283      1.0  0.99846  0.35211  0.31141  1.0000
  H   H227      1.0  0.05582  0.31939  0.29361  1.0000
  H   H228      1.0  0.18906  0.17507  0.44687  1.0000
  C   C284      1.0  0.02033  0.15645  0.45543  1.0000
  H   H229      1.0  0.16824  0.10546  0.45222  1.0000
  C   C285      1.0  0.05946  0.31681  0.28033  1.0000
  H   H230      1.0  0.29140  0.11899  0.42025  1.0000
  C   C286      1.0  0.18475  0.15975  0.44846  1.0000
  C   C287      1.0  0.99867  0.31010  0.36374  1.0000
  H   H231      1.0  0.00152  0.42966  0.27819  1.0000
  C   C288      1.0  0.06788  0.43950  0.30803  1.0000
  C   C289      1.0  0.02839  0.41453  0.40064  1.0000
  H   H232      1.0  0.07678  0.28667  0.28591  1.0000
  H   H233      1.0  0.19873  0.11002  0.46537  1.0000
  C   C290      1.0  0.08360  0.36810  0.24306  1.0000
  C   C291      1.0  0.15503  0.43973  0.23971  1.0000
  C   C292      1.0  0.24231  0.13755  0.45063  1.0000
  C   C293      1.0  0.05288  0.33223  0.26752  1.0000
  H   H234      1.0  0.14759  0.13569  0.43738  1.0000
  H   H235      1.0  0.21473  0.23072  0.47193  1.0000
  C   C294      1.0  0.27776  0.12412  0.42874  1.0000
  H   H236      1.0  0.05870  0.40514  0.38748  1.0000
  C   C295      1.0  0.01714  0.43042  0.36815  1.0000
  H   H237      1.0  0.13677  0.15525  0.47454  1.0000
  C   C296      1.0  0.06528  0.19463  0.46992  1.0000
  C   C297      1.0  0.16098  0.13767  0.44315  1.0000
  C   C298      1.0  0.18997  0.12327  0.45880  1.0000
  C   C299      1.0  0.06528  0.45125  0.32153  1.0000
  H   H238      1.0  0.15551  0.45194  0.24723  1.0000
  H   H239      1.0  0.02548  0.35000  0.36396  1.0000
  C   C300      1.0  0.16707  0.15717  0.44162  1.0000
  H   H240      1.0  0.15463  0.03979  0.39301  1.0000
  C   C301      1.0  0.12595  0.48109  0.30590  1.0000
  H   H241      1.0  0.01546  0.39650  0.34236  1.0000
  C   C302      1.0  0.00014  0.18092  0.39850  1.0000
  C   C303      1.0  0.00962  0.24205  0.41407  1.0000
  C   C304      1.0  0.21745  0.99468  0.46068  1.0000
  C   C305      1.0  0.14108  0.01789  0.47168  1.0000
  C   C306      1.0  0.21948  0.17223  0.46782  1.0000
  C   C307      1.0  0.29211  0.98361  0.33503  1.0000
  H   H242      1.0  0.09022  0.19258  0.48522  1.0000
  C   C308      1.0  0.07464  0.18934  0.48492  1.0000
  C   C309      1.0  0.09871  0.38128  0.24013  1.0000
  C   C310      1.0  0.99972  0.47895  0.35850  1.0000
  C   C311      1.0  0.00868  0.47722  0.28471  1.0000
  C   C312      1.0  0.30061  0.10683  0.37626  1.0000
  C   C313      1.0  0.27400  0.04085  0.48608  1.0000
  H   H243      1.0  0.16844  0.98339  0.46170  1.0000
  H   H244      1.0  0.98979  0.34294  0.36234  1.0000
  H   H245      1.0  0.28092  0.98905  0.48427  1.0000
  C   C314      1.0  0.99298  0.20359  0.48142  1.0000
  H   H246      1.0  0.31764  0.05693  0.36736  1.0000
  C   C315      1.0  0.99082  0.26715  0.35034  1.0000
  C   C316      1.0  0.99161  0.42309  0.34401  1.0000
  C   C317      1.0  0.99906  0.40228  0.34243  1.0000
  C   C318      1.0  0.30748  0.08943  0.46109  1.0000
  C   C319      1.0  0.99018  0.31552  0.27954  1.0000
  H   H247      1.0  0.99668  0.42522  0.41007  1.0000
  C   C320      1.0  0.31390  0.07895  0.44681  1.0000
  H   H248      1.0  0.31325  0.11291  0.47513  1.0000
  C   C321      1.0  0.31823  0.10490  0.46399  1.0000
  C   C322      1.0  0.32125  0.10988  0.37581  1.0000
  Fe  Fe21      1.0  0.29537  0.04665  0.55898  1.0000
  S   S39       1.0  0.26672  0.04624  0.57796  1.0000
  H   H249      1.0  0.07355  0.45054  0.59015  1.0000
  Fe  Fe22      1.0  0.27007  0.05024  0.52863  1.0000
  S   S40       1.0  0.23961  0.04943  0.54549  1.0000
  S   S41       1.0  0.27144  0.05946  0.50012  1.0000
  Fe  Fe23      1.0  0.25098  0.07135  0.55983  1.0000
  S   S42       1.0  0.23433  0.10265  0.56653  1.0000
  Fe  Fe24      1.0  0.25792  0.02429  0.56191  1.0000
  S   S43       1.0  0.28053  0.07343  0.54207  1.0000
  S   S44       1.0  0.28745  0.02342  0.54377  1.0000
  C   C323      1.0  0.11044  0.47382  0.63208  1.0000
  Fe  Fe25      1.0  0.08310  0.34836  0.65875  1.0000
  S   S45       1.0  0.10898  0.32386  0.65120  1.0000
  S   S46       1.0  0.05366  0.34198  0.67521  1.0000
  Fe  Fe26      1.0  0.10406  0.38372  0.63905  1.0000
  S   S47       1.0  0.13212  0.36227  0.62956  1.0000
  S   S48       1.0  0.09287  0.41783  0.63315  1.0000
  Fe  Fe27      1.0  0.10975  0.34159  0.62501  1.0000
  S   S49       1.0  0.11217  0.32735  0.60027  1.0000
  Fe  Fe28      1.0  0.12923  0.34598  0.65655  1.0000
  S   S50       1.0  0.15739  0.33265  0.66985  1.0000
  S   S51       1.0  0.08204  0.36456  0.63221  1.0000
  S   S52       1.0  0.10307  0.36907  0.66628  1.0000
  P   P13       1.0  0.99647  0.27141  0.56061  1.0000
  Fe  Fe29      1.0  0.12736  0.21609  0.53334  1.0000
  S   S53       1.0  0.11353  0.18776  0.53221  1.0000
  S   S54       1.0  0.14524  0.23216  0.51031  1.0000
  Fe  Fe30      1.0  0.11282  0.21699  0.57138  1.0000
  S   S55       1.0  0.09761  0.18826  0.57311  1.0000
  S   S56       1.0  0.11049  0.23196  0.59586  1.0000
  Fe  Fe31      1.0  0.12663  0.17561  0.55690  1.0000
  S   S57       1.0  0.13979  0.14138  0.56055  1.0000
  Fe  Fe32      1.0  0.08598  0.20247  0.54836  1.0000
  S   S58       1.0  0.05458  0.20513  0.53911  1.0000
  S   S59       1.0  0.14269  0.20313  0.55697  1.0000
  S   S60       1.0  0.09893  0.23210  0.54775  1.0000
  C   C324      1.0  0.30389  0.98955  0.57904  1.0000
  H   H250      1.0  0.00664  0.27467  0.61206  1.0000
  H   H251      1.0  0.23337  0.27171  0.64970  1.0000
  H   H252      1.0  0.27072  0.18439  0.59654  1.0000
  C   C325      1.0  0.20215  0.25378  0.68465  1.0000
  C   C326      1.0  0.03304  0.19352  0.54948  1.0000
  C   C327      1.0  0.01380  0.20022  0.54343  1.0000
  C   C328      1.0  0.01680  0.16896  0.57084  1.0000
  C   C329      1.0  0.03457  0.17783  0.56323  1.0000
  H   H253      1.0  0.01261  0.21209  0.53262  1.0000
  H   H254      1.0  0.01800  0.15678  0.58142  1.0000
  H   H255      1.0  0.04937  0.17253  0.56795  1.0000
  C   C330      1.0  0.11170  0.30077  0.59931  1.0000
  C   C331      1.0  0.11551  0.29333  0.58334  1.0000
  C   C332      1.0  0.11526  0.27233  0.58204  1.0000
  C   C333      1.0  0.11094  0.25859  0.59672  1.0000
  C   C334      1.0  0.10694  0.26611  0.61266  1.0000
  C   C335      1.0  0.10754  0.28700  0.61399  1.0000
  H   H256      1.0  0.11878  0.30385  0.57191  1.0000
  H   H257      1.0  0.11836  0.26681  0.56969  1.0000
  H   H258      1.0  0.10346  0.25570  0.62406  1.0000
  H   H259      1.0  0.10471  0.29249  0.62634  1.0000
  C   C336      1.0  0.15780  0.33092  0.69214  1.0000
  H   H260      1.0  0.13037  0.35258  0.69725  1.0000
  C   C337      1.0  0.10827  0.43717  0.63356  1.0000
  C   C338      1.0  0.12976  0.43270  0.63379  1.0000
  C   C339      1.0  0.14165  0.44888  0.63255  1.0000
  C   C340      1.0  0.13201  0.46947  0.63160  1.0000
  C   C341      1.0  0.99796  0.24725  0.57450  1.0000
  C   C342      1.0  0.09869  0.45776  0.63267  1.0000
  H   H261      1.0  0.13727  0.41688  0.63432  1.0000
  H   H262      1.0  0.15836  0.44547  0.63215  1.0000
  H   H263      1.0  0.16662  0.10311  0.49151  1.0000
  H   H264      1.0  0.08213  0.46134  0.63221  1.0000
  C   C343      1.0  0.00668  0.35078  0.63728  1.0000
  H   H265      1.0  0.14256  0.45687  0.67108  1.0000
  C   C344      1.0  0.01468  0.35313  0.66561  1.0000
  C   C345      1.0  0.03527  0.34476  0.66095  1.0000
  C   C346      1.0  0.04147  0.33922  0.64456  1.0000
  C   C347      1.0  0.02724  0.34240  0.63269  1.0000
  C   C348      1.0  0.05974  0.28061  0.52926  1.0000
  H   H266      1.0  0.00998  0.35754  0.67823  1.0000
  H   H267      1.0  0.05727  0.33238  0.64097  1.0000
  H   H268      1.0  0.03218  0.33835  0.61996  1.0000
  C   C349      1.0  0.20825  0.11327  0.56369  1.0000
  C   C350      1.0  0.20198  0.13454  0.56422  1.0000
  C   C351      1.0  0.18124  0.14349  0.56278  1.0000
  C   C352      1.0  0.16642  0.13117  0.56109  1.0000
  C   C353      1.0  0.17273  0.10995  0.56027  1.0000
  C   C354      1.0  0.19355  0.10105  0.56146  1.0000
  H   H269      1.0  0.21320  0.14413  0.56593  1.0000
  H   H270      1.0  0.17662  0.15981  0.56344  1.0000
  H   H271      1.0  0.16138  0.10029  0.55899  1.0000
  H   H272      1.0  0.19810  0.08466  0.56112  1.0000
  H   H273      1.0  0.03280  0.20763  0.59006  1.0000
  H   H274      1.0  0.29895  0.00590  0.57949  1.0000
  C   C355      1.0  0.08584  0.45980  0.58952  1.0000
  C   C356      1.0  0.03926  0.47641  0.58153  1.0000
  H   H275      1.0  0.18588  0.30917  0.69115  1.0000
  H   H276      1.0  0.10471  0.37112  0.71552  1.0000
  H   H277      1.0  0.30874  0.04454  0.59951  1.0000
  H   H278      1.0  0.13717  0.45333  0.59440  1.0000
  C   C357      1.0  0.07415  0.19734  0.62231  1.0000
  C   C358      1.0  0.09016  0.19535  0.63246  1.0000
  C   C359      1.0  0.09123  0.21096  0.64223  1.0000
  C   C360      1.0  0.07644  0.22869  0.64169  1.0000
  C   C361      1.0  0.06035  0.23088  0.63143  1.0000
  C   C362      1.0  0.05928  0.21498  0.62183  1.0000
  P   P14       1.0  0.04191  0.25428  0.62965  1.0000
  C   C363      1.0  0.01640  0.24761  0.62915  1.0000
  C   C364      1.0  0.04152  0.26788  0.64783  1.0000
  C   C365      1.0  0.02578  0.26653  0.66170  1.0000
  C   C366      1.0  0.02552  0.27742  0.67553  1.0000
  C   C367      1.0  0.04085  0.28979  0.67558  1.0000
  C   C368      1.0  0.05668  0.29098  0.66196  1.0000
  C   C369      1.0  0.05710  0.28003  0.64818  1.0000
  C   C370      1.0  0.00030  0.35613  0.65375  1.0000
  C   C371      1.0  0.03322  0.25902  0.54048  1.0000
  C   C372      1.0  0.09870  0.13860  0.52953  1.0000
  H   H279      1.0  0.22341  0.09800  0.53084  1.0000
  C   C373      1.0  0.01031  0.22950  0.63867  1.0000
  C   C374      1.0  0.04916  0.27059  0.61012  1.0000
  C   C375      1.0  0.05859  0.26189  0.59537  1.0000
  C   C376      1.0  0.06447  0.27454  0.58042  1.0000
  C   C377      1.0  0.06127  0.29595  0.58010  1.0000
  C   C378      1.0  0.05151  0.30478  0.59457  1.0000
  C   C379      1.0  0.04513  0.29220  0.60942  1.0000
  H   H280      1.0  0.07359  0.18544  0.61445  1.0000
  H   H281      1.0  0.10195  0.18189  0.63249  1.0000
  H   H282      1.0  0.10383  0.20953  0.64990  1.0000
  H   H283      1.0  0.07792  0.24074  0.64903  1.0000
  H   H284      1.0  0.04721  0.21645  0.61366  1.0000
  H   H285      1.0  0.01350  0.25741  0.66177  1.0000
  H   H286      1.0  0.01310  0.27672  0.68600  1.0000
  H   H287      1.0  0.04033  0.29880  0.68601  1.0000
  H   H288      1.0  0.06843  0.30079  0.66191  1.0000
  H   H289      1.0  0.06941  0.28133  0.63765  1.0000
  C   C380      1.0  0.13976  0.03702  0.50089  1.0000
  H   H290      1.0  0.09093  0.28750  0.69386  1.0000
  H   H291      1.0  0.25210  0.01674  0.63533  1.0000
  C   C381      1.0  0.04746  0.29721  0.53644  1.0000
  H   H292      1.0  0.02085  0.21927  0.64644  1.0000
  H   H293      1.0  0.06202  0.24538  0.59539  1.0000
  H   H294      1.0  0.07232  0.26765  0.56927  1.0000
  H   H295      1.0  0.06669  0.30567  0.56874  1.0000
  H   H296      1.0  0.04919  0.32140  0.59433  1.0000
  H   H297      1.0  0.03737  0.29942  0.62040  1.0000
  C   C382      1.0  0.18465  0.25829  0.65921  1.0000
  C   C383      1.0  0.18476  0.25241  0.67685  1.0000
  P   P15       1.0  0.16172  0.25753  0.64934  1.0000
  C   C384      1.0  0.16018  0.23152  0.64553  1.0000
  C   C385      1.0  0.13914  0.26701  0.66337  1.0000
  C   C386      1.0  0.12017  0.25953  0.66402  1.0000
  C   C387      1.0  0.10293  0.26669  0.67515  1.0000
  C   C388      1.0  0.10439  0.28158  0.68552  1.0000
  C   C389      1.0  0.12316  0.28918  0.68489  1.0000
  C   C390      1.0  0.14042  0.28201  0.67383  1.0000
  C   C391      1.0  0.17148  0.21443  0.65432  1.0000
  C   C392      1.0  0.17040  0.19442  0.65106  1.0000
  C   C393      1.0  0.15810  0.19133  0.63900  1.0000
  C   C394      1.0  0.14672  0.20823  0.63028  1.0000
  C   C395      1.0  0.14762  0.22818  0.63364  1.0000
  C   C396      1.0  0.16274  0.27486  0.62958  1.0000
  C   C397      1.0  0.15823  0.29626  0.62995  1.0000
  C   C398      1.0  0.15903  0.30973  0.61474  1.0000
  C   C399      1.0  0.16418  0.30203  0.59907  1.0000
  C   C400      1.0  0.16926  0.28082  0.59858  1.0000
  C   C401      1.0  0.16894  0.26729  0.61377  1.0000
  H   H298      1.0  0.17123  0.24721  0.68464  1.0000
  H   H299      1.0  0.11857  0.24828  0.65593  1.0000
  H   H300      1.0  0.08837  0.26084  0.67560  1.0000
  C   C402      1.0  0.03260  0.30933  0.73389  1.0000
  H   H301      1.0  0.15467  0.28846  0.67334  1.0000
  H   H302      1.0  0.18123  0.21644  0.66360  1.0000
  H   H303      1.0  0.17924  0.18130  0.65781  1.0000
  H   H304      1.0  0.15747  0.17588  0.63629  1.0000
  H   H305      1.0  0.13733  0.20599  0.62074  1.0000
  H   H306      1.0  0.13884  0.24105  0.62663  1.0000
  H   H307      1.0  0.15411  0.30267  0.64192  1.0000
  H   H308      1.0  0.15509  0.32619  0.61504  1.0000
  H   H309      1.0  0.16388  0.31255  0.58732  1.0000
  H   H310      1.0  0.17316  0.27486  0.58640  1.0000
  H   H311      1.0  0.17346  0.25098  0.61301  1.0000
  C   C403      1.0  0.28588  0.13639  0.61676  1.0000
  H   H312      1.0  0.07868  0.15242  0.54987  1.0000
  C   C404      1.0  0.14277  0.45827  0.69807  1.0000
  C   C405      1.0  0.08371  0.42418  0.67776  1.0000
  P   P16       1.0  0.12627  0.43861  0.70512  1.0000
  C   C406      1.0  0.10678  0.44038  0.69106  1.0000
  C   C407      1.0  0.14350  0.41449  0.70555  1.0000
  C   C408      1.0  0.14913  0.40479  0.69069  1.0000
  C   C409      1.0  0.06180  0.13685  0.53566  1.0000
  H   H313      1.0  0.11041  0.41030  0.73423  1.0000
  C   C410      1.0  0.02121  0.27530  0.54841  1.0000
  H   H314      1.0  0.05291  0.31207  0.53470  1.0000
  H   H315      1.0  0.99802  0.43946  0.58442  1.0000
  C   C411      1.0  0.31396  0.10157  0.55770  1.0000
  C   C412      1.0  0.00875  0.47030  0.64477  1.0000
  H   H316      1.0  0.99945  0.43559  0.70010  1.0000
  H   H317      1.0  0.03506  0.17014  0.51125  1.0000
  C   C413      1.0  0.30930  0.99092  0.63782  1.0000
  H   H318      1.0  0.24521  0.15471  0.64473  1.0000
  H   H319      1.0  0.29631  0.06381  0.66608  1.0000
  H   H320      1.0  0.14787  0.13381  0.52663  1.0000
  C   C414      1.0  0.27691  0.01968  0.49172  1.0000
  C   C415      1.0  0.29467  0.99033  0.65250  1.0000
  H   H321      1.0  0.16724  0.37884  0.67945  1.0000
  P   P17       1.0  0.12455  0.12214  0.50208  1.0000
  H   H322      1.0  0.99948  0.31048  0.64404  1.0000
  H   H323      1.0  0.14276  0.41132  0.67896  1.0000
  C   C416      1.0  0.17427  0.31808  0.69922  1.0000
  C   C417      1.0  0.00800  0.35424  0.71906  1.0000
  C   C418      1.0  0.28235  0.08056  0.61998  1.0000
  H   H324      1.0  0.01588  0.29420  0.58132  1.0000
  H   H325      1.0  0.13373  0.35057  0.72851  1.0000
  C   C419      1.0  0.27965  0.05753  0.64648  1.0000
  H   H326      1.0  0.03649  0.46951  0.60909  1.0000
  H   H327      1.0  0.16651  0.16323  0.52658  1.0000
  H   H328      1.0  0.19043  0.07506  0.50542  1.0000
  C   C420      1.0  0.21986  0.26616  0.65726  1.0000
  C   C421      1.0  0.27411  0.99959  0.65162  1.0000
  C   C422      1.0  0.17218  0.37821  0.70563  1.0000
  H   H329      1.0  0.04937  0.11990  0.51943  1.0000
  C   C423      1.0  0.30330  0.00198  0.62250  1.0000
  C   C424      1.0  0.21966  0.26073  0.67487  1.0000
  C   C425      1.0  0.24075  0.10758  0.50683  1.0000
  C   C426      1.0  0.29986  0.08568  0.64345  1.0000
  C   C427      1.0  0.01370  0.45764  0.65972  1.0000
  C   C428      1.0  0.11122  0.44270  0.72539  1.0000
  P   P18       1.0  0.00663  0.43189  0.66390  1.0000
  C   C429      1.0  0.03132  0.46672  0.59743  1.0000
  C   C430      1.0  0.01519  0.41984  0.64470  1.0000
  C   C431      1.0  0.00135  0.41101  0.63705  1.0000
  C   C432      1.0  0.00824  0.40169  0.62223  1.0000
  C   C433      1.0  0.02898  0.40083  0.61506  1.0000
  C   C434      1.0  0.04273  0.40993  0.62241  1.0000
  C   C435      1.0  0.03584  0.41957  0.63708  1.0000
  H   H330      1.0  0.06560  0.29876  0.73319  1.0000
  C   C436      1.0  0.14765  0.07307  0.53486  1.0000
  H   H331      1.0  0.11543  0.21526  0.49340  1.0000
  H   H332      1.0  0.20285  0.26944  0.63579  1.0000
  C   C437      1.0  0.08433  0.35024  0.71145  1.0000
  C   C438      1.0  0.01876  0.41750  0.68174  1.0000
  C   C439      1.0  0.01192  0.42298  0.69818  1.0000
  C   C440      1.0  0.02124  0.41235  0.71220  1.0000
  C   C441      1.0  0.03719  0.39594  0.70996  1.0000
  C   C442      1.0  0.04368  0.39005  0.69372  1.0000
  C   C443      1.0  0.03446  0.40067  0.67964  1.0000
  H   H333      1.0  0.27816  0.01940  0.60970  1.0000
  H   H334      1.0  0.10519  0.40754  0.69443  1.0000
  C   C444      1.0  0.99997  0.13209  0.52364  1.0000
  C   C445      1.0  0.13980  0.14287  0.50098  1.0000
  C   C446      1.0  0.28275  0.01125  0.62166  1.0000
  H   H335      1.0  0.20192  0.24978  0.69833  1.0000
  H   H336      1.0  0.03439  0.39304  0.60387  1.0000
  H   H337      1.0  0.05883  0.40928  0.61685  1.0000
  H   H338      1.0  0.04677  0.42642  0.64264  1.0000
  C   C447      1.0  0.27091  0.17116  0.60630  1.0000
  C   C448      1.0  0.08223  0.12034  0.51230  1.0000
  H   H339      1.0  0.11215  0.14374  0.53291  1.0000
  C   C449      1.0  0.20246  0.26488  0.64942  1.0000
  C   C450      1.0  0.02813  0.29467  0.54580  1.0000
  H   H340      1.0  0.01594  0.41668  0.72479  1.0000
  H   H341      1.0  0.00023  0.19316  0.60135  1.0000
  H   H342      1.0  0.05582  0.37715  0.69198  1.0000
  H   H343      1.0  0.03963  0.39547  0.66728  1.0000
  H   H344      1.0  0.06406  0.26640  0.72179  1.0000
  C   C451      1.0  0.07962  0.14340  0.53940  1.0000
  C   C452      1.0  0.14287  0.34239  0.70277  1.0000
  H   H345      1.0  0.07480  0.28246  0.52213  1.0000
  C   C453      1.0  0.16327  0.38659  0.69081  1.0000
  H   H346      1.0  0.00159  0.32108  0.60006  1.0000
  C   C454      1.0  0.16792  0.06801  0.52705  1.0000
  H   H347      1.0  0.06182  0.24874  0.52535  1.0000
  H   H348      1.0  0.10343  0.47374  0.68571  1.0000
  C   C455      1.0  0.09152  0.36332  0.72083  1.0000
  C   C456      1.0  0.05079  0.29542  0.73068  1.0000
  C   C457      1.0  0.30871  0.10957  0.59176  1.0000
  H   H349      1.0  0.18973  0.11649  0.52255  1.0000
  C   C458      1.0  0.00961  0.44967  0.58357  1.0000
  C   C459      1.0  0.28569  0.15371  0.60427  1.0000
  H   H350      1.0  0.01881  0.13583  0.49933  1.0000
  C   C460      1.0  0.13400  0.08879  0.52694  1.0000
  H   H351      1.0  0.17865  0.05624  0.53345  1.0000
  C   C461      1.0  0.14485  0.34138  0.72034  1.0000
  H   H352      1.0  0.01865  0.30787  0.55083  1.0000
  C   C462      1.0  0.12198  0.46113  0.59167  1.0000
  C   C463      1.0  0.17604  0.31681  0.71665  1.0000
  H   H353      1.0  0.01202  0.45626  0.55620  1.0000
  C   C464      1.0  0.27127  0.13693  0.63143  1.0000
  H   H354      1.0  0.01028  0.44620  0.61068  1.0000
  H   H355      1.0  0.99296  0.31851  0.67391  1.0000
  C   C465      1.0  0.01652  0.45347  0.59840  1.0000
  C   C466      1.0  0.04994  0.27700  0.72432  1.0000
  C   C467      1.0  0.07555  0.44347  0.66998  1.0000
  C   C468      1.0  0.06315  0.12514  0.52221  1.0000
  H   H356      1.0  0.04698  0.14088  0.54320  1.0000
  H   H357      1.0  0.18290  0.36393  0.70578  1.0000
  H   H358      1.0  0.06108  0.33140  0.71034  1.0000
  H   H359      1.0  0.00931  0.21478  0.49917  1.0000
  H   H360      1.0  0.26467  0.05524  0.62460  1.0000
  H   H361      1.0  0.11864  0.09299  0.53354  1.0000
  H   H362      1.0  0.17371  0.38133  0.73190  1.0000
  H   H363      1.0  0.14270  0.06525  0.54734  1.0000
  H   H364      1.0  0.07853  0.41042  0.67502  1.0000
  C   C469      1.0  0.26809  0.00980  0.63613  1.0000
  C   C470      1.0  0.10011  0.12754  0.51556  1.0000
  H   H365      1.0  0.27791  0.01433  0.50509  1.0000
  C   C471      1.0  0.16023  0.16128  0.51515  1.0000
  C   C472      1.0  0.22265  0.10664  0.51826  1.0000
  H   H366      1.0  0.07061  0.17706  0.51150  1.0000
  C   C473      1.0  0.25630  0.17151  0.62086  1.0000
  C   C474      1.0  0.10570  0.44974  0.59219  1.0000
  H   H367      1.0  0.27378  0.04431  0.65410  1.0000
  C   C475      1.0  0.00240  0.26057  0.61928  1.0000
  C   C476      1.0  0.06693  0.34069  0.71815  1.0000
  C   C477      1.0  0.29197  0.11435  0.58202  1.0000
  H   H368      1.0  0.17074  0.04235  0.49174  1.0000
  C   C478      1.0  0.14058  0.09959  0.51112  1.0000
  C   C479      1.0  0.01715  0.23612  0.57834  1.0000
  H   H369      1.0  0.03155  0.24208  0.57356  1.0000
  C   C480      1.0  0.05248  0.26160  0.53111  1.0000
  C   C481      1.0  0.14927  0.14483  0.51525  1.0000
  C   C482      1.0  0.99784  0.16372  0.50381  1.0000
  H   H370      1.0  0.23300  0.26209  0.68097  1.0000
  C   C483      1.0  0.20370  0.11699  0.51352  1.0000
  C   C484      1.0  0.00665  0.14316  0.50805  1.0000
  H   H371      1.0  0.25541  0.09956  0.51061  1.0000
  H   H372      1.0  0.02777  0.24421  0.54165  1.0000
  C   C485      1.0  0.08262  0.46128  0.67298  1.0000
  H   H373      1.0  0.24479  0.18501  0.62238  1.0000
  H   H374      1.0  0.04432  0.38761  0.72083  1.0000
  H   H375      1.0  0.09206  0.34760  0.69890  1.0000
  C   C486      1.0  0.09912  0.42261  0.68844  1.0000
  C   C487      1.0  0.25653  0.15443  0.63344  1.0000
  H   H376      1.0  0.01628  0.34390  0.71021  1.0000
  H   H377      1.0  0.18896  0.30688  0.72188  1.0000
  S   S61       1.0  0.24694  0.99511  0.57642  1.0000
  C   C488      1.0  0.01794  0.21669  0.58802  1.0000
  H   H378      1.0  0.12433  0.30102  0.69266  1.0000
  H   H379      1.0  0.26278  0.99867  0.66290  1.0000
  C   C489      1.0  0.16693  0.38796  0.72037  1.0000
  H   H380      1.0  0.10712  0.47591  0.71981  1.0000
  C   C490      1.0  0.14842  0.46386  0.68056  1.0000
  C   C491      1.0  0.20288  0.12824  0.49731  1.0000
  H   H381      1.0  0.29695  0.15369  0.59293  1.0000
  C   C492      1.0  0.29463  0.11042  0.56505  1.0000
  C   C493      1.0  0.29515  0.09167  0.62664  1.0000
  C   C494      1.0  0.15284  0.40619  0.72027  1.0000
  H   H382      1.0  0.14831  0.46189  0.72355  1.0000
  H   H383      1.0  0.08289  0.11124  0.50195  1.0000
  H   H384      1.0  0.99777  0.28166  0.72344  1.0000
  H   H385      1.0  0.10835  0.43309  0.59527  1.0000
  C   C495      1.0  0.02474  0.46504  0.67085  1.0000
  C   C496      1.0  0.27459  0.06362  0.62989  1.0000
  C   C497      1.0  0.01751  0.45915  0.56768  1.0000
  H   H386      1.0  0.27828  0.08486  0.60714  1.0000
  C   C498      1.0  0.09810  0.45977  0.68357  1.0000
  H   H387      1.0  0.17664  0.00029  0.52182  1.0000
  C   C499      1.0  0.17454  0.07860  0.51125  1.0000
  C   C500      1.0  0.16275  0.17533  0.50045  1.0000
  C   C501      1.0  0.04344  0.17638  0.49944  1.0000
  C   C502      1.0  0.01308  0.35248  0.73577  1.0000
  H   H388      1.0  0.27667  0.12064  0.58759  1.0000
  C   C503      1.0  0.06366  0.18037  0.49969  1.0000
  H   H389      1.0  0.02927  0.45565  0.68230  1.0000
  C   C504      1.0  0.16099  0.09441  0.50337  1.0000
  H   H390      1.0  0.99751  0.39480  0.61645  1.0000
  H   H391      1.0  0.00692  0.11632  0.52700  1.0000
  C   C505      1.0  0.16160  0.32865  0.72728  1.0000
  H   H392      1.0  0.06437  0.44447  0.66107  1.0000
  C   C506      1.0  0.15153  0.46683  0.70999  1.0000
  H   H393      1.0  0.25743  0.98626  0.54116  1.0000
  C   C507      1.0  0.99129  0.31438  0.59366  1.0000
  C   C508      1.0  0.29230  0.06855  0.65324  1.0000
  P   P19       1.0  0.30488  0.11382  0.61392  1.0000
  C   C509      1.0  0.24002  0.11892  0.49066  1.0000
  H   H394      1.0  0.13915  0.04462  0.51213  1.0000
  C   C510      1.0  0.03224  0.47254  0.56663  1.0000
  C   C511      1.0  0.10367  0.46285  0.72899  1.0000
  C   C512      1.0  0.99738  0.17618  0.56510  1.0000
  C   C513      1.0  0.99197  0.36926  0.71370  1.0000
  H   H395      1.0  0.31592  0.09797  0.54469  1.0000
  H   H396      1.0  0.14940  0.41384  0.73167  1.0000
  C   C514      1.0  0.99934  0.29937  0.58288  1.0000
  H   H397      1.0  0.28149  0.11375  0.55777  1.0000
  H   H398      1.0  0.27117  0.12388  0.64132  1.0000
  H   H399      1.0  0.03024  0.25777  0.71673  1.0000
  H   H400      1.0  0.15909  0.98456  0.50248  1.0000
  H   H401      1.0  0.10844  0.03004  0.50706  1.0000
  H   H402      1.0  0.99907  0.31392  0.73503  1.0000
  H   H403      1.0  0.31428  0.00350  0.61111  1.0000
  H   H404      1.0  0.17070  0.18846  0.50048  1.0000
  C   C515      1.0  0.03088  0.27212  0.72152  1.0000
  C   C516      1.0  0.99962  0.20848  0.59431  1.0000
  H   H405      1.0  0.00033  0.46497  0.63600  1.0000
  H   H406      1.0  0.29907  0.98228  0.66455  1.0000
  H   H407      1.0  0.20667  0.20591  0.49751  1.0000
  C   C517      1.0  0.12244  0.02884  0.49802  1.0000
  H   H408      1.0  0.20965  0.16888  0.49511  1.0000
  H   H409      1.0  0.18816  0.13627  0.49381  1.0000
  C   C518      1.0  0.16160  0.47876  0.67506  1.0000
  C   C519      1.0  0.01343  0.30397  0.73165  1.0000
  C   C520      1.0  0.01262  0.28557  0.72525  1.0000
  C   C521      1.0  0.99600  0.19186  0.55137  1.0000
  H   H410      1.0  0.07668  0.47623  0.66664  1.0000
  C   C522      1.0  0.14430  0.22785  0.48910  1.0000
  C   C523      1.0  0.31969  0.98290  0.56656  1.0000
  C   C524      1.0  0.99741  0.21856  0.49066  1.0000
  C   C525      1.0  0.18209  0.98462  0.51914  1.0000
  H   H411      1.0  0.30943  0.09415  0.64902  1.0000
  C   C526      1.0  0.99055  0.22442  0.63812  1.0000
  C   C527      1.0  0.05705  0.34350  0.73459  1.0000
  H   H412      1.0  0.02866  0.48110  0.71217  1.0000
  H   H413      1.0  0.03785  0.47996  0.55423  1.0000
  H   H414      1.0  0.99005  0.24996  0.49619  1.0000
  C   C528      1.0  0.15781  0.03558  0.48921  1.0000
  H   H415      1.0  0.22895  0.05253  0.48962  1.0000
  H   H416      1.0  0.32262  0.15077  0.61871  1.0000
  C   C529      1.0  0.27119  0.43052  0.83001  1.0000
  Fe  Fe33      1.0  0.15081  0.34953  0.76738  1.0000
  S   S62       1.0  0.13110  0.34051  0.79205  1.0000
  S   S63       1.0  0.16550  0.32671  0.74899  1.0000
  Fe  Fe34      1.0  0.14751  0.39401  0.77419  1.0000
  S   S64       1.0  0.12741  0.38857  0.79909  1.0000
  S   S65       1.0  0.15708  0.42517  0.76379  1.0000
  Fe  Fe35      1.0  0.14987  0.35955  0.80381  1.0000
  S   S66       1.0  0.16022  0.35210  0.83048  1.0000
  Fe  Fe36      1.0  0.11045  0.37036  0.78534  1.0000
  S   S67       1.0  0.07619  0.37724  0.78143  1.0000
  S   S68       1.0  0.17104  0.36615  0.77963  1.0000
  S   S69       1.0  0.12929  0.37800  0.75995  1.0000
  Fe  Fe37      1.0  0.27376  0.38871  0.89758  1.0000
  S   S70       1.0  0.24759  0.37002  0.89968  1.0000
  C   C530      1.0  0.20485  0.48026  0.91845  1.0000
  S   S71       1.0  0.28224  0.33207  0.88738  1.0000
  Fe  Fe38      1.0  0.26270  0.35965  0.87466  1.0000
  S   S72       1.0  0.24935  0.36197  0.84931  1.0000
  Fe  Fe39      1.0  0.26948  0.34462  0.91220  1.0000
  S   S73       1.0  0.25993  0.32247  0.93524  1.0000
  S   S74       1.0  0.28789  0.37978  0.87201  1.0000
  C   C531      1.0  0.25694  0.32794  0.95659  1.0000
  C   C532      1.0  0.24430  0.31649  0.96867  1.0000
  C   C533      1.0  0.04811  0.32085  0.77439  1.0000
  C   C534      1.0  0.26763  0.34209  0.96204  1.0000
  H   H417      1.0  0.27749  0.35100  0.95280  1.0000
  C   C535      1.0  0.24167  0.41919  0.77604  1.0000
  C   C536      1.0  0.26338  0.46129  0.90583  1.0000
  C   C537      1.0  0.20731  0.40928  0.77885  1.0000
  H   H418      1.0  0.25070  0.46015  0.91602  1.0000
  C   C538      1.0  0.22138  0.41982  0.78459  1.0000
  C   C539      1.0  0.18513  0.35479  0.83549  1.0000
  C   C540      1.0  0.20098  0.36054  0.82288  1.0000
  C   C541      1.0  0.22052  0.36241  0.82737  1.0000
  C   C542      1.0  0.22443  0.35894  0.84453  1.0000
  C   C543      1.0  0.20857  0.35329  0.85717  1.0000
  C   C544      1.0  0.18908  0.35112  0.85265  1.0000
  H   H419      1.0  0.19823  0.36338  0.80965  1.0000
  H   H420      1.0  0.23271  0.36645  0.81743  1.0000
  H   H421      1.0  0.21135  0.35036  0.87040  1.0000
  H   H422      1.0  0.17698  0.34658  0.86250  1.0000
  C   C545      1.0  0.01545  0.36097  0.81278  1.0000
  C   C546      1.0  0.03408  0.35607  0.82021  1.0000
  C   C547      1.0  0.05315  0.35998  0.81063  1.0000
  C   C548      1.0  0.05354  0.36923  0.79368  1.0000
  C   C549      1.0  0.03494  0.37372  0.78631  1.0000
  C   C550      1.0  0.01604  0.36969  0.79576  1.0000
  H   H423      1.0  0.03375  0.34921  0.83339  1.0000
  H   H424      1.0  0.06736  0.35633  0.81647  1.0000
  H   H425      1.0  0.03508  0.38046  0.77319  1.0000
  H   H426      1.0  0.99558  0.46586  0.76589  1.0000
  C   C551      1.0  0.29348  0.32381  0.83587  1.0000
  H   H427      1.0  0.05917  0.31229  0.79896  1.0000
  C   C552      1.0  0.14711  0.46407  0.77350  1.0000
  C   C553      1.0  0.14075  0.44478  0.77374  1.0000
  C   C554      1.0  0.12171  0.44084  0.78272  1.0000
  C   C555      1.0  0.10941  0.45563  0.79202  1.0000
  C   C556      1.0  0.02589  0.31460  0.80101  1.0000
  H   H428      1.0  0.31354  0.32795  0.97143  1.0000
  H   H429      1.0  0.11623  0.42646  0.78231  1.0000
  H   H430      1.0  0.09488  0.45217  0.79912  1.0000
  C   C557      1.0  0.15502  0.42218  0.82067  1.0000
  H   H431      1.0  0.99314  0.31857  0.79923  1.0000
  C   C558      1.0  0.20428  0.46137  0.79362  1.0000
  H   H432      1.0  0.27239  0.39760  0.83104  1.0000
  H   H433      1.0  0.31000  0.27181  0.93559  1.0000
  H   H434      1.0  0.29581  0.27196  0.83803  1.0000
  H   H435      1.0  0.03433  0.47203  0.76590  1.0000
  H   H436      1.0  0.27442  0.21333  0.87810  1.0000
  C   C559      1.0  0.30215  0.42886  0.97987  1.0000
  C   C560      1.0  0.23617  0.38799  0.97345  1.0000
  C   C561      1.0  0.27090  0.48021  0.90075  1.0000
  C   C562      1.0  0.26141  0.47096  0.95189  1.0000
  C   C563      1.0  0.09340  0.42939  0.75257  1.0000
  H   H437      1.0  0.14518  0.40265  0.84350  1.0000
  C   C564      1.0  0.23573  0.43363  0.81334  1.0000
  C   C565      1.0  0.31659  0.30632  0.85613  1.0000
  C   C566      1.0  0.29629  0.23516  0.87231  1.0000
  H   H438      1.0  0.14997  0.46176  0.83503  1.0000
  H   H439      1.0  0.30657  0.39568  0.98036  1.0000
  C   C567      1.0  0.26598  0.41504  0.96787  1.0000
  H   H440      1.0  0.00188  0.37345  0.78991  1.0000
  C   C568      1.0  0.29589  0.46450  0.87945  1.0000
  H   H441      1.0  0.20648  0.47002  0.93023  1.0000
  S   S75       1.0  0.26281  0.42030  0.90597  1.0000
  C   C569      1.0  0.99169  0.40649  0.84620  1.0000
  C   C570      1.0  0.21342  0.39842  0.76477  1.0000
  C   C571      1.0  0.09164  0.46625  0.74449  1.0000
  C   C572      1.0  0.24781  0.40805  0.76211  1.0000
  H   H442      1.0  0.29064  0.24229  0.88378  1.0000
  C   C573      1.0  0.28959  0.30476  0.83247  1.0000
  H   H443      1.0  0.99708  0.32784  0.76796  1.0000
  H   H444      1.0  0.27446  0.35486  0.98382  1.0000
  H   H445      1.0  0.29298  0.28594  0.98043  1.0000
  C   C574      1.0  0.20441  0.47209  0.90331  1.0000
  H   H446      1.0  0.23612  0.30544  0.96463  1.0000
  C   C575      1.0  0.30306  0.41612  0.93522  1.0000
  H   H447      1.0  0.28442  0.28949  0.91634  1.0000
  C   C576      1.0  0.17182  0.43022  0.81067  1.0000
  H   H448      1.0  0.26349  0.40754  0.75562  1.0000
  C   C577      1.0  0.00271  0.36670  0.74668  1.0000
  H   H449      1.0  0.28663  0.19658  0.85189  1.0000
  C   C578      1.0  0.17300  0.46735  0.84989  1.0000
  C   C579      1.0  0.08662  0.44954  0.75633  1.0000
  C   C580      1.0  0.30714  0.32457  0.84757  1.0000
  C   C581      1.0  0.01212  0.43304  0.83200  1.0000
  C   C582      1.0  0.17764  0.40539  0.84149  1.0000
  H   H450      1.0  0.25869  0.42038  0.94184  1.0000
  C   C583      1.0  0.04570  0.31545  0.79209  1.0000
  H   H451      1.0  0.30049  0.31181  0.94962  1.0000
  H   H452      1.0  0.16186  0.46719  0.76652  1.0000
  P   P20       1.0  0.20400  0.47493  0.86788  1.0000
  C   C584      1.0  0.02879  0.46950  0.81005  1.0000
  H   H453      1.0  0.19152  0.40951  0.78500  1.0000
  H   H454      1.0  0.30215  0.46116  0.98194  1.0000
  H   H455      1.0  0.29056  0.28588  0.88565  1.0000
  C   C585      1.0  0.27229  0.44377  0.89804  1.0000
  H   H456      1.0  0.30646  0.46470  0.94304  1.0000
  C   C586      1.0  0.30849  0.44539  0.98603  1.0000
  C   C587      1.0  0.20977  0.44709  0.87125  1.0000
  C   C588      1.0  0.19409  0.43547  0.87918  1.0000
  C   C589      1.0  0.19747  0.41396  0.88026  1.0000
  C   C590      1.0  0.21658  0.40389  0.87364  1.0000
  C   C591      1.0  0.23253  0.41524  0.86642  1.0000
  C   C592      1.0  0.22919  0.43679  0.86522  1.0000
  H   H457      1.0  0.01319  0.41447  0.75445  1.0000
  C   C593      1.0  0.29384  0.20932  0.85434  1.0000
  H   H458      1.0  0.24167  0.40025  0.81609  1.0000
  H   H459      1.0  0.19379  0.47075  0.81851  1.0000
  H   H460      1.0  0.26756  0.46734  0.93921  1.0000
  Fe  Fe40      1.0  0.30629  0.35272  0.88642  1.0000
  C   C594      1.0  0.31431  0.31925  0.94634  1.0000
  C   C595      1.0  0.31284  0.27016  0.92210  1.0000
  H   H461      1.0  0.18525  0.40505  0.88608  1.0000
  H   H462      1.0  0.21912  0.38724  0.87417  1.0000
  H   H463      1.0  0.24748  0.40724  0.86174  1.0000
  H   H464      1.0  0.24174  0.44523  0.85952  1.0000
  C   C596      1.0  0.24106  0.39826  0.95714  1.0000
  C   C597      1.0  0.15797  0.40959  0.83602  1.0000
  H   H465      1.0  0.17998  0.39532  0.85324  1.0000
  H   H466      1.0  0.23512  0.46665  0.81222  1.0000
  C   C598      1.0  0.29929  0.43373  0.94374  1.0000
  C   C599      1.0  0.01079  0.32453  0.77454  1.0000
  C   C600      1.0  0.13472  0.47901  0.78284  1.0000
  P   P21       1.0  0.03065  0.44179  0.81455  1.0000
  C   C601      1.0  0.02526  0.43345  0.79530  1.0000
  H   H467      1.0  0.08757  0.37599  0.74465  1.0000
  H   H468      1.0  0.28468  0.42928  0.83668  1.0000
  H   H469      1.0  0.28562  0.33800  0.82967  1.0000
  H   H470      1.0  0.01141  0.40399  0.82259  1.0000
  H   H471      1.0  0.01112  0.45889  0.84607  1.0000
  H   H472      1.0  0.05720  0.35888  0.75666  1.0000
  C   C602      1.0  0.04140  0.42796  0.78257  1.0000
  C   C603      1.0  0.03699  0.42174  0.76761  1.0000
  C   C604      1.0  0.01649  0.42039  0.76554  1.0000
  H   H473      1.0  0.29640  0.40232  0.94063  1.0000
  C   C605      1.0  0.00466  0.43280  0.79281  1.0000
  C   C606      1.0  0.05565  0.43024  0.82069  1.0000
  C   C607      1.0  0.06726  0.44111  0.82883  1.0000
  C   C608      1.0  0.08626  0.43160  0.83415  1.0000
  C   C609      1.0  0.09343  0.41101  0.83187  1.0000
  C   C610      1.0  0.08160  0.39995  0.82430  1.0000
  C   C611      1.0  0.06279  0.40953  0.81875  1.0000
  C   C612      1.0  0.24674  0.41425  0.81846  1.0000
  C   C613      1.0  0.29932  0.28644  0.84079  1.0000
  C   C614      1.0  0.26590  0.34429  0.97960  1.0000
  H   H474      1.0  0.16934  0.43960  0.79865  1.0000
  H   H475      1.0  0.02620  0.45915  0.74022  1.0000
  C   C615      1.0  0.06459  0.35636  0.74404  1.0000
  S   S76       1.0  0.29461  0.36387  0.91191  1.0000
  H   H476      1.0  0.02394  0.31100  0.81479  1.0000
  C   C616      1.0  0.31495  0.41642  0.91921  1.0000
  H   H477      1.0  0.22514  0.37705  0.97551  1.0000
  H   H478      1.0  0.05740  0.42790  0.78441  1.0000
  H   H479      1.0  0.04963  0.41684  0.75811  1.0000
  C   C617      1.0  0.25560  0.41203  0.95443  1.0000
  P   P22       1.0  0.21344  0.43514  0.80203  1.0000
  H   H480      1.0  0.06176  0.45691  0.83110  1.0000
  H   H481      1.0  0.09541  0.44022  0.84001  1.0000
  H   H482      1.0  0.10811  0.40355  0.83598  1.0000
  H   H483      1.0  0.08703  0.38394  0.82263  1.0000
  H   H484      1.0  0.05370  0.40074  0.81307  1.0000
  H   H485      1.0  0.30848  0.46572  0.86919  1.0000
  H   H486      1.0  0.08971  0.41637  0.76183  1.0000
  C   C618      1.0  0.19180  0.42552  0.81578  1.0000
  H   H487      1.0  0.07785  0.45228  0.76853  1.0000
  H   H488      1.0  0.13983  0.42533  0.81628  1.0000
  C   C619      1.0  0.26056  0.44990  0.82469  1.0000
  H   H489      1.0  0.20960  0.40924  0.83584  1.0000
  C   C620      1.0  0.24181  0.31940  0.98590  1.0000
  C   C621      1.0  0.31292  0.28707  0.85275  1.0000
  C   C622      1.0  0.30995  0.21637  0.84268  1.0000
  C   C623      1.0  0.28846  0.44542  0.88467  1.0000
  H   H490      1.0  0.25274  0.42740  0.78006  1.0000
  C   C624      1.0  0.19452  0.41325  0.83143  1.0000
  H   H491      1.0  0.23830  0.38918  0.74558  1.0000
  H   H492      1.0  0.17907  0.44310  0.88414  1.0000
  H   H493      1.0  0.23365  0.39554  0.94653  1.0000
  P   P23       1.0  0.28390  0.43366  0.96440  1.0000
  C   C625      1.0  0.30873  0.45111  0.93651  1.0000
  H   H494      1.0  0.29537  0.43200  0.87853  1.0000
  C   C626      1.0  0.24290  0.45149  0.81637  1.0000
  C   C627      1.0  0.11586  0.47470  0.79219  1.0000
  H   H495      1.0  0.20232  0.39070  0.76021  1.0000
  C   C628      1.0  0.26431  0.41270  0.82682  1.0000
  C   C629      1.0  0.28699  0.21873  0.86912  1.0000
  C   C630      1.0  0.26066  0.40500  0.98431  1.0000
  H   H496      1.0  0.20596  0.45552  0.90371  1.0000
  H   H497      1.0  0.06363  0.32117  0.76773  1.0000
  C   C631      1.0  0.00566  0.41367  0.83260  1.0000
  C   C632      1.0  0.03061  0.32595  0.76554  1.0000
  C   C633      1.0  0.23366  0.39770  0.75645  1.0000
  H   H498      1.0  0.31523  0.20911  0.83120  1.0000
  C   C634      1.0  0.26703  0.45770  0.96639  1.0000
  H   H499      1.0  0.27874  0.30426  0.82356  1.0000
  C   C635      1.0  0.29843  0.28015  0.91125  1.0000
  H   H500      1.0  0.06084  0.46954  0.79884  1.0000
  C   C636      1.0  0.30202  0.27816  0.89382  1.0000
  C   C637      1.0  0.00848  0.31902  0.79223  1.0000
  H   H501      1.0  0.21217  0.45711  0.76688  1.0000
  C   C638      1.0  0.31258  0.24223  0.86072  1.0000
  P   P24       1.0  0.03350  0.33273  0.74268  1.0000
  H   H502      1.0  0.31672  0.40327  0.91223  1.0000
  H   H503      1.0  0.99192  0.43735  0.80231  1.0000
  C   C639      1.0  0.20548  0.46773  0.77597  1.0000
  H   H504      1.0  0.26599  0.46368  0.82710  1.0000
  C   C640      1.0  0.25806  0.46247  0.98263  1.0000
  H   H505      1.0  0.00668  0.36594  0.75948  1.0000
  H   H506      1.0  0.18199  0.45237  0.84853  1.0000
  C   C641      1.0  0.00549  0.44445  0.84579  1.0000
  C   C642      1.0  0.00034  0.42576  0.77820  1.0000
  C   C643      1.0  0.32013  0.26620  0.88708  1.0000
  C   C644      1.0  0.03059  0.47440  0.73922  1.0000
  H   H507      1.0  0.31001  0.33935  0.85037  1.0000
  C   C645      1.0  0.32170  0.32833  0.95861  1.0000
  C   C646      1.0  0.31925  0.23282  0.84581  1.0000
  S   S77       1.0  0.99167  0.35611  0.82494  1.0000
  C   C647      1.0  0.08176  0.36622  0.73719  1.0000
  C   C648      1.0  0.31097  0.40861  0.98520  1.0000
  H   H508      1.0  0.99611  0.47512  0.81915  1.0000
  H   H509      1.0  0.31848  0.31358  0.92007  1.0000
  C   C649      1.0  0.32062  0.45135  0.92050  1.0000
  C   C650      1.0  0.15492  0.47265  0.84197  1.0000
  C   C651      1.0  0.04613  0.47880  0.80225  1.0000
  C   C652      1.0  0.19493  0.47546  0.80494  1.0000
  C   C653      1.0  0.10548  0.42597  0.73705  1.0000
  C   C654      1.0  0.99146  0.43724  0.85939  1.0000
  H   H510      1.0  0.24628  0.47963  0.87210  1.0000
  C   C655      1.0  0.24424  0.48063  0.98440  1.0000
  H   H511      1.0  0.11829  0.49504  0.15556  1.0000
  S   S78       1.0  0.27765  0.58651  0.05605  1.0000
  C   C656      1.0  0.18182  0.51203  0.10050  1.0000
  Fe  Fe41      1.0  0.30058  0.52928  0.04965  1.0000
  S   S79       1.0  0.26751  0.54208  0.04647  1.0000
  C   C657      1.0  0.29552  0.63542  0.00067  1.0000
  Fe  Fe42      1.0  0.28025  0.57026  0.03271  1.0000
  S   S80       1.0  0.27037  0.58909  0.00858  1.0000
  Fe  Fe43      1.0  0.26745  0.55691  0.07006  1.0000
  S   S81       1.0  0.24360  0.55012  0.09308  1.0000
  H   H512      1.0  0.29929  0.51920  0.99746  1.0000
  S   S82       1.0  0.30025  0.54282  0.07388  1.0000
  Fe  Fe44      1.0  0.12378  0.56910  0.12590  1.0000
  S   S83       1.0  0.13178  0.53875  0.14171  1.0000
  S   S84       1.0  0.14688  0.58350  0.10522  1.0000
  Fe  Fe45      1.0  0.07755  0.57199  0.14115  1.0000
  S   S85       1.0  0.08259  0.54177  0.15778  1.0000
  S   S86       1.0  0.04478  0.58919  0.14256  1.0000
  Fe  Fe46      1.0  0.11113  0.55302  0.16318  1.0000
  S   S87       1.0  0.12182  0.54498  0.18926  1.0000
  Fe  Fe47      1.0  0.10244  0.53088  0.13473  1.0000
  S   S88       1.0  0.09939  0.50206  0.12417  1.0000
  S   S89       1.0  0.10512  0.58421  0.14798  1.0000
  S   S90       1.0  0.09544  0.56027  0.11756  1.0000
  C   C658      1.0  0.02484  0.57448  0.14156  1.0000
  C   C659      1.0  0.02966  0.55436  0.13734  1.0000
  C   C660      1.0  0.25097  0.64553  0.12022  1.0000
  H   H513      1.0  0.04572  0.54757  0.13484  1.0000
  H   H514      1.0  0.00003  0.59852  0.14828  1.0000
  C   C661      1.0  0.18376  0.53951  0.01825  1.0000
  H   H515      1.0  0.14903  0.51050  0.19875  1.0000
  C   C662      1.0  0.01068  0.51184  0.10386  1.0000
  C   C663      1.0  0.18089  0.60323  0.03901  1.0000
  H   H516      1.0  0.11465  0.50103  0.19255  1.0000
  H   H517      1.0  0.99833  0.52343  0.09946  1.0000
  H   H518      1.0  0.03107  0.57173  0.17673  1.0000
  C   C664      1.0  0.11977  0.55072  0.22259  1.0000
  C   C665      1.0  0.11376  0.55932  0.20664  1.0000
  C   C666      1.0  0.10163  0.57872  0.20505  1.0000
  C   C667      1.0  0.09531  0.58922  0.21951  1.0000
  H   H519      1.0  0.06990  0.55730  0.22379  1.0000
  H   H520      1.0  0.12958  0.53600  0.22369  1.0000
  H   H521      1.0  0.09730  0.58563  0.19271  1.0000
  H   H522      1.0  0.08610  0.60429  0.21824  1.0000
  C   C668      1.0  0.21668  0.55935  0.09586  1.0000
  C   C669      1.0  0.20729  0.57439  0.08408  1.0000
  C   C670      1.0  0.18585  0.58149  0.08703  1.0000
  C   C671      1.0  0.17360  0.57351  0.10168  1.0000
  C   C672      1.0  0.18300  0.55834  0.11337  1.0000
  C   C673      1.0  0.20445  0.55137  0.11049  1.0000
  H   H523      1.0  0.21657  0.58073  0.07285  1.0000
  H   H524      1.0  0.17875  0.59337  0.07801  1.0000
  H   H525      1.0  0.17384  0.55221  0.12478  1.0000
  H   H526      1.0  0.21160  0.53977  0.11970  1.0000
  H   H527      1.0  0.06266  0.64037  0.15217  1.0000
  C   C674      1.0  0.23726  0.50833  0.06292  1.0000
  H   H528      1.0  0.13336  0.55081  0.08907  1.0000
  H   H529      1.0  0.26074  0.54748  0.00973  1.0000
  C   C675      1.0  0.27751  0.89605  0.20089  1.0000
  C   C676      1.0  0.30541  0.57574  0.10515  1.0000
  C   C677      1.0  0.25103  0.65328  0.05014  1.0000
  C   C678      1.0  0.05063  0.60388  0.18519  1.0000
  H   H530      1.0  0.98968  0.49467  0.12116  1.0000
  C   C679      1.0  0.26266  0.49904  0.10895  1.0000
  C   C680      1.0  0.29027  0.90885  0.19027  1.0000
  H   H531      1.0  0.16815  0.61581  0.03963  1.0000
  C   C681      1.0  0.26811  0.58555  0.10941  1.0000
  H   H532      1.0  0.31881  0.65891  0.06921  1.0000
  C   C682      1.0  0.15695  0.54652  0.06767  1.0000
  P   P25       1.0  0.18795  0.54049  0.03994  1.0000
  H   H533      1.0  0.28391  0.49807  0.02657  1.0000
  C   C683      1.0  0.18693  0.60243  0.12957  1.0000
  H   H534      1.0  0.26251  0.51296  0.11468  1.0000
  C   C684      1.0  0.03108  0.53991  0.18660  1.0000
  C   C685      1.0  0.06272  0.61529  0.17262  1.0000
  H   H535      1.0  0.25229  0.52908  0.98722  1.0000
  H   H536      1.0  0.07869  0.50446  0.18620  1.0000
  C   C686      1.0  0.01371  0.54318  0.13578  1.0000
  H   H537      1.0  0.02841  0.50945  0.19962  1.0000
  H   H538      1.0  0.07936  0.61088  0.17060  1.0000
  H   H539      1.0  0.25180  0.65944  0.03674  1.0000
  H   H540      1.0  0.28625  0.63023  0.99236  1.0000
  C   C687      1.0  0.25756  0.65560  0.07886  1.0000
  H   H541      1.0  0.00237  0.50001  0.15296  1.0000
  C   C688      1.0  0.27982  0.49211  0.09773  1.0000
  C   C689      1.0  0.24229  0.49076  0.05455  1.0000
  H   H542      1.0  0.12032  0.51780  0.08865  1.0000
  C   C690      1.0  0.22075  0.52341  0.05853  1.0000
  C   C691      1.0  0.29081  0.61185  0.10336  1.0000
  C   C692      1.0  0.25840  0.66360  0.06160  1.0000
  H   H543      1.0  0.23369  0.59426  0.03346  1.0000
  C   C693      1.0  0.31360  0.64381  0.99388  1.0000
  H   H544      1.0  0.05811  0.59055  0.19274  1.0000
  C   C694      1.0  0.17681  0.58295  0.04015  1.0000
  H   H545      1.0  0.23666  0.59935  0.13791  1.0000
  H   H546      1.0  0.01484  0.52168  0.22759  1.0000
  C   C695      1.0  0.16940  0.50608  0.17571  1.0000
  H   H547      1.0  0.26503  0.67768  0.05707  1.0000
  H   H548      1.0  0.20597  0.50119  0.02707  1.0000
  H   H549      1.0  0.28347  0.92320  0.18354  1.0000
  H   H550      1.0  0.26389  0.66354  0.08743  1.0000
  C   C696      1.0  0.00388  0.58301  0.14487  1.0000
  H   H551      1.0  0.29656  0.63840  0.04265  1.0000
  C   C697      1.0  0.28625  0.87732  0.20925  1.0000
  C   C698      1.0  0.18789  0.61571  0.11427  1.0000
  C   C699      1.0  0.30809  0.59651  0.10257  1.0000
  C   C700      1.0  0.31180  0.90301  0.18811  1.0000
  C   C701      1.0  0.13951  0.48710  0.23026  1.0000
  C   C702      1.0  0.19321  0.56650  0.03972  1.0000
  H   H552      1.0  0.20450  0.62306  0.03572  1.0000
  C   C703      1.0  0.00583  0.49558  0.11632  1.0000
  C   C704      1.0  0.15881  0.51498  0.05513  1.0000
  H   H553      1.0  0.14537  0.53990  0.99355  1.0000
  P   P26       1.0  0.24853  0.62643  0.10693  1.0000
  C   C705      1.0  0.21461  0.50345  0.03706  1.0000
  S   S91       1.0  0.31468  0.49552  0.05012  1.0000
  H   H554      1.0  0.21690  0.53680  0.06536  1.0000
  C   C706      1.0  0.01834  0.60103  0.22555  1.0000
  C   C707      1.0  0.22320  0.60386  0.13111  1.0000
  H   H555      1.0  0.22699  0.66806  0.10964  1.0000
  H   H556      1.0  0.23215  0.49441  0.12085  1.0000
  H   H557      1.0  0.17286  0.48670  0.22604  1.0000
  H   H558      1.0  0.24617  0.51033  0.07287  1.0000
  C   C708      1.0  0.08473  0.49128  0.19472  1.0000
  H   H559      1.0  0.18164  0.52642  0.09209  1.0000
  H   H560      1.0  0.02446  0.65035  0.15654  1.0000
  C   C709      1.0  0.23935  0.67937  0.12942  1.0000
  H   H561      1.0  0.04839  0.61106  0.21672  1.0000
  C   C710      1.0  0.20653  0.62296  0.10727  1.0000
  C   C711      1.0  0.28954  0.63325  0.01827  1.0000
  H   H562      1.0  0.25280  0.58093  0.11147  1.0000
  H   H563      1.0  0.06342  0.50096  0.09973  1.0000
  H   H564      1.0  0.03670  0.53471  0.17427  1.0000
  H   H565      1.0  0.00924  0.55877  0.23033  1.0000
  H   H566      1.0  0.20677  0.63344  0.09554  1.0000
  H   H567      1.0  0.23819  0.62634  0.04689  1.0000
  C   C712      1.0  0.26417  0.57563  0.99295  1.0000
  C   C713      1.0  0.06584  0.54488  0.23346  1.0000
  H   H568      1.0  0.00304  0.63121  0.17929  1.0000
  S   S92       1.0  0.31352  0.55625  0.03371  1.0000
  C   C714      1.0  0.01558  0.55376  0.21809  1.0000
  P   P27       1.0  0.01367  0.59553  0.20496  1.0000
  H   H569      1.0  0.21217  0.49978  0.08998  1.0000
  C   C715      1.0  0.02904  0.60969  0.18804  1.0000
  H   H570      1.0  0.16599  0.50469  0.04591  1.0000
  C   C716      1.0  0.10525  0.48919  0.19825  1.0000
  C   C717      1.0  0.01968  0.62663  0.17769  1.0000
  H   H571      1.0  0.29318  0.62789  0.10088  1.0000
  C   C718      1.0  0.16079  0.53991  0.99686  1.0000
  H   H572      1.0  0.27580  0.62627  0.02354  1.0000
  C   C719      1.0  0.24542  0.48848  0.11235  1.0000
  C   C720      1.0  0.26008  0.55527  0.99691  1.0000
  C   C721      1.0  0.20137  0.60732  0.03684  1.0000
  H   H573      1.0  0.20372  0.58632  0.14992  1.0000
  C   C722      1.0  0.21373  0.57082  0.03696  1.0000
  C   C723      1.0  0.05331  0.63206  0.16233  1.0000
  H   H574      1.0  0.15129  0.52031  0.11335  1.0000
  C   C724      1.0  0.13303  0.52223  0.07925  1.0000
  C   C725      1.0  0.20046  0.54090  0.00520  1.0000
  C   C726      1.0  0.30778  0.87143  0.20711  1.0000
  C   C727      1.0  0.25329  0.67503  0.14159  1.0000
  C   C728      1.0  0.02796  0.56099  0.18805  1.0000
  C   C729      1.0  0.16563  0.49059  0.12415  1.0000
  C   C730      1.0  0.99136  0.48965  0.15864  1.0000
  H   H575      1.0  0.16283  0.56054  0.06879  1.0000
  C   C731      1.0  0.06619  0.52521  0.22897  1.0000
  H   H576      1.0  0.23761  0.48439  0.99698  1.0000
  H   H577      1.0  0.21585  0.54185  0.00818  1.0000
  C   C732      1.0  0.02639  0.52574  0.20085  1.0000
  H   H578      1.0  0.17252  0.59657  0.13475  1.0000
  C   C733      1.0  0.24321  0.63472  0.05587  1.0000
  H   H579      1.0  0.22947  0.69413  0.12823  1.0000
  C   C734      1.0  0.10082  0.58021  0.23562  1.0000
  H   H580      1.0  0.27403  0.62616  0.13461  1.0000
  H   H581      1.0  0.03515  0.52692  0.08878  1.0000
  C   C735      1.0  0.23806  0.66461  0.11886  1.0000
  H   H582      1.0  0.07070  0.52257  0.21580  1.0000
  H   H583      1.0  0.01774  0.52780  0.13226  1.0000
  C   C736      1.0  0.18067  0.49186  0.16533  1.0000
  H   H584      1.0  0.16086  0.58017  0.04120  1.0000
  C   C737      1.0  0.14033  0.54086  0.07948  1.0000
  H   H585      1.0  0.27633  0.86723  0.21725  1.0000
  C   C738      1.0  0.21778  0.59113  0.03566  1.0000
  H   H586      1.0  0.22667  0.55865  0.03537  1.0000
  C   C739      1.0  0.04732  0.49926  0.10411  1.0000
  C   C740      1.0  0.01868  0.53265  0.21659  1.0000
  H   H587      1.0  0.15266  0.48832  0.13390  1.0000
  C   C741      1.0  0.20953  0.52125  0.04536  1.0000
  C   C742      1.0  0.24232  0.62669  0.07313  1.0000
  C   C743      1.0  0.02014  0.56813  0.20379  1.0000
  C   C744      1.0  0.16489  0.50873  0.11273  1.0000
  C   C745      1.0  0.16607  0.53384  0.05513  1.0000
  H   H588      1.0  0.29301  0.50053  0.09479  1.0000
  C   C746      1.0  0.22447  0.61673  0.11547  1.0000
  C   C747      1.0  0.14235  0.50922  0.06715  1.0000
  C   C748      1.0  0.24901  0.63735  0.08482  1.0000
  C   C749      1.0  0.03142  0.51384  0.09792  1.0000
  C   C750      1.0  0.16381  0.53937  0.01395  1.0000
  C   C751      1.0  0.03179  0.63767  0.16481  1.0000
  C   C752      1.0  0.26451  0.64106  0.13280  1.0000
  C   C753      1.0  0.04250  0.48278  0.11635  1.0000
  C   C754      1.0  0.26578  0.65586  0.14333  1.0000
  H   H589      1.0  0.27641  0.65241  0.15290  1.0000
  C   C755      1.0  0.27067  0.60645  0.10700  1.0000
  H   H590      1.0  0.26081  0.90053  0.20248  1.0000
  Fe  Fe48      1.0  0.31055  0.57116  0.05777  1.0000
  H   H591      1.0  0.17417  0.62008  0.10774  1.0000
  C   C756      1.0  0.30140  0.63987  0.02905  1.0000
  H   H592      1.0  0.23666  0.61203  0.07734  1.0000
  H   H593      1.0  0.31419  0.85662  0.21334  1.0000
  C   C757      1.0  0.19915  0.49693  0.09932  1.0000
  C   C758      1.0  0.19736  0.54163  0.98814  1.0000
  H   H594      1.0  0.25428  0.68647  0.14977  1.0000
  H   H595      1.0  0.15051  0.53927  0.02368  1.0000
  H   H596      1.0  0.16952  0.52250  0.17200  1.0000
  H   H597      1.0  0.28325  0.55418  0.11027  1.0000
  C   C759      1.0  0.28542  0.57027  0.10864  1.0000
  C   C760      1.0  0.15760  0.49923  0.19086  1.0000
  H   H598      1.0  0.13681  0.49466  0.06719  1.0000
  H   H599      1.0  0.31136  0.62371  0.06683  1.0000
  H   H600      1.0  0.18970  0.49724  0.15354  1.0000
  C   C761      1.0  0.03674  0.60831  0.22742  1.0000
  C   C762      1.0  0.20455  0.59657  0.13803  1.0000
  H   H601      1.0  0.31126  0.59378  0.98922  1.0000
  C   C763      1.0  0.99276  0.55190  0.13846  1.0000
  H   H602      1.0  0.31600  0.55049  0.99179  1.0000
  C   C764      1.0  0.32074  0.88449  0.19683  1.0000
  C   C765      1.0  0.23097  0.48831  0.04164  1.0000
  H   H603      1.0  0.00882  0.65613  0.22795  1.0000
  H   H604      1.0  0.04505  0.48248  0.15113  1.0000
  C   C766      1.0  0.31955  0.64823  0.02232  1.0000
  H   H605      1.0  0.31883  0.56392  0.10400  1.0000
  C   C767      1.0  0.28856  0.48200  0.03109  1.0000
  C   C768      1.0  0.15838  0.49250  0.23323  1.0000
  H   H606      1.0  0.32150  0.91286  0.17957  1.0000
  H   H607      1.0  0.10714  0.48143  0.02658  1.0000
  C   C769      1.0  0.32195  0.72138  0.98928  1.0000
  Fe  Fe49      1.0  0.26296  0.81696  0.43286  1.0000
  S   S93       1.0  0.23109  0.83419  0.43752  1.0000
  S   S94       1.0  0.27562  0.79819  0.45614  1.0000
  Fe  Fe50      1.0  0.26725  0.83346  0.39496  1.0000
  S   S95       1.0  0.23510  0.85192  0.39729  1.0000
  S   S96       1.0  0.28603  0.83889  0.36873  1.0000
  Fe  Fe51      1.0  0.24398  0.86080  0.42108  1.0000
  S   S97       1.0  0.24183  0.89111  0.43181  1.0000
  Fe  Fe52      1.0  0.22497  0.82328  0.41347  1.0000
  S   S98       1.0  0.19269  0.81307  0.41551  1.0000
  S   S99       1.0  0.27641  0.84406  0.41787  1.0000
  S   S100      1.0  0.25654  0.80424  0.40963  1.0000
  Fe  Fe53      1.0  0.12951  0.72135  0.40060  1.0000
  S   S101      1.0  0.13281  0.68812  0.41291  1.0000
  S   S102      1.0  0.15955  0.73596  0.39309  1.0000
  Fe  Fe54      1.0  0.08251  0.72394  0.40227  1.0000
  S   S103      1.0  0.08285  0.69184  0.41537  1.0000
  S   S104      1.0  0.05166  0.74294  0.39665  1.0000
  Fe  Fe55      1.0  0.10548  0.69916  0.43110  1.0000
  S   S105      1.0  0.10278  0.68568  0.45898  1.0000
  Fe  Fe56      1.0  0.10983  0.68296  0.39601  1.0000
  S   S106      1.0  0.10399  0.65227  0.38877  1.0000
  S   S107      1.0  0.10305  0.73250  0.41976  1.0000
  S   S108      1.0  0.10865  0.71524  0.38197  1.0000
  H   H608      1.0  0.03452  0.67261  0.23915  1.0000
  Fe  Fe57      1.0  0.11334  0.58135  0.31336  1.0000
  S   S109      1.0  0.08341  0.59235  0.30246  1.0000
  S   S110      1.0  0.12844  0.60622  0.32216  1.0000
  Fe  Fe58      1.0  0.11554  0.53769  0.30269  1.0000
  S   S111      1.0  0.08590  0.54648  0.29091  1.0000
  S   S112      1.0  0.13311  0.50584  0.29806  1.0000
  Fe  Fe59      1.0  0.09771  0.57609  0.27991  1.0000
  C   C770      1.0  0.22867  0.95565  0.40221  1.0000
  Fe  Fe60      1.0  0.07435  0.56198  0.31439  1.0000
  S   S113      1.0  0.04235  0.56178  0.32885  1.0000
  S   S114      1.0  0.12845  0.56664  0.28988  1.0000
  S   S115      1.0  0.10330  0.55151  0.32712  1.0000
  H   H609      1.0  0.10163  0.64414  0.29711  1.0000
  C   C771      1.0  0.25398  0.91760  0.34680  1.0000
  H   H610      1.0  0.14665  0.89998  0.48489  1.0000
  C   C772      1.0  0.02395  0.56211  0.31491  1.0000
  C   C773      1.0  0.02982  0.56376  0.29730  1.0000
  C   C774      1.0  0.01525  0.56320  0.28625  1.0000
  C   C775      1.0  0.22816  0.89422  0.35454  1.0000
  H   H611      1.0  0.04557  0.56552  0.29214  1.0000
  H   H612      1.0  0.02007  0.56364  0.27269  1.0000
  C   C776      1.0  0.03187  0.73006  0.39208  1.0000
  C   C777      1.0  0.01277  0.74143  0.38829  1.0000
  C   C778      1.0  0.29237  0.90343  0.31932  1.0000
  H   H613      1.0  0.02232  0.51557  0.33133  1.0000
  C   C779      1.0  0.01972  0.69900  0.38689  1.0000
  C   C780      1.0  0.03510  0.70875  0.39166  1.0000
  H   H614      1.0  0.01020  0.75792  0.38855  1.0000
  C   C781      1.0  0.07005  0.49840  0.29961  1.0000
  H   H615      1.0  0.02271  0.68265  0.38601  1.0000
  H   H616      1.0  0.04983  0.69990  0.39421  1.0000
  C   C782      1.0  0.10984  0.64078  0.36953  1.0000
  C   C783      1.0  0.12331  0.64835  0.35567  1.0000
  C   C784      1.0  0.12854  0.63777  0.34116  1.0000
  C   C785      1.0  0.12005  0.61981  0.34016  1.0000
  C   C786      1.0  0.10603  0.61267  0.35377  1.0000
  C   C787      1.0  0.10117  0.62297  0.36843  1.0000
  H   H617      1.0  0.13016  0.66198  0.35634  1.0000
  H   H618      1.0  0.13942  0.64341  0.33071  1.0000
  H   H619      1.0  0.09944  0.59885  0.35322  1.0000
  H   H620      1.0  0.09080  0.61695  0.37908  1.0000
  C   C788      1.0  0.24413  0.61257  0.41700  1.0000
  C   C789      1.0  0.12013  0.73270  0.47832  1.0000
  C   C790      1.0  0.11442  0.72080  0.46706  1.0000
  C   C791      1.0  0.10966  0.70097  0.47293  1.0000
  C   C792      1.0  0.29336  0.96217  0.33607  1.0000
  C   C793      1.0  0.05498  0.53248  0.26290  1.0000
  H   H621      1.0  0.98936  0.59215  0.23905  1.0000
  H   H622      1.0  0.11393  0.72693  0.45381  1.0000
  C   C794      1.0  0.21746  0.95806  0.46120  1.0000
  H   H623      1.0  0.00061  0.64325  0.35828  1.0000
  C   C795      1.0  0.18425  0.79070  0.41010  1.0000
  C   C796      1.0  0.19737  0.77652  0.40061  1.0000
  C   C797      1.0  0.18960  0.75974  0.39580  1.0000
  C   C798      1.0  0.16872  0.75667  0.40057  1.0000
  C   C799      1.0  0.15577  0.77046  0.41055  1.0000
  C   C800      1.0  0.16345  0.78742  0.41515  1.0000
  H   H624      1.0  0.21336  0.77877  0.39659  1.0000
  H   H625      1.0  0.19981  0.74924  0.38811  1.0000
  H   H626      1.0  0.13967  0.76843  0.41430  1.0000
  H   H627      1.0  0.15312  0.79825  0.42247  1.0000
  C   C801      1.0  0.22407  0.93848  0.39571  1.0000
  C   C802      1.0  0.22851  0.91842  0.40434  1.0000
  C   C803      1.0  0.23708  0.91556  0.41973  1.0000
  C   C804      1.0  0.24171  0.93272  0.42612  1.0000
  H   H628      1.0  0.08309  0.63674  0.27422  1.0000
  H   H629      1.0  0.22496  0.90528  0.39926  1.0000
  H   H630      1.0  0.24858  0.93054  0.43786  1.0000
  C   C805      1.0  0.22196  0.77490  0.46170  1.0000
  C   C806      1.0  0.28339  0.81193  0.47099  1.0000
  C   C807      1.0  0.28565  0.83284  0.46707  1.0000
  C   C808      1.0  0.32234  0.84395  0.34783  1.0000
  H   H631      1.0  0.01707  0.50581  0.30409  1.0000
  H   H632      1.0  0.28202  0.84104  0.45490  1.0000
  C   C809      1.0  0.14724  0.84945  0.47775  1.0000
  C   C810      1.0  0.04771  0.61513  0.34679  1.0000
  C   C811      1.0  0.03827  0.64776  0.45683  1.0000
  C   C812      1.0  0.19443  0.90140  0.46231  1.0000
  H   H633      1.0  0.11766  0.55411  0.24937  1.0000
  P   P28       1.0  0.20046  0.66375  0.41000  1.0000
  C   C813      1.0  0.21064  0.68322  0.39415  1.0000
  C   C814      1.0  0.18411  0.65055  0.40015  1.0000
  C   C815      1.0  0.16625  0.64344  0.40941  1.0000
  C   C816      1.0  0.15395  0.63307  0.40162  1.0000
  C   C817      1.0  0.15947  0.62951  0.38463  1.0000
  C   C818      1.0  0.17719  0.63652  0.37531  1.0000
  C   C819      1.0  0.18949  0.64698  0.38302  1.0000
  C   C820      1.0  0.23148  0.68637  0.39272  1.0000
  C   C821      1.0  0.23889  0.70189  0.38064  1.0000
  C   C822      1.0  0.22557  0.71435  0.36994  1.0000
  C   C823      1.0  0.20486  0.71121  0.37125  1.0000
  C   C824      1.0  0.19742  0.69570  0.38327  1.0000
  C   C825      1.0  0.18590  0.67545  0.42802  1.0000
  C   C826      1.0  0.17984  0.69689  0.42696  1.0000
  C   C827      1.0  0.16866  0.70574  0.44100  1.0000
  C   C828      1.0  0.16366  0.69329  0.45627  1.0000
  C   C829      1.0  0.16974  0.67198  0.45751  1.0000
  C   C830      1.0  0.18091  0.66308  0.44348  1.0000
  H   H634      1.0  0.21988  0.62262  0.40111  1.0000
  H   H635      1.0  0.16141  0.64619  0.42249  1.0000
  H   H636      1.0  0.13980  0.62819  0.40860  1.0000
  H   H637      1.0  0.14980  0.62160  0.37861  1.0000
  H   H638      1.0  0.18120  0.63400  0.36204  1.0000
  C   C831      1.0  0.07269  0.50403  0.31530  1.0000
  H   H639      1.0  0.24202  0.67707  0.40096  1.0000
  H   H640      1.0  0.25491  0.70447  0.37968  1.0000
  H   H641      1.0  0.23117  0.72665  0.36081  1.0000
  H   H642      1.0  0.19429  0.72123  0.36334  1.0000
  H   H643      1.0  0.18115  0.69389  0.38439  1.0000
  H   H644      1.0  0.18348  0.70690  0.41531  1.0000
  H   H645      1.0  0.16356  0.72225  0.43987  1.0000
  H   H646      1.0  0.15484  0.70009  0.46711  1.0000
  H   H647      1.0  0.99384  0.60001  0.34019  1.0000
  H   H648      1.0  0.18541  0.64652  0.44462  1.0000
  H   H649      1.0  0.21073  0.93544  0.32700  1.0000
  C   C832      1.0  0.21377  0.79083  0.47153  1.0000
  H   H650      1.0  0.03609  0.72967  0.34896  1.0000
  H   H651      1.0  0.14044  0.52332  0.26426  1.0000
  H   H652      1.0  0.24500  0.97220  0.45991  1.0000
  H   H653      1.0  0.30598  0.95309  0.40220  1.0000
  H   H654      1.0  0.02976  0.60992  0.27021  1.0000
  H   H655      1.0  0.27143  0.94892  0.48595  1.0000
  C   C833      1.0  0.31350  0.83547  0.36389  1.0000
  C   C834      1.0  0.02059  0.66894  0.24731  1.0000
  H   H656      1.0  0.05761  0.51488  0.33872  1.0000
  C   C835      1.0  0.19590  0.96130  0.46170  1.0000
  C   C836      1.0  0.05113  0.70817  0.45342  1.0000
  C   C837      1.0  0.04168  0.71973  0.43982  1.0000
  C   C838      1.0  0.03212  0.73990  0.44120  1.0000
  C   C839      1.0  0.03128  0.74828  0.45642  1.0000
  C   C840      1.0  0.04013  0.73651  0.47040  1.0000
  C   C841      1.0  0.05058  0.71658  0.46861  1.0000
  H   H657      1.0  0.05504  0.61703  0.24478  1.0000
  H   H658      1.0  0.03456  0.64273  0.47028  1.0000
  H   H659      1.0  0.30120  0.96392  0.37182  1.0000
  H   H660      1.0  0.30002  0.88311  0.35946  1.0000
  C   C842      1.0  0.02619  0.60823  0.25771  1.0000
  H   H661      1.0  0.25673  0.63965  0.44621  1.0000
  C   C843      1.0  0.06053  0.50920  0.24140  1.0000
  C   C844      1.0  0.31007  0.92775  0.44239  1.0000
  H   H662      1.0  0.30649  0.95386  0.32900  1.0000
  H   H663      1.0  0.28107  0.92027  0.41032  1.0000
  C   C845      1.0  0.13426  0.86240  0.46700  1.0000
  C   C846      1.0  0.00606  0.65973  0.24098  1.0000
  H   H664      1.0  0.01682  0.60575  0.31311  1.0000
  C   C847      1.0  0.28171  0.92280  0.38303  1.0000
  C   C848      1.0  0.04060  0.61186  0.24342  1.0000
  C   C849      1.0  0.23211  0.64999  0.43046  1.0000
  H   H665      1.0  0.23435  0.86768  0.46862  1.0000
  H   H666      1.0  0.05929  0.69282  0.45203  1.0000
  H   H667      1.0  0.04213  0.71329  0.42803  1.0000
  C   C850      1.0  0.05175  0.59755  0.35850  1.0000
  H   H668      1.0  0.02392  0.76401  0.45719  1.0000
  C   C851      1.0  0.99951  0.66805  0.27484  1.0000
  C   C852      1.0  0.06038  0.54849  0.25043  1.0000
  H   H669      1.0  0.22112  0.90846  0.47160  1.0000
  H   H670      1.0  0.08809  0.50491  0.31819  1.0000
  H   H671      1.0  0.06657  0.76555  0.46043  1.0000
  H   H672      1.0  0.09620  0.78454  0.45865  1.0000
  P   P29       1.0  0.04626  0.49264  0.27447  1.0000
  C   C853      1.0  0.12097  0.49462  0.23991  1.0000
  C   C854      1.0  0.03279  0.50440  0.30709  1.0000
  C   C855      1.0  0.00667  0.50949  0.26586  1.0000
  C   C856      1.0  0.99562  0.65471  0.34805  1.0000
  H   H673      1.0  0.12399  0.74796  0.47365  1.0000
  C   C857      1.0  0.29329  0.84295  0.47873  1.0000
  H   H674      1.0  0.22775  0.66453  0.43567  1.0000
  H   H675      1.0  0.25774  0.88870  0.36374  1.0000
  H   H676      1.0  0.02546  0.74901  0.43036  1.0000
  C   C858      1.0  0.24858  0.63597  0.43641  1.0000
  C   C859      1.0  0.14019  0.51296  0.25498  1.0000
  H   H677      1.0  0.05612  0.58256  0.35402  1.0000
  H   H678      1.0  0.04890  0.61334  0.33339  1.0000
  H   H679      1.0  0.06832  0.62886  0.45525  1.0000
  H   H680      1.0  0.23860  0.77000  0.46000  1.0000
  H   H681      1.0  0.20318  0.65228  0.37557  1.0000
  H   H682      1.0  0.02505  0.64726  0.30609  1.0000
  C   C860      1.0  0.04161  0.64745  0.30407  1.0000
  H   H683      1.0  0.17320  0.50969  0.24778  1.0000
  H   H684      1.0  0.29555  0.88322  0.41322  1.0000
  H   H685      1.0  0.30197  0.87069  0.44381  1.0000
  C   C861      1.0  0.04796  0.65909  0.42181  1.0000
  H   H686      1.0  0.08234  0.65339  0.32413  1.0000
  H   H687      1.0  0.05072  0.53550  0.27597  1.0000
  C   C862      1.0  0.31959  0.91341  0.33257  1.0000
  H   H688      1.0  0.05851  0.70751  0.47877  1.0000
  H   H689      1.0  0.06046  0.56371  0.25395  1.0000
  P   P30       1.0  0.03779  0.65759  0.33739  1.0000
  H   H690      1.0  0.24530  0.94440  0.32886  1.0000
  H   H691      1.0  0.03269  0.67930  0.47728  1.0000
  C   C863      1.0  0.08801  0.77978  0.47102  1.0000
  C   C864      1.0  0.21481  0.90728  0.34425  1.0000
  C   C865      1.0  0.26085  0.96354  0.35479  1.0000
  H   H692      1.0  0.04488  0.63813  0.27888  1.0000
  C   C866      1.0  0.05004  0.49822  0.29537  1.0000
  C   C867      1.0  0.29634  0.89173  0.37031  1.0000
  C   C868      1.0  0.25456  0.61725  0.42971  1.0000
  H   H693      1.0  0.12005  0.87107  0.47240  1.0000
  C   C869      1.0  0.06211  0.64527  0.43082  1.0000
  C   C870      1.0  0.20890  0.76604  0.45345  1.0000
  C   C871      1.0  0.05278  0.64222  0.28863  1.0000
  S   S116      1.0  0.09180  0.59301  0.25378  1.0000
  C   C872      1.0  0.00300  0.67931  0.32316  1.0000
  C   C873      1.0  0.22141  0.64531  0.41781  1.0000
  C   C874      1.0  0.28552  0.91245  0.39908  1.0000
  C   C875      1.0  0.22821  0.97470  0.46072  1.0000
  H   H694      1.0  0.05400  0.58564  0.38483  1.0000
  C   C876      1.0  0.04778  0.67839  0.34462  1.0000
  H   H695      1.0  0.24856  0.95609  0.36258  1.0000
  C   C877      1.0  0.07434  0.64151  0.28595  1.0000
  C   C878      1.0  0.08479  0.64572  0.29881  1.0000
  C   C879      1.0  0.22767  0.62656  0.41100  1.0000
  H   H696      1.0  0.08374  0.49511  0.29075  1.0000
  C   C880      1.0  0.07369  0.65095  0.31425  1.0000
  H   H697      1.0  0.02864  0.68018  0.26915  1.0000
  H   H698      1.0  0.20273  0.89845  0.44997  1.0000
  C   C881      1.0  0.05051  0.59928  0.37587  1.0000
  C   C882      1.0  0.30740  0.89411  0.30747  1.0000
  C   C883      1.0  0.05195  0.65215  0.31695  1.0000
  C   C884      1.0  0.00088  0.71039  0.38263  1.0000
  C   C885      1.0  0.07509  0.69045  0.35651  1.0000
  H   H699      1.0  0.20241  0.85453  0.46534  1.0000
  C   C886      1.0  0.05487  0.51278  0.25850  1.0000
  C   C887      1.0  0.04253  0.63467  0.35241  1.0000
  P   P31       1.0  0.18182  0.82020  0.48436  1.0000
  C   C888      1.0  0.21033  0.84834  0.47634  1.0000
  H   H700      1.0  0.21707  0.94068  0.38399  1.0000
  C   C889      1.0  0.01017  0.66406  0.33599  1.0000
  C   C890      1.0  0.29971  0.88141  0.38639  1.0000
  H   H701      1.0  0.27796  0.93273  0.45305  1.0000
  C   C891      1.0  0.04508  0.61864  0.38159  1.0000
  H   H702      1.0  0.05185  0.66347  0.40822  1.0000
  H   H703      1.0  0.10709  0.51357  0.25961  1.0000
  H   H704      1.0  0.24881  0.59808  0.41175  1.0000
  H   H705      1.0  0.27317  0.89602  0.45427  1.0000
  C   C892      1.0  0.24771  0.89926  0.35576  1.0000
  H   H706      1.0  0.16546  0.66237  0.46928  1.0000
  H   H707      1.0  0.12927  0.87368  0.44091  1.0000
  H   H708      1.0  0.22343  0.88009  0.36160  1.0000
  C   C893      1.0  0.04104  0.63626  0.36992  1.0000
  H   H709      1.0  0.04440  0.62006  0.39502  1.0000
  C   C894      1.0  0.28814  0.90088  0.44940  1.0000
  C   C895      1.0  0.28690  0.91240  0.36852  1.0000
  H   H710      1.0  0.17762  0.76670  0.44811  1.0000
  H   H711      1.0  0.01394  0.68705  0.31399  1.0000
  C   C896      1.0  0.02425  0.66231  0.44800  1.0000
  C   C897      1.0  0.00315  0.56118  0.32138  1.0000
  C   C898      1.0  0.13943  0.86390  0.44927  1.0000
  H   H712      1.0  0.16174  0.85345  0.42855  1.0000
  H   H713      1.0  0.27617  0.90258  0.31879  1.0000
  H   H714      1.0  0.01886  0.67867  0.42300  1.0000
  C   C899      1.0  0.15768  0.85259  0.44229  1.0000
  H   H715      1.0  0.03702  0.65117  0.37451  1.0000
  H   H716      1.0  0.30274  0.88621  0.29799  1.0000
  H   H717      1.0  0.29555  0.85891  0.47546  1.0000
  C   C900      1.0  0.17066  0.83969  0.45299  1.0000
  H   H718      1.0  0.07552  0.65913  0.35244  1.0000
  H   H719      1.0  0.22445  0.79787  0.47716  1.0000
  C   C901      1.0  0.27786  0.95189  0.34618  1.0000
  H   H720      1.0  0.16302  0.79505  0.46502  1.0000
  C   C902      1.0  0.29082  0.92152  0.44870  1.0000
  H   H721      1.0  0.02143  0.70188  0.33977  1.0000
  C   C903      1.0  0.29837  0.91323  0.33192  1.0000
  C   C904      1.0  0.01871  0.49273  0.27441  1.0000
  C   C905      1.0  0.29392  0.89163  0.40077  1.0000
  C   C906      1.0  0.18762  0.77310  0.45501  1.0000
  C   C907      1.0  0.03667  0.69844  0.34389  1.0000
  C   C908      1.0  0.06693  0.67453  0.35121  1.0000
  C   C909      1.0  0.02922  0.66773  0.43034  1.0000
  H   H722      1.0  0.07692  0.63918  0.42417  1.0000
  C   C910      1.0  0.19235  0.79809  0.47319  1.0000
  H   H723      1.0  0.19964  0.90334  0.34338  1.0000
  H   H724      1.0  0.30611  0.86523  0.38770  1.0000
  C   C911      1.0  0.17938  0.78914  0.46471  1.0000
  C   C912      1.0  0.30460  0.88649  0.44347  1.0000
  C   C913      1.0  0.23780  0.95263  0.41733  1.0000
  C   C914      1.0  0.20472  0.90733  0.47459  1.0000
  C   C915      1.0  0.12136  0.50745  0.25230  1.0000
  H   H725      1.0  0.18465  0.83093  0.44731  1.0000
  C   C916      1.0  0.04495  0.71437  0.34912  1.0000
  C   C917      1.0  0.16545  0.83784  0.47078  1.0000
  H   H726      1.0  0.16580  0.89393  0.45647  1.0000
  C   C918      1.0  0.99446  0.56230  0.29264  1.0000
  H   H727      1.0  0.26731  0.60638  0.43434  1.0000
  H   H728      1.0  0.00415  0.62766  0.45598  1.0000
  H   H729      1.0  0.01361  0.52250  0.25892  1.0000
  C   C919      1.0  0.05726  0.63958  0.44832  1.0000
  H   H730      1.0  0.08977  0.68721  0.36173  1.0000
  C   C920      1.0  0.03559  0.50998  0.32274  1.0000
  H   H731      1.0  0.21533  0.75416  0.44539  1.0000
  C   C921      1.0  0.06418  0.71041  0.35536  1.0000
  P   P32       1.0  0.99924  0.67211  0.45888  1.0000
  P   P33       1.0  0.27936  0.92411  0.34807  1.0000
  C   C922      1.0  0.05551  0.50971  0.32688  1.0000
  H   H732      1.0  0.31235  0.85259  0.33883  1.0000
  C   C923      1.0  0.01726  0.67319  0.26421  1.0000
  C   C924      1.0  0.18503  0.98121  0.46189  1.0000
  C   C925      1.0  0.24065  0.93042  0.33617  1.0000
  C   C926      1.0  0.00059  0.67408  0.48110  1.0000
  H   H733      1.0  0.22593  0.94271  0.46085  1.0000
  C   C927      1.0  0.22846  0.85592  0.47818  1.0000
  C   C928      1.0  0.00748  0.60184  0.25589  1.0000
  H   H734      1.0  0.07025  0.72266  0.35987  1.0000
  C   C929      1.0  0.17353  0.89884  0.46598  1.0000
  C   C930      1.0  0.15867  0.50542  0.24554  1.0000
  H   H735      1.0  0.27400  0.93853  0.38222  1.0000
  C   C931      1.0  0.22107  0.92534  0.33502  1.0000
  H   H736      1.0  0.18766  0.94844  0.46149  1.0000
  H   H737      1.0  0.24138  0.96573  0.42245  1.0000
  C   C932      1.0  0.07117  0.76892  0.47210  1.0000
  C   C933      1.0  0.00364  0.59794  0.23997  1.0000
  H   H738      1.0  0.99839  0.56047  0.33498  1.0000
  H   H739      1.0  0.31809  0.81177  0.41875  1.0000
  H   H740      1.0  0.31998  0.81756  0.38771  1.0000
  H   H741      1.0  0.16988  0.72825  0.47869  1.0000
  C   C934      1.0  0.31932  0.95569  0.39288  1.0000
  H   H742      1.0  0.31206  0.94378  0.44197  1.0000
  H   H743      1.0  0.99630  0.59906  0.26700  1.0000
  C   C935      1.0  0.99728  0.73164  0.38357  1.0000
  H   H744      1.0  0.99743  0.67090  0.28805  1.0000
  H   H745      1.0  0.12104  0.48600  0.33232  1.0000
  C   C936      1.0  0.11316  0.56098  0.23707  1.0000
  C   C937      1.0  0.99024  0.71519  0.45595  1.0000
  H   H746      1.0  0.00309  0.62669  0.28811  1.0000
  C   C938      1.0  0.01900  0.67779  0.48637  1.0000
  C   C939      1.0  0.31662  0.96154  0.37572  1.0000
  H   H747      1.0  0.99312  0.50948  0.36624  1.0000
  C   C940      1.0  0.00071  0.61288  0.31404  1.0000
  C   C941      1.0  0.98990  0.69732  0.44847  1.0000
  H   H748      1.0  0.19762  0.69802  0.48024  1.0000
  H   H749      1.0  0.06047  0.49416  0.23762  1.0000
  H   H750      1.0  0.99588  0.71428  0.46816  1.0000
  C   C942      1.0  0.99145  0.49989  0.35676  1.0000
  C   C943      1.0  0.16278  0.90229  0.48195  1.0000
  S   S117      1.0  0.22255  0.98078  0.39160  1.0000
  H   H751      1.0  0.10623  0.49082  0.23782  1.0000
  C   C944      1.0  0.99283  0.62486  0.29987  1.0000
  H   H752      1.0  0.10814  0.79169  0.48508  1.0000
  H   H753      1.0  0.99681  0.74261  0.48660  1.0000
  C   C945      1.0  0.09470  0.78387  0.48588  1.0000
  C   C946      1.0  0.28823  0.80144  0.48682  1.0000
  C   C947      1.0  0.31648  0.94069  0.64599  1.0000
  Fe  Fe61      1.0  0.28370  0.84438  0.57394  1.0000
  S   S118      1.0  0.24928  0.85680  0.57465  1.0000
  H   H754      1.0  0.11704  0.69893  0.51469  1.0000
  Fe  Fe62      1.0  0.28929  0.84567  0.53507  1.0000
  S   S119      1.0  0.25600  0.85797  0.53377  1.0000
  S   S120      1.0  0.30805  0.84508  0.50892  1.0000
  Fe  Fe63      1.0  0.25978  0.87930  0.55217  1.0000
  S   S121      1.0  0.25102  0.91327  0.54233  1.0000
  Fe  Fe64      1.0  0.24874  0.83419  0.55601  1.0000
  S   S122      1.0  0.22631  0.81352  0.55003  1.0000
  S   S123      1.0  0.29369  0.86803  0.55248  1.0000
  S   S124      1.0  0.28249  0.82058  0.55650  1.0000
  Fe  Fe65      1.0  0.13156  0.74588  0.56950  1.0000
  S   S125      1.0  0.14900  0.72280  0.55279  1.0000
  S   S126      1.0  0.14717  0.76849  0.58089  1.0000
  Fe  Fe66      1.0  0.08983  0.72959  0.56889  1.0000
  S   S127      1.0  0.10477  0.70562  0.55194  1.0000
  S   S128      1.0  0.05594  0.72863  0.57976  1.0000
  Fe  Fe67      1.0  0.13017  0.69963  0.56888  1.0000
  S   S129      1.0  0.14635  0.66794  0.57875  1.0000
  Fe  Fe68      1.0  0.12192  0.73094  0.53769  1.0000
  S   S130      1.0  0.12719  0.74076  0.50934  1.0000
  S   S131      1.0  0.11447  0.72213  0.58676  1.0000
  S   S132      1.0  0.10522  0.75551  0.55345  1.0000
  C   C948      1.0  0.05405  0.52900  0.55568  1.0000
  Fe  Fe69      1.0  0.11294  0.56460  0.63428  1.0000
  S   S133      1.0  0.10289  0.56446  0.66247  1.0000
  S   S134      1.0  0.10017  0.59364  0.61777  1.0000
  Fe  Fe70      1.0  0.13046  0.51855  0.63895  1.0000
  S   S135      1.0  0.12154  0.51532  0.66720  1.0000
  Fe  Fe71      1.0  0.09196  0.53453  0.66108  1.0000
  S   S136      1.0  0.06152  0.52654  0.67455  1.0000
  Fe  Fe72      1.0  0.13361  0.54530  0.66596  1.0000
  S   S137      1.0  0.15385  0.54761  0.68599  1.0000
  S   S138      1.0  0.09962  0.53563  0.63275  1.0000
  S   S139      1.0  0.14491  0.54743  0.63782  1.0000
  H   H755      1.0  0.30072  0.66396  0.51233  1.0000
  C   C949      1.0  0.14080  0.55683  0.70483  1.0000
  H   H756      1.0  0.29875  0.80350  0.51089  1.0000
  C   C950      1.0  0.05568  0.51891  0.60720  1.0000
  C   C951      1.0  0.12188  0.56994  0.70473  1.0000
  H   H757      1.0  0.01710  0.55292  0.62507  1.0000
  C   C952      1.0  0.11068  0.69306  0.49013  1.0000
  H   H758      1.0  0.11515  0.57461  0.69296  1.0000
  C   C953      1.0  0.04254  0.54537  0.66625  1.0000
  C   C954      1.0  0.04839  0.56140  0.65392  1.0000
  C   C955      1.0  0.03326  0.57621  0.64687  1.0000
  C   C956      1.0  0.01225  0.57489  0.65201  1.0000
  C   C957      1.0  0.00639  0.55929  0.66475  1.0000
  C   C958      1.0  0.02154  0.54444  0.67182  1.0000
  H   H759      1.0  0.06455  0.56226  0.64956  1.0000
  H   H760      1.0  0.03783  0.58828  0.63704  1.0000
  H   H761      1.0  0.06404  0.63639  0.57791  1.0000
  H   H762      1.0  0.01699  0.53237  0.68164  1.0000
  C   C959      1.0  0.03482  0.73972  0.56830  1.0000
  C   C960      1.0  0.01488  0.73481  0.57462  1.0000
  C   C961      1.0  0.13937  0.55827  0.73535  1.0000
  S   S140      1.0  0.99363  0.59193  0.64151  1.0000
  C   C962      1.0  0.01988  0.76267  0.54509  1.0000
  C   C963      1.0  0.03729  0.75359  0.55339  1.0000
  H   H763      1.0  0.01258  0.72477  0.58644  1.0000
  C   C964      1.0  0.04122  0.72826  0.50810  1.0000
  H   H764      1.0  0.02179  0.77378  0.53384  1.0000
  H   H765      1.0  0.05252  0.75767  0.54851  1.0000
  C   C965      1.0  0.13322  0.64762  0.58989  1.0000
  C   C966      1.0  0.11155  0.64976  0.59314  1.0000
  C   C967      1.0  0.10172  0.63309  0.60180  1.0000
  C   C968      1.0  0.11340  0.61423  0.60736  1.0000
  C   C969      1.0  0.13507  0.61215  0.60423  1.0000
  C   C970      1.0  0.14490  0.62880  0.59558  1.0000
  H   H766      1.0  0.10243  0.66420  0.58888  1.0000
  H   H767      1.0  0.08497  0.63477  0.60420  1.0000
  H   H768      1.0  0.14423  0.59763  0.60820  1.0000
  H   H769      1.0  0.16167  0.62700  0.59311  1.0000
  C   C971      1.0  0.20447  0.80099  0.55911  1.0000
  C   C972      1.0  0.19390  0.80392  0.57528  1.0000
  C   C973      1.0  0.17645  0.79386  0.58171  1.0000
  C   C974      1.0  0.16935  0.78070  0.57213  1.0000
  C   C975      1.0  0.17996  0.77775  0.55598  1.0000
  C   C976      1.0  0.19736  0.78786  0.54952  1.0000
  H   H770      1.0  0.19914  0.81393  0.58283  1.0000
  H   H771      1.0  0.16840  0.79626  0.59422  1.0000
  H   H772      1.0  0.17471  0.76774  0.54843  1.0000
  H   H773      1.0  0.20539  0.78540  0.53702  1.0000
  C   C977      1.0  0.26895  0.89762  0.49650  1.0000
  H   H774      1.0  0.17444  0.83586  0.51775  1.0000
  H   H775      1.0  0.13276  0.77873  0.52191  1.0000
  C   C978      1.0  0.25205  0.93524  0.55227  1.0000
  C   C979      1.0  0.25562  0.95376  0.54196  1.0000
  C   C980      1.0  0.25487  0.97206  0.54924  1.0000
  C   C981      1.0  0.25007  0.97208  0.56689  1.0000
  C   C982      1.0  0.24667  0.95353  0.57721  1.0000
  C   C983      1.0  0.24770  0.93517  0.56994  1.0000
  H   H776      1.0  0.25874  0.95402  0.52825  1.0000
  H   H777      1.0  0.20960  0.81157  0.51109  1.0000
  C   C984      1.0  0.12069  0.72503  0.49558  1.0000
  H   H778      1.0  0.24430  0.92119  0.57794  1.0000
  C   C985      1.0  0.19997  0.86282  0.53606  1.0000
  C   C986      1.0  0.19937  0.86725  0.55270  1.0000
  C   C987      1.0  0.20051  0.88732  0.55562  1.0000
  C   C988      1.0  0.20226  0.90298  0.54189  1.0000
  C   C989      1.0  0.20301  0.89867  0.52506  1.0000
  C   C990      1.0  0.20195  0.87835  0.52230  1.0000
  P   P34       1.0  0.20691  0.91825  0.50693  1.0000
  C   C991      1.0  0.19632  0.94391  0.51225  1.0000
  H   H779      1.0  0.28124  0.98030  0.59985  1.0000
  C   C992      1.0  0.07903  0.50802  0.53041  1.0000
  H   H780      1.0  0.10730  0.67761  0.49467  1.0000
  C   C993      1.0  0.04578  0.70041  0.53790  1.0000
  C   C994      1.0  0.15396  0.79692  0.50555  1.0000
  C   C995      1.0  0.09272  0.52385  0.71767  1.0000
  C   C996      1.0  0.17925  0.95546  0.50484  1.0000
  C   C997      1.0  0.00006  0.75730  0.55123  1.0000
  H   H781      1.0  0.29818  0.93717  0.55105  1.0000
  H   H782      1.0  0.17097  0.48881  0.71361  1.0000
  C   C998      1.0  0.20622  0.95312  0.52302  1.0000
  H   H783      1.0  0.28153  0.66180  0.54153  1.0000
  C   C999      1.0  0.01518  0.66033  0.57170  1.0000
  C   C1000     1.0  0.31642  0.94721  0.57769  1.0000
  C   C1001     1.0  0.14182  0.80138  0.53508  1.0000
  C   C1002     1.0  0.00224  0.67833  0.51542  1.0000
  C   C1003     1.0  0.02376  0.52056  0.59481  1.0000
  H   H784      1.0  0.19961  0.84714  0.53383  1.0000
  H   H785      1.0  0.19853  0.85497  0.56328  1.0000
  H   H786      1.0  0.20058  0.89065  0.56850  1.0000
  H   H787      1.0  0.20362  0.91818  0.54457  1.0000
  H   H788      1.0  0.99690  0.50151  0.68776  1.0000
  H   H789      1.0  0.01305  0.70957  0.54475  1.0000
  C   C1004     1.0  0.09874  0.49273  0.58529  1.0000
  S   S141      1.0  0.29683  0.83929  0.59957  1.0000
  C   C1005     1.0  0.11199  0.57755  0.71979  1.0000
  C   C1006     1.0  0.05175  0.57941  0.69133  1.0000
  C   C1007     1.0  0.05870  0.62095  0.70419  1.0000
  H   H790      1.0  0.31828  0.89723  0.51235  1.0000
  C   C1008     1.0  0.17218  0.97572  0.50829  1.0000
  H   H791      1.0  0.06007  0.57874  0.60971  1.0000
  H   H792      1.0  0.21976  0.94481  0.52850  1.0000
  H   H793      1.0  0.16422  0.54099  0.72028  1.0000
  H   H794      1.0  0.01491  0.51558  0.58610  1.0000
  H   H795      1.0  0.08998  0.77994  0.51337  1.0000
  H   H796      1.0  0.07168  0.51258  0.60843  1.0000
  C   C1009     1.0  0.29496  0.81178  0.49875  1.0000
  C   C1010     1.0  0.19485  0.68753  0.56584  1.0000
  C   C1011     1.0  0.18785  0.70169  0.57752  1.0000
  C   C1012     1.0  0.19308  0.72166  0.57393  1.0000
  C   C1013     1.0  0.21290  0.71312  0.54710  1.0000
  C   C1014     1.0  0.20709  0.69328  0.55059  1.0000
  P   P35       1.0  0.22760  0.72061  0.52684  1.0000
  C   C1015     1.0  0.20990  0.72311  0.51111  1.0000
  C   C1016     1.0  0.19400  0.73997  0.51026  1.0000
  H   H797      1.0  0.31264  0.84333  0.63044  1.0000
  C   C1017     1.0  0.17985  0.74182  0.49845  1.0000
  H   H798      1.0  0.06940  0.64396  0.49105  1.0000
  C   C1018     1.0  0.21105  0.70786  0.50032  1.0000
  C   C1019     1.0  0.25029  0.70206  0.52230  1.0000
  C   C1020     1.0  0.26150  0.70350  0.50592  1.0000
  C   C1021     1.0  0.27955  0.68971  0.50231  1.0000
  C   C1022     1.0  0.28667  0.67456  0.51510  1.0000
  C   C1023     1.0  0.27583  0.67332  0.53154  1.0000
  C   C1024     1.0  0.25779  0.68712  0.53519  1.0000
  H   H799      1.0  0.19017  0.67228  0.56840  1.0000
  H   H800      1.0  0.17776  0.69738  0.58904  1.0000
  H   H801      1.0  0.21175  0.68234  0.54143  1.0000
  H   H802      1.0  0.19234  0.75152  0.51889  1.0000
  C   C1025     1.0  0.06082  0.76220  0.48810  1.0000
  H   H803      1.0  0.16552  0.48335  0.66150  1.0000
  C   C1026     1.0  0.20328  0.83225  0.48812  1.0000
  C   C1027     1.0  0.03248  0.68018  0.58707  1.0000
  H   H804      1.0  0.25637  0.71541  0.49597  1.0000
  H   H805      1.0  0.07423  0.71963  0.50187  1.0000
  H   H806      1.0  0.99633  0.65911  0.61351  1.0000
  C   C1028     1.0  0.05024  0.61160  0.71991  1.0000
  H   H807      1.0  0.24999  0.68625  0.54812  1.0000
  H   H808      1.0  0.03268  0.69379  0.59308  1.0000
  C   C1029     1.0  0.05902  0.56503  0.70454  1.0000
  C   C1030     1.0  0.03191  0.48677  0.72343  1.0000
  C   C1031     1.0  0.01637  0.57447  0.70224  1.0000
  C   C1032     1.0  0.99769  0.74314  0.56592  1.0000
  C   C1033     1.0  0.23224  0.83218  0.50395  1.0000
  C   C1034     1.0  0.02489  0.54172  0.61682  1.0000
  H   H809      1.0  0.27889  0.88287  0.49764  1.0000
  H   H810      1.0  0.14291  0.84833  0.49142  1.0000
  C   C1035     1.0  0.15358  0.81747  0.53382  1.0000
  C   C1036     1.0  0.01597  0.62941  0.71481  1.0000
  H   H811      1.0  0.15370  0.82514  0.54492  1.0000
  C   C1037     1.0  0.30047  0.95404  0.59014  1.0000
  C   C1038     1.0  0.02396  0.72517  0.52030  1.0000
  H   H812      1.0  0.29424  0.91508  0.48794  1.0000
  C   C1039     1.0  0.29673  0.88852  0.61969  1.0000
  C   C1040     1.0  0.27854  0.88493  0.61421  1.0000
  C   C1041     1.0  0.27465  0.89174  0.59742  1.0000
  C   C1042     1.0  0.28897  0.90203  0.58605  1.0000
  H   H813      1.0  0.03407  0.68276  0.50737  1.0000
  H   H814      1.0  0.07814  0.69502  0.52795  1.0000
  H   H815      1.0  0.02492  0.59531  0.67991  1.0000
  H   H816      1.0  0.05624  0.66478  0.63034  1.0000
  C   C1043     1.0  0.02543  0.49727  0.65214  1.0000
  H   H817      1.0  0.29258  0.94325  0.59929  1.0000
  H   H818      1.0  0.20311  0.87429  0.50951  1.0000
  H   H819      1.0  0.05413  0.53843  0.62682  1.0000
  H   H820      1.0  0.13106  0.49140  0.58840  1.0000
  C   C1044     1.0  0.04993  0.66513  0.58652  1.0000
  H   H821      1.0  0.06350  0.66730  0.59195  1.0000
  C   C1045     1.0  0.06293  0.70315  0.52571  1.0000
  H   H822      1.0  0.13971  0.50653  0.73167  1.0000
  C   C1046     1.0  0.02893  0.61561  0.72516  1.0000
  H   H823      1.0  0.26779  0.87621  0.62275  1.0000
  H   H824      1.0  0.26074  0.88858  0.59311  1.0000
  H   H825      1.0  0.28559  0.90702  0.57311  1.0000
  H   H826      1.0  0.22262  0.69429  0.50119  1.0000
  C   C1047     1.0  0.01394  0.78415  0.49787  1.0000
  H   H827      1.0  0.09641  0.50937  0.58238  1.0000
  H   H828      1.0  0.24105  0.88439  0.50527  1.0000
  C   C1048     1.0  0.30931  0.92486  0.54611  1.0000
  H   H829      1.0  0.04637  0.62949  0.63492  1.0000
  H   H830      1.0  0.05991  0.76138  0.51546  1.0000
  C   C1049     1.0  0.07048  0.61684  0.65066  1.0000
  C   C1050     1.0  0.06203  0.50808  0.55956  1.0000
  C   C1051     1.0  0.06486  0.65250  0.63813  1.0000
  C   C1052     1.0  0.08199  0.65635  0.64513  1.0000
  C   C1053     1.0  0.09382  0.64029  0.65460  1.0000
  C   C1054     1.0  0.08754  0.62067  0.65776  1.0000
  P   P36       1.0  0.11605  0.64495  0.66366  1.0000
  C   C1055     1.0  0.12611  0.66718  0.65147  1.0000
  C   C1056     1.0  0.10705  0.64816  0.68574  1.0000
  C   C1057     1.0  0.11165  0.63220  0.69893  1.0000
  C   C1058     1.0  0.10404  0.63465  0.71591  1.0000
  H   H831      1.0  0.30264  0.91267  0.65207  1.0000
  C   C1059     1.0  0.08621  0.66850  0.70676  1.0000
  C   C1060     1.0  0.09393  0.66616  0.68977  1.0000
  C   C1061     1.0  0.12945  0.66852  0.63358  1.0000
  C   C1062     1.0  0.13710  0.68565  0.62387  1.0000
  C   C1063     1.0  0.14176  0.70142  0.63191  1.0000
  C   C1064     1.0  0.13906  0.69992  0.64974  1.0000
  C   C1065     1.0  0.13141  0.68278  0.65953  1.0000
  C   C1066     1.0  0.13733  0.62423  0.66147  1.0000
  C   C1067     1.0  0.15311  0.62126  0.67211  1.0000
  C   C1068     1.0  0.16948  0.60505  0.67052  1.0000
  C   C1069     1.0  0.17074  0.59237  0.65777  1.0000
  C   C1070     1.0  0.15580  0.59607  0.64648  1.0000
  C   C1071     1.0  0.13905  0.61180  0.64839  1.0000
  H   H832      1.0  0.06648  0.60138  0.65223  1.0000
  C   C1072     1.0  0.17291  0.90851  0.49419  1.0000
  H   H833      1.0  0.08613  0.67179  0.64284  1.0000
  H   H834      1.0  0.09624  0.60822  0.66528  1.0000
  H   H835      1.0  0.12066  0.61761  0.69621  1.0000
  P   P37       1.0  0.03930  0.74783  0.48981  1.0000
  C   C1073     1.0  0.99651  0.75782  0.49019  1.0000
  H   H836      1.0  0.05258  0.64185  0.68158  1.0000
  H   H837      1.0  0.08963  0.67834  0.67974  1.0000
  H   H838      1.0  0.12608  0.65637  0.62707  1.0000
  H   H839      1.0  0.13943  0.68666  0.61005  1.0000
  H   H840      1.0  0.14757  0.71474  0.62429  1.0000
  H   H841      1.0  0.14299  0.71205  0.65594  1.0000
  H   H842      1.0  0.12981  0.68171  0.67330  1.0000
  H   H843      1.0  0.15268  0.63128  0.68177  1.0000
  H   H844      1.0  0.18118  0.60224  0.67919  1.0000
  H   H845      1.0  0.18328  0.57965  0.65662  1.0000
  H   H846      1.0  0.15719  0.58673  0.63623  1.0000
  H   H847      1.0  0.12759  0.61428  0.63956  1.0000
  C   C1074     1.0  0.30737  0.90559  0.59143  1.0000
  C   C1075     1.0  0.07091  0.52876  0.52662  1.0000
  C   C1076     1.0  0.03801  0.50631  0.72205  1.0000
  C   C1077     1.0  0.02470  0.63900  0.69913  1.0000
  C   C1078     1.0  0.05010  0.64764  0.57855  1.0000
  H   H848      1.0  0.12292  0.51279  0.70514  1.0000
  H   H849      1.0  0.16449  0.91085  0.50663  1.0000
  C   C1079     1.0  0.00067  0.60045  0.57128  1.0000
  C   C1080     1.0  0.03046  0.58429  0.69026  1.0000
  C   C1081     1.0  0.23939  0.84779  0.49197  1.0000
  H   H850      1.0  0.07505  0.61714  0.69988  1.0000
  H   H851      1.0  0.00994  0.49987  0.62972  1.0000
  H   H852      1.0  0.17155  0.94913  0.49615  1.0000
  H   H853      1.0  0.24083  0.82593  0.51460  1.0000
  H   H854      1.0  0.28695  0.78519  0.48981  1.0000
  H   H855      1.0  0.07437  0.53672  0.51390  1.0000
  C   C1082     1.0  0.01983  0.67980  0.50345  1.0000
  P   P38       1.0  0.03369  0.62313  0.55976  1.0000
  C   C1083     1.0  0.03268  0.64505  0.57112  1.0000
  C   C1084     1.0  0.04969  0.60130  0.56997  1.0000
  C   C1085     1.0  0.04811  0.59758  0.58789  1.0000
  C   C1086     1.0  0.06086  0.58115  0.59590  1.0000
  C   C1087     1.0  0.07516  0.56821  0.58616  1.0000
  C   C1088     1.0  0.07660  0.57156  0.56835  1.0000
  C   C1089     1.0  0.06394  0.58806  0.56025  1.0000
  H   H856      1.0  0.10773  0.62230  0.72604  1.0000
  H   H857      1.0  0.99434  0.62403  0.68692  1.0000
  C   C1090     1.0  0.00788  0.61678  0.55985  1.0000
  H   H858      1.0  0.13291  0.79656  0.54714  1.0000
  C   C1091     1.0  0.04597  0.63467  0.69380  1.0000
  C   C1092     1.0  0.04510  0.62964  0.53796  1.0000
  C   C1093     1.0  0.03991  0.62041  0.52466  1.0000
  C   C1094     1.0  0.04858  0.62559  0.50780  1.0000
  C   C1095     1.0  0.06262  0.63990  0.50410  1.0000
  C   C1096     1.0  0.06806  0.64895  0.51727  1.0000
  C   C1097     1.0  0.05939  0.64385  0.53413  1.0000
  C   C1098     1.0  0.23450  0.91745  0.50022  1.0000
  C   C1099     1.0  0.01517  0.67788  0.57956  1.0000
  H   H859      1.0  0.17907  0.50006  0.68267  1.0000
  H   H860      1.0  0.07619  0.68248  0.70980  1.0000
  H   H861      1.0  0.07550  0.56215  0.70545  1.0000
  H   H862      1.0  0.08536  0.55583  0.59248  1.0000
  H   H863      1.0  0.08786  0.56160  0.56084  1.0000
  H   H864      1.0  0.06556  0.59058  0.54646  1.0000
  C   C1100     1.0  0.24329  0.93564  0.49455  1.0000
  C   C1101     1.0  0.02628  0.71128  0.53512  1.0000
  H   H865      1.0  0.04771  0.69032  0.54971  1.0000
  H   H866      1.0  0.99756  0.54093  0.60508  1.0000
  H   H867      1.0  0.06016  0.60091  0.72791  1.0000
  H   H868      1.0  0.02918  0.60918  0.52730  1.0000
  H   H869      1.0  0.04446  0.61847  0.49761  1.0000
  C   C1102     1.0  0.08443  0.77730  0.50183  1.0000
  H   H870      1.0  0.07908  0.65992  0.51440  1.0000
  H   H871      1.0  0.06400  0.65099  0.54408  1.0000
  H   H872      1.0  0.26258  0.76903  0.55040  1.0000
  H   H873      1.0  0.15339  0.78909  0.49473  1.0000
  C   C1103     1.0  0.12336  0.51253  0.73208  1.0000
  C   C1104     1.0  0.31677  0.91931  0.64755  1.0000
  C   C1105     1.0  0.99607  0.67662  0.71889  1.0000
  C   C1106     1.0  0.11620  0.70508  0.50146  1.0000
  H   H874      1.0  0.28815  0.69093  0.48964  1.0000
  C   C1107     1.0  0.20547  0.72738  0.55875  1.0000
  C   C1108     1.0  0.11848  0.48262  0.58831  1.0000
  H   H875      1.0  0.24764  0.73683  0.55152  1.0000
  H   H876      1.0  0.18697  0.73294  0.58265  1.0000
  C   C1109     1.0  0.16565  0.82321  0.51847  1.0000
  C   C1110     1.0  0.05922  0.63269  0.64077  1.0000
  C   C1111     1.0  0.23791  0.74441  0.52625  1.0000
  H   H877      1.0  0.20881  0.74306  0.55607  1.0000
  C   C1112     1.0  0.09134  0.65279  0.71983  1.0000
  C   C1113     1.0  0.21437  0.82427  0.50199  1.0000
  H   H878      1.0  0.08541  0.52565  0.70609  1.0000
  C   C1114     1.0  0.24725  0.74793  0.54013  1.0000
  H   H879      1.0  0.04462  0.53757  0.56527  1.0000
  C   C1115     1.0  0.23842  0.75871  0.51139  1.0000
  H   H880      1.0  0.23210  0.75605  0.50023  1.0000
  H   H881      1.0  0.29997  0.88270  0.63257  1.0000
  C   C1116     1.0  0.29770  0.83251  0.49470  1.0000
  C   C1117     1.0  0.01388  0.53509  0.60545  1.0000
  C   C1118     1.0  0.08121  0.52911  0.73306  1.0000
  C   C1119     1.0  0.32059  0.90246  0.52411  1.0000
  H   H882      1.0  0.01506  0.64984  0.69100  1.0000
  C   C1120     1.0  0.02361  0.55970  0.71522  1.0000
  H   H883      1.0  0.01030  0.59127  0.58031  1.0000
  C   C1121     1.0  0.04500  0.55478  0.71639  1.0000
  C   C1122     1.0  0.25606  0.76594  0.53946  1.0000
  H   H884      1.0  0.02983  0.51260  0.64932  1.0000
  H   H885      1.0  0.24804  0.78751  0.49919  1.0000
  H   H886      1.0  0.24280  0.95345  0.59086  1.0000
  C   C1123     1.0  0.24755  0.77654  0.51068  1.0000
  C   C1124     1.0  0.25623  0.78021  0.52474  1.0000
  C   C1125     1.0  0.04482  0.51257  0.59542  1.0000
  H   H887      1.0  0.01247  0.55223  0.72443  1.0000
  C   C1126     1.0  0.31106  0.89885  0.60837  1.0000
  H   H888      1.0  0.29435  0.92657  0.52354  1.0000
  C   C1127     1.0  0.16645  0.81255  0.50432  1.0000
  H   H889      1.0  0.00188  0.70810  0.71673  1.0000
  H   H890      1.0  0.03720  0.60750  0.59570  1.0000
  H   H891      1.0  0.06268  0.58680  0.68196  1.0000
  C   C1128     1.0  0.14191  0.79121  0.52092  1.0000
  C   C1129     1.0  0.06068  0.71705  0.51091  1.0000
  C   C1130     1.0  0.30713  0.91895  0.53041  1.0000
  C   C1131     1.0  0.11386  0.51610  0.71714  1.0000
  C   C1132     1.0  0.19911  0.97331  0.52650  1.0000
  C   C1133     1.0  0.06753  0.76656  0.50296  1.0000
  H   H892      1.0  0.03972  0.51540  0.70961  1.0000
  C   C1134     1.0  0.24749  0.89848  0.50089  1.0000
  C   C1135     1.0  0.14961  0.55117  0.72014  1.0000
  C   C1136     1.0  0.27759  0.91578  0.49116  1.0000
  S   S142      1.0  0.14713  0.48969  0.62854  1.0000
  C   C1137     1.0  0.07466  0.49772  0.54682  1.0000
  H   H893      1.0  0.30196  0.95020  0.64937  1.0000
  C   C1138     1.0  0.01490  0.76457  0.49277  1.0000
  H   H894      1.0  0.26297  0.79420  0.52436  1.0000
  H   H895      1.0  0.16735  0.75455  0.49805  1.0000
  H   H896      1.0  0.00883  0.73398  0.51887  1.0000
  H   H897      1.0  0.99988  0.57794  0.70125  1.0000
  H   H898      1.0  0.00180  0.68982  0.57959  1.0000
  H   H899      1.0  0.10291  0.48961  0.63120  1.0000
  C   C1139     1.0  0.01442  0.49007  0.64107  1.0000
  H   H900      1.0  0.05223  0.55535  0.53635  1.0000
  H   H901      1.0  0.03931  0.49041  0.67548  1.0000
  C   C1140     1.0  0.04573  0.53357  0.61775  1.0000
  H   H902      1.0  0.09756  0.58794  0.71956  1.0000
  C   C1141     1.0  0.12070  0.57175  0.73512  1.0000
  P   P39       1.0  0.05722  0.49462  0.58080  1.0000
  C   C1142     1.0  0.05844  0.53924  0.53925  1.0000
  H   H903      1.0  0.02779  0.78962  0.50022  1.0000
  H   H904      1.0  0.00158  0.65899  0.56597  1.0000
  H   H905      1.0  0.00274  0.68017  0.52863  1.0000
  C   C1143     1.0  0.16455  0.48190  0.70443  1.0000
  H   H906      1.0  0.25359  0.85337  0.49331  1.0000
  C   C1144     1.0  0.19390  0.91137  0.49052  1.0000
  H   H907      1.0  0.08881  0.49991  0.52065  1.0000
  C   C1145     1.0  0.99482  0.79673  0.50046  1.0000
  H   H908      1.0  0.20699  0.98015  0.53486  1.0000
  P   P40       1.0  0.05357  0.53728  0.73431  1.0000
  C   C1146     1.0  0.29414  0.97513  0.59068  1.0000
  H   H909      1.0  0.23373  0.95054  0.49381  1.0000
  H   H910      1.0  0.99945  0.64168  0.54019  1.0000
  C   C1147     1.0  0.03068  0.48474  0.66697  1.0000
  H   H911      1.0  0.99026  0.55888  0.66943  1.0000
  C   C1148     1.0  0.99452  0.62864  0.54874  1.0000
  C   C1149     1.0  0.26476  0.93479  0.49007  1.0000
  C   C1150     1.0  0.16934  0.48807  0.68698  1.0000
  C   C1151     1.0  0.32258  0.83967  0.60399  1.0000
  H   H912      1.0  0.08532  0.65453  0.73300  1.0000
  C   C1152     1.0  0.19682  0.70983  0.48849  1.0000
  H   H913      1.0  0.99405  0.81152  0.50497  1.0000
  H   H914      1.0  0.01155  0.67036  0.72196  1.0000
  C   C1153     1.0  0.18123  0.72683  0.48755  1.0000
  C   C1154     1.0  0.99062  0.69803  0.71603  1.0000
  C   C1155     1.0  0.08218  0.48142  0.58609  1.0000
  H   H915      1.0  0.08119  0.48166  0.54961  1.0000
  C   C1156     1.0  0.04262  0.51366  0.73652  1.0000
  Fe  Fe73      1.0  0.10779  0.52455  0.80232  1.0000
  S   S143      1.0  0.10980  0.53790  0.82623  1.0000
  C   C1157     1.0  0.31712  0.69576  0.90953  1.0000
  Fe  Fe74      1.0  0.11263  0.56476  0.77936  1.0000
  S   S144      1.0  0.11570  0.58111  0.80144  1.0000
  S   S145      1.0  0.10868  0.58292  0.75340  1.0000
  Fe  Fe75      1.0  0.13645  0.55229  0.81085  1.0000
  S   S146      1.0  0.16940  0.54870  0.81838  1.0000
  Fe  Fe76      1.0  0.08889  0.56514  0.81483  1.0000
  S   S147      1.0  0.06170  0.58299  0.82968  1.0000
  S   S148      1.0  0.13547  0.53722  0.78731  1.0000
  S   S149      1.0  0.08478  0.55057  0.79231  1.0000
  Fe  Fe77      1.0  0.28025  0.58018  0.89544  1.0000
  S   S150      1.0  0.24760  0.58268  0.90942  1.0000
  H   H916      1.0  0.04545  0.50633  0.76345  1.0000
  Fe  Fe78      1.0  0.27958  0.53485  0.89129  1.0000
  S   S151      1.0  0.24760  0.53453  0.90521  1.0000
  S   S152      1.0  0.29689  0.50574  0.88086  1.0000
  Fe  Fe79      1.0  0.23948  0.56500  0.88971  1.0000
  S   S153      1.0  0.20667  0.57179  0.88177  1.0000
  Fe  Fe80      1.0  0.25814  0.55199  0.92363  1.0000
  S   S154      1.0  0.24933  0.54105  0.95157  1.0000
  S   S155      1.0  0.27116  0.56485  0.87446  1.0000
  S   S156      1.0  0.29108  0.55010  0.91097  1.0000
  C   C1158     1.0  0.25488  0.55466  0.96735  1.0000
  C   C1159     1.0  0.22410  0.48653  0.85370  1.0000
  H   H917      1.0  0.26798  0.64604  0.87400  1.0000
  C   C1160     1.0  0.25855  0.57511  0.96349  1.0000
  C   C1161     1.0  0.32129  0.63575  0.89954  1.0000
  H   H918      1.0  0.25763  0.58285  0.95067  1.0000
  C   C1162     1.0  0.09085  0.52512  0.74807  1.0000
  H   H919      1.0  0.02414  0.58832  0.78667  1.0000
  H   H920      1.0  0.27291  0.49790  0.85385  1.0000
  H   H921      1.0  0.18180  0.51740  0.77651  1.0000
  C   C1163     1.0  0.23896  0.49390  0.96991  1.0000
  C   C1164     1.0  0.17931  0.55387  0.83673  1.0000
  C   C1165     1.0  0.16641  0.55999  0.85117  1.0000
  C   C1166     1.0  0.17508  0.56494  0.86498  1.0000
  C   C1167     1.0  0.19674  0.56331  0.86478  1.0000
  C   C1168     1.0  0.20966  0.55634  0.85065  1.0000
  C   C1169     1.0  0.20096  0.55189  0.83666  1.0000
  H   H922      1.0  0.14975  0.56117  0.85162  1.0000
  H   H923      1.0  0.16493  0.57027  0.87585  1.0000
  H   H924      1.0  0.22634  0.55506  0.85024  1.0000
  H   H925      1.0  0.21109  0.54727  0.82555  1.0000
  C   C1170     1.0  0.03515  0.58281  0.82788  1.0000
  C   C1171     1.0  0.02798  0.56787  0.82025  1.0000
  C   C1172     1.0  0.00640  0.56856  0.81963  1.0000
  C   C1173     1.0  0.30514  0.73150  0.86449  1.0000
  C   C1174     1.0  0.99942  0.59902  0.83409  1.0000
  C   C1175     1.0  0.02070  0.59825  0.83482  1.0000
  H   H926      1.0  0.03902  0.55572  0.81505  1.0000
  H   H927      1.0  0.00083  0.55693  0.81402  1.0000
  H   H928      1.0  0.02600  0.60974  0.84085  1.0000
  C   C1176     1.0  0.11184  0.51696  0.74754  1.0000
  H   H929      1.0  0.31205  0.72256  0.83903  1.0000
  H   H930      1.0  0.14608  0.55355  0.74715  1.0000
  H   H931      1.0  0.26421  0.49330  0.90725  1.0000
  H   H932      1.0  0.01541  0.54011  0.75891  1.0000
  H   H933      1.0  0.17916  0.56855  0.77875  1.0000
  H   H934      1.0  0.07158  0.56814  0.74751  1.0000
  C   C1177     1.0  0.14951  0.67007  0.81571  1.0000
  H   H935      1.0  0.27822  0.70131  0.89178  1.0000
  H   H936      1.0  0.29187  0.50259  0.97346  1.0000
  H   H937      1.0  0.30653  0.64895  0.95009  1.0000
  H   H938      1.0  0.20427  0.50789  0.93001  1.0000
  H   H939      1.0  0.15893  0.62301  0.84715  1.0000
  H   H940      1.0  0.12951  0.49624  0.83632  1.0000
  C   C1178     1.0  0.02985  0.57824  0.77694  1.0000
  C   C1179     1.0  0.28391  0.76486  0.86656  1.0000
  H   H941      1.0  0.13994  0.49361  0.78304  1.0000
  H   H942      1.0  0.00296  0.56262  0.78143  1.0000
  C   C1180     1.0  0.04475  0.50029  0.79918  1.0000
  H   H943      1.0  0.17945  0.50633  0.80766  1.0000
  C   C1181     1.0  0.04476  0.55204  0.75189  1.0000
  C   C1182     1.0  0.23566  0.50670  0.82707  1.0000
  C   C1183     1.0  0.25523  0.54489  0.98416  1.0000
  S   S157      1.0  0.09985  0.49245  0.80436  1.0000
  C   C1184     1.0  0.01792  0.56373  0.77398  1.0000
  H   H944      1.0  0.31779  0.64561  0.98022  1.0000
  H   H945      1.0  0.02498  0.52926  0.80124  1.0000
  H   H946      1.0  0.17238  0.65273  0.77832  1.0000
  H   H947      1.0  0.14472  0.59306  0.83287  1.0000
  C   C1185     1.0  0.15046  0.69114  0.81108  1.0000
  H   H948      1.0  0.17868  0.58846  0.80251  1.0000
  H   H949      1.0  0.22385  0.60332  0.84943  1.0000
  C   C1186     1.0  0.22037  0.49661  0.83745  1.0000
  C   C1187     1.0  0.31742  0.61638  0.95448  1.0000
  H   H950      1.0  0.17519  0.54180  0.97071  1.0000
  H   H951      1.0  0.27593  0.77667  0.87421  1.0000
  C   C1188     1.0  0.18819  0.50183  0.78124  1.0000
  C   C1189     1.0  0.29458  0.74675  0.87438  1.0000
  H   H952      1.0  0.18835  0.61194  0.86388  1.0000
  C   C1190     1.0  0.28349  0.76776  0.84889  1.0000
  C   C1191     1.0  0.14340  0.49218  0.84265  1.0000
  H   H953      1.0  0.29320  0.75464  0.82535  1.0000
  H   H954      1.0  0.11396  0.65232  0.81303  1.0000
  H   H955      1.0  0.20100  0.61786  0.80065  1.0000
  C   C1192     1.0  0.24322  0.48694  0.85946  1.0000
  H   H956      1.0  0.15847  0.58289  0.75489  1.0000
  C   C1193     1.0  0.18689  0.49559  0.79880  1.0000
  C   C1194     1.0  0.00843  0.50346  0.81057  1.0000
  C   C1195     1.0  0.16801  0.50117  0.85927  1.0000
  C   C1196     1.0  0.30433  0.73435  0.84681  1.0000
  C   C1197     1.0  0.25459  0.50715  0.83296  1.0000
  H   H957      1.0  0.26625  0.51540  0.82510  1.0000
  C   C1198     1.0  0.20224  0.51467  0.90305  1.0000
  H   H958      1.0  0.20221  0.51696  0.87605  1.0000
  H   H959      1.0  0.08217  0.52803  0.76028  1.0000
  H   H960      1.0  0.29447  0.74473  0.88809  1.0000
  H   H961      1.0  0.13664  0.61686  0.75537  1.0000
  C   C1199     1.0  0.04126  0.50117  0.75231  1.0000
  H   H962      1.0  0.31016  0.68269  0.90759  1.0000
  H   H963      1.0  0.26600  0.60144  0.97321  1.0000
  C   C1200     1.0  0.15000  0.50646  0.85122  1.0000
  C   C1201     1.0  0.30439  0.63368  0.94800  1.0000
  C   C1202     1.0  0.30285  0.68846  0.87363  1.0000
  H   H964      1.0  0.20553  0.49724  0.83289  1.0000
  C   C1203     1.0  0.16678  0.68440  0.78287  1.0000
  H   H965      1.0  0.14318  0.66466  0.82859  1.0000
  H   H966      1.0  0.08086  0.64388  0.82935  1.0000
  C   C1204     1.0  0.29631  0.65777  0.86303  1.0000
  S   S158      1.0  0.29438  0.61040  0.89315  1.0000
  C   C1205     1.0  0.02520  0.55078  0.76138  1.0000
  H   H967      1.0  0.24358  0.49950  0.94243  1.0000
  C   C1206     1.0  0.15902  0.69832  0.79464  1.0000
  H   H968      1.0  0.27525  0.78182  0.84286  1.0000
  C   C1207     1.0  0.99208  0.58425  0.82654  1.0000
  H   H969      1.0  0.14135  0.52182  0.85138  1.0000
  C   C1208     1.0  0.30417  0.52530  0.98440  1.0000
  C   C1209     1.0  0.32088  0.69757  0.92603  1.0000
  H   H970      1.0  0.13602  0.63719  0.77916  1.0000
  C   C1210     1.0  0.05661  0.56669  0.75491  1.0000
  H   H971      1.0  0.11918  0.51413  0.75914  1.0000
  C   C1211     1.0  0.27087  0.67401  0.88380  1.0000
  H   H972      1.0  0.07959  0.61032  0.84750  1.0000
  C   C1212     1.0  0.28346  0.68918  0.88374  1.0000
  H   H973      1.0  0.05870  0.59067  0.76989  1.0000
  H   H974      1.0  0.29743  0.57936  0.93908  1.0000
  H   H975      1.0  0.15984  0.71464  0.79108  1.0000
  C   C1213     1.0  0.28630  0.61160  0.93564  1.0000
  C   C1214     1.0  0.29953  0.59431  0.94188  1.0000
  C   C1215     1.0  0.02592  0.51263  0.80340  1.0000
  C   C1216     1.0  0.29364  0.75247  0.83903  1.0000
  H   H976      1.0  0.14472  0.70188  0.82029  1.0000
  H   H977      1.0  0.17371  0.68993  0.77022  1.0000
  C   C1217     1.0  0.04922  0.57968  0.76743  1.0000
  C   C1218     1.0  0.09501  0.63314  0.83048  1.0000
  C   C1219     1.0  0.09426  0.61420  0.84073  1.0000
  H   H978      1.0  0.05841  0.50739  0.79380  1.0000
  C   C1220     1.0  0.30607  0.52396  0.95407  1.0000
  H   H979      1.0  0.30730  0.64570  0.90359  1.0000
  H   H980      1.0  0.11145  0.58488  0.84914  1.0000
  C   C1221     1.0  0.31501  0.59651  0.95161  1.0000
  H   H981      1.0  0.17292  0.51272  0.86545  1.0000
  H   H982      1.0  0.20172  0.53117  0.90284  1.0000
  H   H983      1.0  0.23256  0.51466  0.81464  1.0000
  H   H984      1.0  0.23022  0.60647  0.81777  1.0000
  C   C1222     1.0  0.20217  0.50654  0.88785  1.0000
  C   C1223     1.0  0.25836  0.49726  0.84914  1.0000
  H   H985      1.0  0.19823  0.49269  0.75620  1.0000
  H   H986      1.0  0.25618  0.67427  0.89196  1.0000
  C   C1224     1.0  0.28873  0.63127  0.93865  1.0000
  C   C1225     1.0  0.11382  0.63787  0.82133  1.0000
  H   H987      1.0  0.27867  0.64459  0.93345  1.0000
  C   C1226     1.0  0.17040  0.58391  0.77849  1.0000
  C   C1227     1.0  0.15865  0.59189  0.76515  1.0000
  C   C1228     1.0  0.14645  0.61119  0.76537  1.0000
  C   C1229     1.0  0.14618  0.62264  0.77883  1.0000
  C   C1230     1.0  0.15844  0.61499  0.79203  1.0000
  C   C1231     1.0  0.17018  0.59533  0.79195  1.0000
  P   P41       1.0  0.15624  0.62889  0.81020  1.0000
  C   C1232     1.0  0.17767  0.62064  0.82261  1.0000
  C   C1233     1.0  0.15682  0.65608  0.80383  1.0000
  C   C1234     1.0  0.16584  0.66332  0.78747  1.0000
  C   C1235     1.0  0.27739  0.65822  0.87356  1.0000
  C   C1236     1.0  0.17435  0.61946  0.84049  1.0000
  C   C1237     1.0  0.19102  0.61345  0.85005  1.0000
  C   C1238     1.0  0.21111  0.60864  0.84187  1.0000
  C   C1239     1.0  0.21463  0.61027  0.82407  1.0000
  C   C1240     1.0  0.19801  0.61651  0.81444  1.0000
  C   C1241     1.0  0.13205  0.62373  0.82260  1.0000
  C   C1242     1.0  0.13105  0.60456  0.83257  1.0000
  C   C1243     1.0  0.11225  0.59987  0.84171  1.0000
  C   C1244     1.0  0.30889  0.67299  0.86285  1.0000
  H   H988      1.0  0.02274  0.60786  0.73728  1.0000
  H   H989      1.0  0.30143  0.64527  0.85533  1.0000
  H   H990      1.0  0.27437  0.60973  0.92814  1.0000
  C   C1245     1.0  0.20367  0.50155  0.91834  1.0000
  H   H991      1.0  0.31667  0.68613  0.93656  1.0000
  H   H992      1.0  0.30247  0.51693  0.94360  1.0000
  C   C1246     1.0  0.30012  0.51585  0.97090  1.0000
  H   H993      1.0  0.31130  0.73081  0.98115  1.0000
  C   C1247     1.0  0.26311  0.58561  0.97628  1.0000
  H   H994      1.0  0.22837  0.50804  0.97121  1.0000
  C   C1248     1.0  0.31609  0.54150  0.95072  1.0000
  H   H995      1.0  0.99379  0.51291  0.81398  1.0000
  C   C1249     1.0  0.31369  0.54317  0.98108  1.0000
  C   C1250     1.0  0.19750  0.48793  0.76983  1.0000
  C   C1251     1.0  0.24753  0.48905  0.95367  1.0000
  C   C1252     1.0  0.20279  0.48521  0.88787  1.0000
  H   H996      1.0  0.32070  0.54751  0.93759  1.0000
  C   C1253     1.0  0.17756  0.54101  0.98397  1.0000
  H   H997      1.0  0.21026  0.54313  0.97810  1.0000
  C   C1254     1.0  0.31980  0.55140  0.96418  1.0000
  C   C1255     1.0  0.03518  0.48164  0.75367  1.0000
  C   C1256     1.0  0.31960  0.61670  0.89428  1.0000
  P   P42       1.0  0.31898  0.70799  0.87423  1.0000
  H   H998      1.0  0.32128  0.69374  0.97837  1.0000
  C   C1257     1.0  0.28718  0.48198  0.88753  1.0000
  H   H999      1.0  0.08642  0.48184  0.74741  1.0000
  C   C1258     1.0  0.00981  0.48198  0.81370  1.0000
  C   C1259     1.0  0.17960  0.48144  0.85887  1.0000
  Fe  Fe81      1.0  0.41155  0.22900  0.05747  1.0000
  S   S159      1.0  0.41993  0.20026  0.04427  1.0000
  S   S160      1.0  0.37745  0.24273  0.06247  1.0000
  Fe  Fe82      1.0  0.45695  0.23209  0.06004  1.0000
  S   S161      1.0  0.46835  0.20417  0.04697  1.0000
  S   S162      1.0  0.47949  0.25247  0.06495  1.0000
  Fe  Fe83      1.0  0.44495  0.21697  0.02898  1.0000
  S   S163      1.0  0.45685  0.22020  0.00095  1.0000
  Fe  Fe84      1.0  0.44253  0.18966  0.06365  1.0000
  S   S164      1.0  0.45498  0.15691  0.07466  1.0000
  S   S165      1.0  0.43520  0.24616  0.04085  1.0000
  S   S166      1.0  0.43244  0.21720  0.07813  1.0000
  Fe  Fe85      1.0  0.59754  0.22345  0.07319  1.0000
  S   S167      1.0  0.56745  0.21672  0.08918  1.0000
  H   H1000     1.0  0.46703  0.22106  0.18483  1.0000
  S   S168      1.0  0.62532  0.08364  0.16364  1.0000
  S   S169      1.0  0.60859  0.03842  0.16777  1.0000
  Fe  Fe86      1.0  0.60198  0.06952  0.15289  1.0000
  S   S170      1.0  0.56953  0.08607  0.15377  1.0000
  Fe  Fe87      1.0  0.43741  0.05817  0.13578  1.0000
  S   S171      1.0  0.46490  0.06980  0.14230  1.0000
  S   S172      1.0  0.41514  0.08373  0.12291  1.0000
  Fe  Fe88      1.0  0.45105  0.01377  0.15212  1.0000
  S   S173      1.0  0.47949  0.02325  0.15977  1.0000
  C   C1260     1.0  0.32541  0.40493  0.99699  1.0000
  Fe  Fe89      1.0  0.45904  0.05137  0.16780  1.0000
  S   S174      1.0  0.46499  0.06612  0.19016  1.0000
  Fe  Fe90      1.0  0.48284  0.04079  0.13368  1.0000
  S   S175      1.0  0.51451  0.03908  0.11859  1.0000
  S   S176      1.0  0.43008  0.04105  0.16223  1.0000
  S   S177      1.0  0.45586  0.02991  0.12517  1.0000
  H   H1001     1.0  0.52134  0.00179  0.14527  1.0000
  S   S178      1.0  0.34224  0.33612  0.03719  1.0000
  C   C1261     1.0  0.55667  0.17226  0.05987  1.0000
  H   H1002     1.0  0.34348  0.16285  0.16386  1.0000
  C   C1262     1.0  0.54917  0.09855  0.08321  1.0000
  Fe  Fe91      1.0  0.63695  0.24528  0.06405  1.0000
  C   C1263     1.0  0.36226  0.20486  0.99988  1.0000
  C   C1264     1.0  0.55459  0.07312  0.14361  1.0000
  C   C1265     1.0  0.56348  0.05547  0.13603  1.0000
  C   C1266     1.0  0.55125  0.04525  0.12795  1.0000
  C   C1267     1.0  0.53009  0.05251  0.12772  1.0000
  C   C1268     1.0  0.52135  0.07029  0.13513  1.0000
  C   C1269     1.0  0.53356  0.08056  0.14308  1.0000
  H   H1003     1.0  0.57972  0.04958  0.13646  1.0000
  H   H1004     1.0  0.55809  0.03149  0.12222  1.0000
  H   H1005     1.0  0.50526  0.07636  0.13452  1.0000
  H   H1006     1.0  0.52662  0.09414  0.14892  1.0000
  H   H1007     1.0  0.51246  0.99526  0.21208  1.0000
  C   C1270     1.0  0.45098  0.05907  0.20999  1.0000
  C   C1271     1.0  0.43351  0.04918  0.21112  1.0000
  H   H1008     1.0  0.55058  0.24055  0.02613  1.0000
  H   H1009     1.0  0.62943  0.15457  0.09545  1.0000
  H   H1010     1.0  0.42826  0.04599  0.19967  1.0000
  H   H1011     1.0  0.51839  0.12841  0.13506  1.0000
  H   H1012     1.0  0.47973  0.18000  0.00824  1.0000
  H   H1013     1.0  0.58554  0.16833  0.08345  1.0000
  C   C1272     1.0  0.50302  0.99377  0.22437  1.0000
  C   C1273     1.0  0.51518  0.11670  0.06620  1.0000
  C   C1274     1.0  0.36765  0.26843  0.05458  1.0000
  C   C1275     1.0  0.34631  0.27551  0.05793  1.0000
  C   C1276     1.0  0.33814  0.29608  0.05245  1.0000
  C   C1277     1.0  0.35132  0.30981  0.04370  1.0000
  C   C1278     1.0  0.37249  0.30250  0.03990  1.0000
  C   C1279     1.0  0.38068  0.28201  0.04536  1.0000
  H   H1014     1.0  0.33605  0.26509  0.06491  1.0000
  C   C1280     1.0  0.51424  0.13563  0.00924  1.0000
  H   H1015     1.0  0.38266  0.31283  0.03274  1.0000
  H   H1016     1.0  0.39709  0.27683  0.04254  1.0000
  C   C1281     1.0  0.50436  0.24144  0.07040  1.0000
  C   C1282     1.0  0.52109  0.25273  0.06563  1.0000
  C   C1283     1.0  0.54081  0.24477  0.07056  1.0000
  C   C1284     1.0  0.54373  0.22580  0.08085  1.0000
  C   C1285     1.0  0.52705  0.21440  0.08548  1.0000
  C   C1286     1.0  0.50753  0.22205  0.08001  1.0000
  H   H1017     1.0  0.51875  0.26776  0.05821  1.0000
  H   H1018     1.0  0.55353  0.25371  0.06702  1.0000
  H   H1019     1.0  0.52922  0.19969  0.09339  1.0000
  H   H1020     1.0  0.49467  0.21341  0.08376  1.0000
  C   C1287     1.0  0.44298  0.13681  0.08756  1.0000
  C   C1288     1.0  0.42175  0.13893  0.09353  1.0000
  C   C1289     1.0  0.41332  0.12257  0.10428  1.0000
  C   C1290     1.0  0.42603  0.10407  0.10927  1.0000
  C   C1291     1.0  0.44721  0.10200  0.10319  1.0000
  C   C1292     1.0  0.45557  0.11821  0.09236  1.0000
  H   H1021     1.0  0.41186  0.15314  0.08994  1.0000
  H   H1022     1.0  0.39690  0.12428  0.10883  1.0000
  H   H1023     1.0  0.45717  0.08780  0.10669  1.0000
  H   H1024     1.0  0.47199  0.11640  0.08790  1.0000
  H   H1025     1.0  0.57499  0.20795  0.15119  1.0000
  C   C1293     1.0  0.51966  0.23699  0.02218  1.0000
  C   C1294     1.0  0.36288  0.22450  0.99073  1.0000
  H   H1026     1.0  0.49147  0.05455  0.99464  1.0000
  C   C1295     1.0  0.57042  0.15407  0.05735  1.0000
  H   H1027     1.0  0.61180  0.12665  0.08635  1.0000
  C   C1296     1.0  0.50846  0.13545  0.11026  1.0000
  H   H1028     1.0  0.50217  0.08872  0.07590  1.0000
  C   C1297     1.0  0.57102  0.18901  0.03267  1.0000
  C   C1298     1.0  0.56414  0.12961  0.10963  1.0000
  C   C1299     1.0  0.56593  0.13578  0.12531  1.0000
  C   C1300     1.0  0.57461  0.15354  0.12587  1.0000
  C   C1301     1.0  0.58131  0.16533  0.11071  1.0000
  H   H1029     1.0  0.50185  0.12382  0.05978  1.0000
  H   H1030     1.0  0.53128  0.14289  0.05891  1.0000
  H   H1031     1.0  0.55791  0.11546  0.10969  1.0000
  H   H1032     1.0  0.56103  0.12645  0.13703  1.0000
  H   H1033     1.0  0.57630  0.15806  0.13804  1.0000
  H   H1034     1.0  0.58803  0.17917  0.11106  1.0000
  H   H1035     1.0  0.59573  0.17064  0.01855  1.0000
  H   H1036     1.0  0.46419  0.14194  0.03258  1.0000
  C   C1302     1.0  0.56893  0.08352  0.23154  1.0000
  C   C1303     1.0  0.45486  0.13797  0.21926  1.0000
  C   C1304     1.0  0.33014  0.34798  0.08766  1.0000
  C   C1305     1.0  0.35070  0.34057  0.09040  1.0000
  C   C1306     1.0  0.35750  0.31924  0.09293  1.0000
  C   C1307     1.0  0.34351  0.30549  0.09224  1.0000
  P   P43       1.0  0.38405  0.30980  0.09674  1.0000
  C   C1308     1.0  0.38560  0.28357  0.10724  1.0000
  C   C1309     1.0  0.40125  0.31083  0.07689  1.0000
  C   C1310     1.0  0.39694  0.32626  0.06330  1.0000
  C   C1311     1.0  0.41087  0.32767  0.04831  1.0000
  C   C1312     1.0  0.42903  0.31353  0.04667  1.0000
  C   C1313     1.0  0.43344  0.29815  0.06011  1.0000
  C   C1314     1.0  0.41974  0.29688  0.07521  1.0000
  C   C1315     1.0  0.38484  0.27926  0.12507  1.0000
  C   C1316     1.0  0.38575  0.25887  0.13299  1.0000
  C   C1317     1.0  0.38732  0.24270  0.12319  1.0000
  C   C1318     1.0  0.38798  0.24690  0.10547  1.0000
  C   C1319     1.0  0.38715  0.26722  0.09753  1.0000
  C   C1320     1.0  0.39193  0.32573  0.11053  1.0000
  C   C1321     1.0  0.41260  0.32951  0.10880  1.0000
  C   C1322     1.0  0.41863  0.34181  0.11955  1.0000
  C   C1323     1.0  0.40412  0.35034  0.13211  1.0000
  C   C1324     1.0  0.38356  0.34651  0.13401  1.0000
  C   C1325     1.0  0.37748  0.33420  0.12331  1.0000
  H   H1037     1.0  0.39890  0.32498  0.99912  1.0000
  H   H1038     1.0  0.43339  0.15601  0.98703  1.0000
  H   H1039     1.0  0.51663  0.12012  0.00582  1.0000
  H   H1040     1.0  0.36130  0.35151  0.09046  1.0000
  H   H1041     1.0  0.34840  0.28901  0.09350  1.0000
  H   H1042     1.0  0.38276  0.33710  0.06408  1.0000
  H   H1043     1.0  0.40729  0.33950  0.03784  1.0000
  H   H1044     1.0  0.57750  0.98669  0.20440  1.0000
  C   C1326     1.0  0.38758  0.27801  0.99370  1.0000
  H   H1045     1.0  0.42374  0.28504  0.08556  1.0000
  H   H1046     1.0  0.38352  0.29152  0.13293  1.0000
  H   H1047     1.0  0.38517  0.25563  0.14674  1.0000
  C   C1327     1.0  0.40112  0.30855  0.99839  1.0000
  H   H1048     1.0  0.38902  0.23444  0.09779  1.0000
  H   H1049     1.0  0.38761  0.27021  0.08379  1.0000
  H   H1050     1.0  0.42414  0.32301  0.09921  1.0000
  H   H1051     1.0  0.43460  0.34472  0.11810  1.0000
  H   H1052     1.0  0.40881  0.35991  0.14039  1.0000
  H   H1053     1.0  0.37232  0.35310  0.14378  1.0000
  H   H1054     1.0  0.36152  0.33126  0.12505  1.0000
  C   C1328     1.0  0.63068  0.08617  0.06431  1.0000
  C   C1329     1.0  0.52950  0.14194  0.01705  1.0000
  C   C1330     1.0  0.51731  0.08360  0.23123  1.0000
  H   H1055     1.0  0.53231  0.16806  0.17796  1.0000
  H   H1056     1.0  0.43107  0.16441  0.18595  1.0000
  H   H1057     1.0  0.59614  0.99621  0.14101  1.0000
  C   C1331     1.0  0.36595  0.20126  0.01696  1.0000
  C   C1332     1.0  0.38513  0.29941  0.99405  1.0000
  H   H1058     1.0  0.43222  0.30346  0.00537  1.0000
  C   C1333     1.0  0.43503  0.11619  0.20809  1.0000
  C   C1334     1.0  0.35018  0.17476  0.18590  1.0000
  H   H1059     1.0  0.61095  0.01401  0.20341  1.0000
  S   S179      1.0  0.62229  0.06108  0.12901  1.0000
  C   C1335     1.0  0.46343  0.18214  0.15382  1.0000
  H   H1060     1.0  0.49214  0.02648  0.22280  1.0000
  C   C1336     1.0  0.51100  0.14031  0.12623  1.0000
  C   C1337     1.0  0.50383  0.16022  0.13069  1.0000
  H   H1061     1.0  0.33556  0.18496  0.18723  1.0000
  H   H1062     1.0  0.37750  0.05484  0.18818  1.0000
  H   H1063     1.0  0.59581  0.11911  0.20667  1.0000
  C   C1338     1.0  0.37003  0.21735  0.02495  1.0000
  H   H1064     1.0  0.56970  0.01692  0.17289  1.0000
  C   C1339     1.0  0.45154  0.14843  0.00834  1.0000
  H   H1065     1.0  0.49045  0.23380  0.01442  1.0000
  C   C1340     1.0  0.41292  0.15497  0.02854  1.0000
  C   C1341     1.0  0.53724  0.02913  0.17553  1.0000
  C   C1342     1.0  0.38317  0.16036  0.19601  1.0000
  C   C1343     1.0  0.40664  0.26607  0.99686  1.0000
  C   C1344     1.0  0.56046  0.03110  0.19606  1.0000
  C   C1345     1.0  0.52543  0.13014  0.16938  1.0000
  C   C1346     1.0  0.57213  0.07860  0.20172  1.0000
  C   C1347     1.0  0.45033  0.14632  0.02625  1.0000
  C   C1348     1.0  0.47153  0.10070  0.00863  1.0000
  C   C1349     1.0  0.37063  0.23701  0.01585  1.0000
  H   H1066     1.0  0.43972  0.31444  0.03501  1.0000
  C   C1350     1.0  0.52808  0.17859  0.15148  1.0000
  H   H1067     1.0  0.48923  0.19089  0.12167  1.0000
  C   C1351     1.0  0.65355  0.37892  0.02874  1.0000
  C   C1352     1.0  0.50668  0.23511  0.01026  1.0000
  C   C1353     1.0  0.48784  0.13432  0.17299  1.0000
  H   H1068     1.0  0.49837  0.19817  0.17486  1.0000
  C   C1354     1.0  0.52091  0.03963  0.18552  1.0000
  H   H1069     1.0  0.47297  0.14277  0.17028  1.0000
  P   P44       1.0  0.54949  0.05171  0.22475  1.0000
  C   C1355     1.0  0.36736  0.24065  0.99860  1.0000
  C   C1356     1.0  0.58286  0.09560  0.19735  1.0000
  C   C1357     1.0  0.43314  0.15395  0.00071  1.0000
  H   H1070     1.0  0.62184  0.28328  0.01225  1.0000
  C   C1358     1.0  0.55699  0.02477  0.18084  1.0000
  H   H1071     1.0  0.32699  0.45442  0.00314  1.0000
  H   H1072     1.0  0.50567  0.04327  0.18123  1.0000
  C   C1359     1.0  0.36440  0.17372  0.19756  1.0000
  C   C1360     1.0  0.43565  0.15166  0.19541  1.0000
  H   H1073     1.0  0.43324  0.21946  0.17500  1.0000
  H   H1074     1.0  0.47095  0.07120  0.22397  1.0000
  H   H1075     1.0  0.45275  0.10624  0.22927  1.0000
  H   H1076     1.0  0.34897  0.29052  0.01471  1.0000
  H   H1077     1.0  0.37360  0.24933  0.02235  1.0000
  C   C1361     1.0  0.52584  0.11103  0.17954  1.0000
  H   H1078     1.0  0.53232  0.07261  0.09091  1.0000
  H   H1079     1.0  0.55743  0.21131  0.12526  1.0000
  P   P45       1.0  0.47628  0.14160  0.99579  1.0000
  C   C1362     1.0  0.45721  0.12447  0.14060  1.0000
  C   C1363     1.0  0.45100  0.14101  0.12860  1.0000
  C   C1364     1.0  0.43261  0.15423  0.13223  1.0000
  C   C1365     1.0  0.42052  0.15114  0.14805  1.0000
  C   C1366     1.0  0.42650  0.13433  0.16012  1.0000
  C   C1367     1.0  0.44490  0.12097  0.15625  1.0000
  P   P46       1.0  0.41152  0.12993  0.18077  1.0000
  C   C1368     1.0  0.40234  0.10526  0.18332  1.0000
  C   C1369     1.0  0.42835  0.13270  0.19606  1.0000
  H   H1080     1.0  0.45441  0.16895  0.20638  1.0000
  C   C1370     1.0  0.42301  0.04303  0.22718  1.0000
  H   H1081     1.0  0.39988  0.16176  0.00474  1.0000
  H   H1082     1.0  0.63800  0.38688  0.03169  1.0000
  C   C1371     1.0  0.48081  0.11400  0.99543  1.0000
  H   H1083     1.0  0.46132  0.10667  0.01922  1.0000
  H   H1084     1.0  0.40926  0.24961  0.99608  1.0000
  C   C1372     1.0  0.42498  0.20470  0.98996  1.0000
  C   C1373     1.0  0.39177  0.07795  0.17067  1.0000
  C   C1374     1.0  0.40107  0.09583  0.16891  1.0000
  C   C1375     1.0  0.38794  0.14811  0.18261  1.0000
  H   H1085     1.0  0.47137  0.11409  0.13760  1.0000
  H   H1086     1.0  0.46031  0.14344  0.11636  1.0000
  H   H1087     1.0  0.42775  0.16677  0.12266  1.0000
  H   H1088     1.0  0.40656  0.16181  0.15065  1.0000
  H   H1089     1.0  0.44967  0.10775  0.16529  1.0000
  H   H1090     1.0  0.43068  0.10107  0.20834  1.0000
  H   H1091     1.0  0.61104  0.99380  0.23201  1.0000
  H   H1092     1.0  0.63017  0.08141  0.20825  1.0000
  C   C1376     1.0  0.39387  0.09668  0.19946  1.0000
  C   C1377     1.0  0.38525  0.07836  0.20125  1.0000
  H   H1093     1.0  0.39379  0.10414  0.21068  1.0000
  H   H1094     1.0  0.36072  0.18303  0.20800  1.0000
  C   C1378     1.0  0.49153  0.01155  0.23034  1.0000
  H   H1095     1.0  0.39073  0.07092  0.15941  1.0000
  H   H1096     1.0  0.40686  0.10235  0.15619  1.0000
  H   H1097     1.0  0.37643  0.13910  0.16107  1.0000
  H   H1098     1.0  0.57180  0.20266  0.02341  1.0000
  H   H1099     1.0  0.37263  0.21468  0.03826  1.0000
  C   C1379     1.0  0.44027  0.99489  0.22211  1.0000
  C   C1380     1.0  0.61336  0.08531  0.05624  1.0000
  C   C1381     1.0  0.49194  0.17032  0.10279  1.0000
  C   C1382     1.0  0.44886  0.15428  0.20695  1.0000
  H   H1100     1.0  0.58794  0.10045  0.18406  1.0000
  P   P47       1.0  0.50553  0.16597  0.15189  1.0000
  C   C1383     1.0  0.54847  0.23880  0.99965  1.0000
  C   C1384     1.0  0.48272  0.18325  0.15898  1.0000
  H   H1101     1.0  0.35903  0.19241  0.99367  1.0000
  H   H1102     1.0  0.43096  0.19444  0.15518  1.0000
  H   H1103     1.0  0.54340  0.13137  0.01961  1.0000
  C   C1385     1.0  0.41395  0.15727  0.01078  1.0000
  C   C1386     1.0  0.54054  0.23887  0.01688  1.0000
  H   H1104     1.0  0.51141  0.05432  0.20808  1.0000
  C   C1387     1.0  0.54421  0.04194  0.20603  1.0000
  C   C1388     1.0  0.58703  0.10628  0.21006  1.0000
  H   H1105     1.0  0.44979  0.00712  0.22056  1.0000
  C   C1389     1.0  0.50731  0.10343  0.18615  1.0000
  C   C1390     1.0  0.44569  0.19522  0.15948  1.0000
  H   H1106     1.0  0.53468  0.02477  0.16350  1.0000
  C   C1391     1.0  0.50638  0.14208  0.16618  1.0000
  H   H1107     1.0  0.62077  0.99624  0.17733  1.0000
  H   H1108     1.0  0.61390  0.07362  0.04794  1.0000
  H   H1109     1.0  0.64520  0.36376  0.00923  1.0000
  H   H1110     1.0  0.51363  0.11994  0.10706  1.0000
  C   C1392     1.0  0.64051  0.30172  0.02212  1.0000
  Fe  Fe92      1.0  0.61802  0.22920  0.03658  1.0000
  C   C1393     1.0  0.53523  0.19109  0.13673  1.0000
  H   H1111     1.0  0.49327  0.10876  0.23673  1.0000
  H   H1112     1.0  0.49623  0.14662  0.08643  1.0000
  C   C1394     1.0  0.47538  0.07935  0.00832  1.0000
  C   C1395     1.0  0.54908  0.11854  0.07432  1.0000
  C   C1396     1.0  0.58431  0.15351  0.04223  1.0000
  H   H1113     1.0  0.58202  0.09853  0.05269  1.0000
  H   H1114     1.0  0.63462  0.29732  0.03536  1.0000
  C   C1397     1.0  0.52687  0.16191  0.02153  1.0000
  H   H1115     1.0  0.54056  0.10168  0.18165  1.0000
  H   H1116     1.0  0.57596  0.02819  0.19977  1.0000
  C   C1398     1.0  0.48836  0.11506  0.18288  1.0000
  C   C1399     1.0  0.44797  0.11895  0.21981  1.0000
  Fe  Fe93      1.0  0.63901  0.19857  0.06357  1.0000
  H   H1117     1.0  0.50758  0.08830  0.19341  1.0000
  H   H1118     1.0  0.53039  0.99224  0.11613  1.0000
  H   H1119     1.0  0.63304  0.12461  0.11856  1.0000
  H   H1120     1.0  0.41750  0.20386  0.00298  1.0000
  C   C1400     1.0  0.32294  0.31298  0.08954  1.0000
  H   H1121     1.0  0.51343  0.23713  0.03549  1.0000
  H   H1122     1.0  0.54683  0.20382  0.04990  1.0000
  C   C1401     1.0  0.53194  0.12752  0.06579  1.0000
  C   C1402     1.0  0.57961  0.15921  0.09499  1.0000
  H   H1123     1.0  0.59537  0.13991  0.04004  1.0000
  C   C1403     1.0  0.37336  0.14894  0.17116  1.0000
  C   C1404     1.0  0.44697  0.20926  0.17064  1.0000
  C   C1405     1.0  0.57094  0.14129  0.09429  1.0000
  S   S180      1.0  0.60503  0.25146  0.05537  1.0000
  Fe  Fe94      1.0  0.63131  0.03072  0.14512  1.0000
  H   H1124     1.0  0.63490  0.20005  0.00991  1.0000
  C   C1406     1.0  0.58456  0.17092  0.02995  1.0000
  H   H1125     1.0  0.46813  0.06919  0.01854  1.0000
  C   C1407     1.0  0.51530  0.09697  0.07529  1.0000
  C   C1408     1.0  0.63569  0.05060  0.22126  1.0000
  Fe  Fe95      1.0  0.63403  0.05156  0.17646  1.0000
  P   P48       1.0  0.57094  0.13224  0.07395  1.0000
  S   S181      1.0  0.60851  0.23972  0.01021  1.0000
  C   C1409     1.0  0.63000  0.10118  0.07508  1.0000
  C   C1410     1.0  0.53229  0.08791  0.08378  1.0000
  C   C1411     1.0  0.55703  0.18966  0.04760  1.0000
  H   H1126     1.0  0.54607  0.17320  0.07155  1.0000
  S   S182      1.0  0.62804  0.21909  0.08410  1.0000
  Fe  Fe96      1.0  0.64609  0.07367  0.14056  1.0000
  H   H1127     1.0  0.48407  0.18165  0.09377  1.0000
  C   C1412     1.0  0.33115  0.42143  0.00346  1.0000
  S   S183      1.0  0.60833  0.20163  0.05373  1.0000
  C   C1413     1.0  0.49885  0.15043  0.09860  1.0000
  C   C1414     1.0  0.59444  0.11440  0.06998  1.0000
  H   H1128     1.0  0.56226  0.09114  0.08980  1.0000
  C   C1415     1.0  0.61198  0.11525  0.07790  1.0000
  C   C1416     1.0  0.53787  0.17709  0.16626  1.0000
  H   H1129     1.0  0.34179  0.41854  0.01301  1.0000
  C   C1417     1.0  0.33713  0.28998  0.00673  1.0000
  H   H1130     1.0  0.46214  0.17117  0.14538  1.0000
  S   S184      1.0  0.64078  0.99788  0.13832  1.0000
  C   C1418     1.0  0.56190  0.19981  0.15134  1.0000
  C   C1419     1.0  0.59531  0.09941  0.05901  1.0000
  H   H1131     1.0  0.43729  0.26585  0.00346  1.0000
  C   C1420     1.0  0.45745  0.06350  0.22488  1.0000
  C   C1421     1.0  0.49360  0.16927  0.01062  1.0000
  H   H1132     1.0  0.64344  0.10186  0.08134  1.0000
  C   C1422     1.0  0.63135  0.20563  0.99706  1.0000
  C   C1423     1.0  0.64167  0.29865  0.99213  1.0000
  H   H1133     1.0  0.56914  0.07071  0.19156  1.0000
  H   H1134     1.0  0.47410  0.10879  0.18767  1.0000
  C   C1424     1.0  0.61539  0.99748  0.20456  1.0000
  H   H1135     1.0  0.54047  0.00994  0.23598  1.0000
  C   C1425     1.0  0.41984  0.29645  0.00195  1.0000
  C   C1426     1.0  0.63333  0.29379  0.00911  1.0000
  H   H1136     1.0  0.40986  0.03481  0.22804  1.0000
  C   C1427     1.0  0.38420  0.06900  0.18685  1.0000
  H   H1137     1.0  0.54002  0.13517  0.16365  1.0000
  C   C1428     1.0  0.49463  0.17533  0.11869  1.0000
  C   C1429     1.0  0.56515  0.07235  0.21888  1.0000
  C   C1430     1.0  0.52432  0.04599  0.20073  1.0000
  C   C1431     1.0  0.42266  0.27527  0.00099  1.0000
  H   H1138     1.0  0.50687  0.19104  0.02181  1.0000
  H   H1139     1.0  0.52796  0.19282  0.12518  1.0000
  H   H1140     1.0  0.62709  0.09808  0.23480  1.0000
  C   C1432     1.0  0.62082  0.98754  0.18992  1.0000
  C   C1433     1.0  0.43111  0.14945  0.03626  1.0000
  C   C1434     1.0  0.50894  0.17556  0.01831  1.0000
  S   S185      1.0  0.65018  0.22423  0.04430  1.0000
  H   H1141     1.0  0.43033  0.14769  0.05005  1.0000
  C   C1435     1.0  0.49618  0.14930  0.00594  1.0000
  H   H1142     1.0  0.53870  0.16681  0.02750  1.0000
  C   C1436     1.0  0.58007  0.10022  0.22715  1.0000
  C   C1437     1.0  0.61890  0.22461  0.99379  1.0000
  C   C1438     1.0  0.52018  0.98631  0.14297  1.0000
  C   C1439     1.0  0.48854  0.07110  0.99486  1.0000
  H   H1143     1.0  0.65176  0.18388  0.10570  1.0000
  H   H1144     1.0  0.64463  0.07518  0.06230  1.0000
  H   H1145     1.0  0.38796  0.22691  0.12927  1.0000
  C   C1440     1.0  0.55202  0.20168  0.13671  1.0000
  C   C1441     1.0  0.62982  0.08146  0.23545  1.0000
  H   H1146     1.0  0.56242  0.18618  0.17750  1.0000
  H   H1147     1.0  0.56470  0.24042  0.99583  1.0000
  H   H1148     1.0  0.39809  0.15759  0.03636  1.0000
  H   H1149     1.0  0.44756  0.28719  0.05887  1.0000
  H   H1150     1.0  0.36550  0.18606  0.02405  1.0000
  S   S186      1.0  0.64131  0.03795  0.20287  1.0000
  C   C1442     1.0  0.48381  0.19718  0.17042  1.0000
  H   H1151     1.0  0.44420  0.99205  0.19526  1.0000
  C   C1443     1.0  0.46601  0.21017  0.17617  1.0000
  C   C1444     1.0  0.55483  0.18752  0.16612  1.0000
  H   H1152     1.0  0.39359  0.15936  0.20552  1.0000
  H   H1153     1.0  0.32501  0.36445  0.08559  1.0000
  C   C1445     1.0  0.63140  0.07207  0.22046  1.0000
  H   H1154     1.0  0.37932  0.07148  0.21380  1.0000
  H   H1155     1.0  0.46494  0.14002  0.22832  1.0000
  C   C1446     1.0  0.34178  0.27940  0.99232  1.0000
  C   C1447     1.0  0.35464  0.16233  0.17274  1.0000
  C   C1448     1.0  0.51451  0.23505  0.99302  1.0000
  H   H1156     1.0  0.52534  0.09290  0.22086  1.0000
  C   C1449     1.0  0.52532  0.06286  0.23593  1.0000
  S   S187      1.0  0.65049  0.27411  0.06796  1.0000
  C   C1450     1.0  0.64590  0.12717  0.10878  1.0000
  H   H1157     1.0  0.65054  0.24438  0.00983  1.0000
  H   H1158     1.0  0.37089  0.30908  0.99103  1.0000
  C   C1451     1.0  0.61535  0.98605  0.22071  1.0000
  C   C1452     1.0  0.65561  0.31493  0.01813  1.0000
  C   C1453     1.0  0.64388  0.14417  0.09575  1.0000
  C   C1454     1.0  0.43724  0.98629  0.20786  1.0000
  H   H1159     1.0  0.33187  0.38926  0.00136  1.0000
  P   P49       1.0  0.36767  0.26616  0.98705  1.0000
  C   C1455     1.0  0.32283  0.44165  0.99788  1.0000
  C   C1456     1.0  0.53549  0.23699  0.98752  1.0000
  Fe  Fe97      1.0  0.63261  0.05889  0.29420  1.0000
  S   S188      1.0  0.61912  0.06816  0.32011  1.0000
  C   C1457     1.0  0.41138  0.01285  0.36721  1.0000
  H   H1160     1.0  0.56068  0.99402  0.34125  1.0000
  S   S189      1.0  0.63185  0.02003  0.33464  1.0000
  C   C1458     1.0  0.34183  0.09955  0.43824  1.0000
  Fe  Fe98      1.0  0.60468  0.03906  0.32312  1.0000
  S   S190      1.0  0.57234  0.03483  0.33635  1.0000
  C   C1459     1.0  0.38579  0.00152  0.26514  1.0000
  S   S191      1.0  0.61660  0.03078  0.29688  1.0000
  Fe  Fe99      1.0  0.46210  0.04936  0.30630  1.0000
  S   S192      1.0  0.46320  0.02167  0.29279  1.0000
  S   S193      1.0  0.49068  0.06550  0.30019  1.0000
  Fe  Fe100     1.0  0.41688  0.04709  0.32255  1.0000
  S   S194      1.0  0.41529  0.01932  0.31007  1.0000
  S   S195      1.0  0.38907  0.06116  0.33982  1.0000
  Fe  Fe101     1.0  0.44708  0.00820  0.31761  1.0000
  C   C1460     1.0  0.57783  0.99873  0.26259  1.0000
  Fe  Fe102     1.0  0.43143  0.03592  0.28662  1.0000
  S   S196      1.0  0.41872  0.03543  0.26187  1.0000
  S   S197      1.0  0.44807  0.03492  0.33165  1.0000
  S   S198      1.0  0.43106  0.06464  0.29846  1.0000
  C   C1461     1.0  0.36620  0.04927  0.34491  1.0000
  C   C1462     1.0  0.36572  0.02949  0.34089  1.0000
  C   C1463     1.0  0.34865  0.05917  0.35434  1.0000
  H   H1161     1.0  0.37911  0.02153  0.33388  1.0000
  H   H1162     1.0  0.34872  0.07460  0.35728  1.0000
  C   C1464     1.0  0.39665  0.06406  0.38797  1.0000
  H   H1163     1.0  0.58344  0.98679  0.27235  1.0000
  H   H1164     1.0  0.45208  0.06046  0.25247  1.0000
  C   C1465     1.0  0.41045  0.06377  0.39981  1.0000
  C   C1466     1.0  0.55002  0.04264  0.32566  1.0000
  C   C1467     1.0  0.53067  0.03813  0.33406  1.0000
  C   C1468     1.0  0.51248  0.04447  0.32615  1.0000
  C   C1469     1.0  0.51344  0.05572  0.30987  1.0000
  C   C1470     1.0  0.53281  0.06011  0.30141  1.0000
  C   C1471     1.0  0.55107  0.05343  0.30919  1.0000
  H   H1165     1.0  0.52976  0.02989  0.34681  1.0000
  H   H1166     1.0  0.49763  0.04124  0.33282  1.0000
  H   H1167     1.0  0.53367  0.06891  0.28885  1.0000
  H   H1168     1.0  0.56588  0.05705  0.30263  1.0000
  C   C1472     1.0  0.32477  0.08472  0.40103  1.0000
  H   H1169     1.0  0.58643  0.04641  0.24378  1.0000
  C   C1473     1.0  0.49904  0.09266  0.24011  1.0000
  H   H1170     1.0  0.48771  0.05130  0.26846  1.0000
  C   C1474     1.0  0.40288  0.06512  0.41696  1.0000
  H   H1171     1.0  0.33452  0.03940  0.44790  1.0000
  C   C1475     1.0  0.38145  0.99726  0.38101  1.0000
  C   C1476     1.0  0.49166  0.00683  0.35980  1.0000
  H   H1172     1.0  0.59826  0.99425  0.33537  1.0000
  H   H1173     1.0  0.59966  0.01886  0.26509  1.0000
  H   H1174     1.0  0.43296  0.99515  0.24918  1.0000
  H   H1175     1.0  0.32799  0.12054  0.36572  1.0000
  C   C1477     1.0  0.33464  0.04366  0.42039  1.0000
  H   H1176     1.0  0.47703  0.01638  0.35775  1.0000
  C   C1478     1.0  0.32881  0.01354  0.40851  1.0000
  H   H1177     1.0  0.43934  0.99185  0.36164  1.0000
  C   C1479     1.0  0.37618  0.99294  0.30052  1.0000
  C   C1480     1.0  0.63591  0.04791  0.25197  1.0000
  C   C1481     1.0  0.33162  0.08340  0.43561  1.0000
  H   H1178     1.0  0.49446  0.99439  0.33609  1.0000
  H   H1179     1.0  0.34339  0.12237  0.45459  1.0000
  H   H1180     1.0  0.41363  0.06455  0.42619  1.0000
  C   C1482     1.0  0.44686  0.05744  0.24095  1.0000
  H   H1181     1.0  0.38944  0.00523  0.25148  1.0000
  H   H1182     1.0  0.33498  0.04197  0.39352  1.0000
  C   C1483     1.0  0.36915  0.01230  0.29218  1.0000
  C   C1484     1.0  0.50065  0.00721  0.37457  1.0000
  C   C1485     1.0  0.43012  0.04648  0.24212  1.0000
  H   H1183     1.0  0.32685  0.00637  0.39755  1.0000
  C   C1486     1.0  0.37381  0.01652  0.27449  1.0000
  C   C1487     1.0  0.33526  0.11013  0.45247  1.0000
  C   C1488     1.0  0.51951  0.99480  0.37720  1.0000
  C   C1489     1.0  0.51431  0.05120  0.24929  1.0000
  H   H1184     1.0  0.36510  0.99909  0.38582  1.0000
  C   C1490     1.0  0.50171  0.99444  0.34745  1.0000
  C   C1491     1.0  0.33325  0.09907  0.38826  1.0000
  C   C1492     1.0  0.49592  0.06025  0.25795  1.0000
  C   C1493     1.0  0.39340  0.98226  0.27351  1.0000
  C   C1494     1.0  0.47889  0.01007  0.24597  1.0000
  H   H1185     1.0  0.52169  0.01925  0.28583  1.0000
  H   H1186     1.0  0.34815  0.00417  0.34355  1.0000
  C   C1495     1.0  0.33317  0.03382  0.40627  1.0000
  H   H1187     1.0  0.34908  0.10194  0.38779  1.0000
  H   H1188     1.0  0.38129  0.02983  0.37381  1.0000
  H   H1189     1.0  0.51254  0.99549  0.26767  1.0000
  H   H1190     1.0  0.36875  0.03169  0.26806  1.0000
  H   H1191     1.0  0.35482  0.10406  0.42929  1.0000
  H   H1192     1.0  0.37593  0.06771  0.43563  1.0000
  H   H1193     1.0  0.47453  0.08804  0.26083  1.0000
  H   H1194     1.0  0.49306  0.01719  0.38392  1.0000
  C   C1496     1.0  0.57904  0.03264  0.24655  1.0000
  P   P50       1.0  0.33989  0.07002  0.41705  1.0000
  H   H1195     1.0  0.62995  0.00883  0.38511  1.0000
  C   C1497     1.0  0.33091  0.02914  0.35647  1.0000
  H   H1196     1.0  0.36033  0.02412  0.29945  1.0000
  C   C1498     1.0  0.56188  0.03053  0.23856  1.0000
  H   H1197     1.0  0.36495  0.06559  0.38392  1.0000
  C   C1499     1.0  0.36747  0.06835  0.41026  1.0000
  Fe  Fe103     1.0  0.64764  0.04840  0.32966  1.0000
  H   H1198     1.0  0.63525  0.99462  0.27839  1.0000
  C   C1500     1.0  0.48844  0.08102  0.25359  1.0000
  H   H1199     1.0  0.53094  0.00607  0.31455  1.0000
  C   C1501     1.0  0.56154  0.99604  0.25404  1.0000
  C   C1502     1.0  0.51599  0.98970  0.28047  1.0000
  C   C1503     1.0  0.39054  0.01476  0.37413  1.0000
  C   C1504     1.0  0.32815  0.01230  0.43903  1.0000
  C   C1505     1.0  0.37530  0.06595  0.39323  1.0000
  H   H1200     1.0  0.37256  0.98972  0.31422  1.0000
  C   C1506     1.0  0.34817  0.01955  0.34659  1.0000
  H   H1201     1.0  0.56335  0.07927  0.24485  1.0000
  C   C1507     1.0  0.38148  0.06716  0.42223  1.0000
  C   C1508     1.0  0.58681  0.01687  0.25863  1.0000
  C   C1509     1.0  0.52091  0.98231  0.34982  1.0000
  H   H1202     1.0  0.63819  0.03845  0.26394  1.0000
  C   C1510     1.0  0.32605  0.00287  0.42491  1.0000
  C   C1511     1.0  0.33278  0.03251  0.43679  1.0000
  S   S199      1.0  0.63156  0.08114  0.26977  1.0000
  H   H1203     1.0  0.41809  0.02651  0.36144  1.0000
  H   H1204     1.0  0.40246  0.06279  0.37466  1.0000
  H   H1205     1.0  0.42701  0.06232  0.39568  1.0000
  C   C1512     1.0  0.33105  0.04917  0.36010  1.0000
  H   H1206     1.0  0.58350  0.10831  0.23707  1.0000
  C   C1513     1.0  0.42328  0.99337  0.36743  1.0000
  H   H1207     1.0  0.32555  0.00412  0.45177  1.0000
  C   C1514     1.0  0.52128  0.00309  0.29062  1.0000
  C   C1515     1.0  0.52626  0.99566  0.30702  1.0000
  H   H1208     1.0  0.52653  0.99512  0.38862  1.0000
  C   C1516     1.0  0.64343  0.00005  0.39047  1.0000
  H   H1209     1.0  0.51986  0.03530  0.25337  1.0000
  C   C1517     1.0  0.63233  0.06936  0.25122  1.0000
  H   H1210     1.0  0.46669  0.98989  0.26717  1.0000
  C   C1518     1.0  0.47693  0.99084  0.25528  1.0000
  Fe  Fe104     1.0  0.64525  0.01468  0.30804  1.0000
  H   H1211     1.0  0.41341  0.98298  0.33398  1.0000
  C   C1519     1.0  0.55361  0.01186  0.24206  1.0000
  H   H1212     1.0  0.63997  0.02202  0.23792  1.0000
  H   H1213     1.0  0.47034  0.02372  0.25088  1.0000
  H   H1214     1.0  0.37728  0.98897  0.41448  1.0000
  H   H1215     1.0  0.37100  0.98893  0.44546  1.0000
  C   C1520     1.0  0.52946  0.98216  0.36499  1.0000
  C   C1521     1.0  0.59156  0.98184  0.33176  1.0000
  C   C1522     1.0  0.57018  0.98148  0.33530  1.0000
  H   H1216     1.0  0.55479  0.98186  0.25708  1.0000
  C   C1523     1.0  0.43080  0.98799  0.23830  1.0000
  C   C1524     1.0  0.63730  0.03860  0.23711  1.0000
  Fe  Fe105     1.0  0.42142  0.01536  0.66915  1.0000
  S   S200      1.0  0.42346  0.01887  0.64061  1.0000
  H   H1217     1.0  0.34858  0.02414  0.67700  1.0000
  Fe  Fe106     1.0  0.41517  0.06167  0.67030  1.0000
  S   S201      1.0  0.41659  0.06867  0.64166  1.0000
  S   S202      1.0  0.40954  0.08953  0.68459  1.0000
  Fe  Fe107     1.0  0.39609  0.04388  0.64349  1.0000
  S   S203      1.0  0.36392  0.04527  0.63492  1.0000
  Fe  Fe108     1.0  0.44372  0.04304  0.64153  1.0000
  S   S204      1.0  0.47535  0.04017  0.62571  1.0000
  S   S205      1.0  0.39301  0.03877  0.67228  1.0000
  S   S206      1.0  0.44347  0.03772  0.66994  1.0000
  Fe  Fe109     1.0  0.62520  0.07585  0.62764  1.0000
  S   S207      1.0  0.63449  0.04333  0.63894  1.0000
  Fe  Fe110     1.0  0.57869  0.07309  0.63732  1.0000
  S   S208      1.0  0.58463  0.04033  0.64920  1.0000
  S   S209      1.0  0.54578  0.08980  0.63843  1.0000
  Fe  Fe111     1.0  0.60983  0.05039  0.66077  1.0000
  S   S210      1.0  0.61422  0.03581  0.68770  1.0000
  Fe  Fe112     1.0  0.60850  0.03614  0.62654  1.0000
  S   S211      1.0  0.61135  0.00814  0.61301  1.0000
  S   S212      1.0  0.60234  0.08380  0.65055  1.0000
  S   S213      1.0  0.60067  0.06820  0.61348  1.0000
  C   C1525     1.0  0.61372  0.05191  0.70352  1.0000
  C   C1526     1.0  0.62040  0.04318  0.71924  1.0000
  C   C1527     1.0  0.51015  0.99426  0.69973  1.0000
  C   C1528     1.0  0.61843  0.98554  0.57413  1.0000
  C   C1529     1.0  0.60527  0.08518  0.71414  1.0000
  C   C1530     1.0  0.60624  0.07297  0.70095  1.0000
  H   H1218     1.0  0.62639  0.02693  0.72117  1.0000
  C   C1531     1.0  0.33822  0.04530  0.58399  1.0000
  H   H1219     1.0  0.60096  0.07979  0.68890  1.0000
  H   H1220     1.0  0.55980  0.13089  0.71130  1.0000
  H   H1221     1.0  0.51173  0.03349  0.58318  1.0000
  H   H1222     1.0  0.62420  0.00195  0.64652  1.0000
  C   C1532     1.0  0.35459  0.04559  0.61500  1.0000
  C   C1533     1.0  0.35944  0.04627  0.58411  1.0000
  C   C1534     1.0  0.36755  0.04666  0.59949  1.0000
  H   H1223     1.0  0.36969  0.04669  0.57222  1.0000
  H   H1224     1.0  0.38389  0.04744  0.59937  1.0000
  C   C1535     1.0  0.40879  0.08947  0.70683  1.0000
  C   C1536     1.0  0.49811  0.11004  0.72980  1.0000
  P   P51       1.0  0.52455  0.10656  0.71953  1.0000
  H   H1225     1.0  0.36117  0.98294  0.57732  1.0000
  H   H1226     1.0  0.40201  0.98759  0.65604  1.0000
  H   H1227     1.0  0.41953  0.05729  0.71280  1.0000
  H   H1228     1.0  0.38093  0.12395  0.63616  1.0000
  C   C1537     1.0  0.32904  0.11738  0.62071  1.0000
  C   C1538     1.0  0.49454  0.05370  0.63048  1.0000
  C   C1539     1.0  0.51551  0.04503  0.62806  1.0000
  C   C1540     1.0  0.53126  0.05584  0.63070  1.0000
  C   C1541     1.0  0.52620  0.07561  0.63564  1.0000
  C   C1542     1.0  0.50522  0.08431  0.63820  1.0000
  C   C1543     1.0  0.48941  0.07333  0.63575  1.0000
  H   H1229     1.0  0.51968  0.02995  0.62406  1.0000
  H   H1230     1.0  0.54736  0.04905  0.62853  1.0000
  H   H1231     1.0  0.50121  0.09963  0.64200  1.0000
  H   H1232     1.0  0.47331  0.08025  0.63755  1.0000
  C   C1544     1.0  0.61185  0.07641  0.72991  1.0000
  C   C1545     1.0  0.52322  0.00584  0.59884  1.0000
  H   H1233     1.0  0.45373  0.08992  0.71509  1.0000
  C   C1546     1.0  0.43721  0.01752  0.72287  1.0000
  C   C1547     1.0  0.36393  0.98548  0.58985  1.0000
  H   H1234     1.0  0.39732  0.00622  0.60900  1.0000
  H   H1235     1.0  0.55903  0.10600  0.69214  1.0000
  C   C1548     1.0  0.54025  0.99484  0.60660  1.0000
  C   C1549     1.0  0.47168  0.08102  0.69197  1.0000
  C   C1550     1.0  0.47498  0.98819  0.69884  1.0000
  C   C1551     1.0  0.34375  0.10017  0.62474  1.0000
  C   C1552     1.0  0.55647  0.12747  0.72498  1.0000
  C   C1553     1.0  0.54425  0.03205  0.58535  1.0000
  C   C1554     1.0  0.33331  0.04495  0.61484  1.0000
  C   C1555     1.0  0.46344  0.07748  0.70907  1.0000
  H   H1236     1.0  0.57173  0.00143  0.66118  1.0000
  H   H1237     1.0  0.50397  0.00068  0.63531  1.0000
  C   C1556     1.0  0.53858  0.05012  0.70266  1.0000
  H   H1238     1.0  0.40396  0.02156  0.72397  1.0000
  H   H1239     1.0  0.49632  0.14183  0.66675  1.0000
  C   C1557     1.0  0.33350  0.13716  0.62189  1.0000
  S   S214      1.0  0.64878  0.09614  0.61371  1.0000
  H   H1240     1.0  0.59935  0.10143  0.71214  1.0000
  H   H1241     1.0  0.39145  0.99950  0.58039  1.0000
  H   H1242     1.0  0.49520  0.14337  0.72609  1.0000
  C   C1558     1.0  0.56148  0.02071  0.59242  1.0000
  H   H1243     1.0  0.56120  0.11804  0.66132  1.0000
  C   C1559     1.0  0.40250  0.10825  0.71342  1.0000
  C   C1560     1.0  0.55196  0.07031  0.72665  1.0000
  C   C1561     1.0  0.48895  0.99745  0.70593  1.0000
  C   C1562     1.0  0.62157  0.98729  0.64350  1.0000
  H   H1244     1.0  0.49357  0.12985  0.69747  1.0000
  C   C1563     1.0  0.55581  0.04104  0.71086  1.0000
  H   H1245     1.0  0.61156  0.00140  0.57522  1.0000
  C   C1564     1.0  0.49816  0.98623  0.63551  1.0000
  H   H1246     1.0  0.57303  0.99354  0.60832  1.0000
  C   C1565     1.0  0.51009  0.13468  0.67251  1.0000
  C   C1566     1.0  0.53489  0.07978  0.71820  1.0000
  C   C1567     1.0  0.34156  0.00310  0.66118  1.0000
  H   H1247     1.0  0.50820  0.00054  0.60127  1.0000
  H   H1248     1.0  0.37293  0.99743  0.63412  1.0000
  C   C1568     1.0  0.52908  0.13136  0.66224  1.0000
  C   C1569     1.0  0.54540  0.11470  0.68697  1.0000
  C   C1570     1.0  0.35217  0.13952  0.62742  1.0000
  C   C1571     1.0  0.38431  0.99862  0.60764  1.0000
  H   H1249     1.0  0.55153  0.00361  0.63714  1.0000
  S   S215      1.0  0.32903  0.04414  0.56428  1.0000
  C   C1572     1.0  0.52642  0.11815  0.69749  1.0000
  H   H1250     1.0  0.43935  0.02249  0.70925  1.0000
  H   H1251     1.0  0.46852  0.09617  0.68482  1.0000
  H   H1252     1.0  0.34074  0.08483  0.62376  1.0000
  H   H1253     1.0  0.57624  0.02662  0.59024  1.0000
  C   C1573     1.0  0.34998  0.00814  0.67490  1.0000
  C   C1574     1.0  0.47832  0.04132  0.71011  1.0000
  H   H1254     1.0  0.58331  0.13988  0.72952  1.0000
  C   C1575     1.0  0.38102  0.99478  0.59156  1.0000
  C   C1576     1.0  0.48767  0.13006  0.73138  1.0000
  H   H1255     1.0  0.57607  0.04448  0.72891  1.0000
  C   C1577     1.0  0.50868  0.12799  0.69005  1.0000
  C   C1578     1.0  0.47742  0.98484  0.64187  1.0000
  H   H1256     1.0  0.39800  0.12206  0.70495  1.0000
  H   H1257     1.0  0.48974  0.06754  0.67068  1.0000
  H   H1258     1.0  0.53005  0.13574  0.64854  1.0000
  H   H1259     1.0  0.36825  0.99676  0.69553  1.0000
  C   C1579     1.0  0.48350  0.06486  0.68397  1.0000
  H   H1260     1.0  0.45988  0.05520  0.73133  1.0000
  C   C1580     1.0  0.56738  0.98757  0.65787  1.0000
  H   H1261     1.0  0.49527  0.03285  0.68606  1.0000
  H   H1262     1.0  0.54560  0.04683  0.57770  1.0000
  C   C1581     1.0  0.37024  0.99367  0.62195  1.0000
  C   C1582     1.0  0.54672  0.12142  0.66947  1.0000
  P   P52       1.0  0.48004  0.01540  0.72128  1.0000
  H   H1263     1.0  0.45857  0.99029  0.70325  1.0000
  C   C1583     1.0  0.48673  0.04508  0.69291  1.0000
  C   C1584     1.0  0.52813  0.06940  0.70634  1.0000
  C   C1585     1.0  0.55956  0.00203  0.60282  1.0000
  C   C1586     1.0  0.52520  0.02451  0.58840  1.0000
  H   H1264     1.0  0.63923  0.10089  0.65447  1.0000
  H   H1265     1.0  0.50644  0.04188  0.73243  1.0000
  C   C1587     1.0  0.36654  0.12220  0.63171  1.0000
  H   H1266     1.0  0.35550  0.15477  0.62848  1.0000
  C   C1588     1.0  0.64692  0.09578  0.66580  1.0000
  S   S216      1.0  0.42499  0.98391  0.68467  1.0000
  C   C1589     1.0  0.46685  0.05776  0.71818  1.0000
  H   H1267     1.0  0.51547  0.07674  0.69928  1.0000
  H   H1268     1.0  0.53385  0.04270  0.69290  1.0000
  H   H1269     1.0  0.37341  0.08906  0.63361  1.0000
  C   C1590     1.0  0.56231  0.05105  0.72297  1.0000
  C   C1591     1.0  0.55611  0.98864  0.64410  1.0000
  H   H1270     1.0  0.52118  0.00156  0.70480  1.0000
  C   C1592     1.0  0.61956  0.05541  0.73239  1.0000
  C   C1593     1.0  0.36105  0.99272  0.68532  1.0000
  C   C1594     1.0  0.32512  0.04498  0.59943  1.0000
  C   C1595     1.0  0.36233  0.10255  0.63030  1.0000
  C   C1596     1.0  0.64242  0.10710  0.67968  1.0000
  C   C1597     1.0  0.65302  0.10095  0.69397  1.0000
  H   H1271     1.0  0.56459  0.02662  0.70742  1.0000
  C   C1598     1.0  0.51716  0.98239  0.68640  1.0000
  C   C1599     1.0  0.41455  0.07168  0.71794  1.0000
  C   C1600     1.0  0.35302  0.98425  0.62037  1.0000
  C   C1601     1.0  0.40165  0.10931  0.73091  1.0000
  C   C1602     1.0  0.32804  0.10052  0.58430  1.0000
  C   C1603     1.0  0.56977  0.13283  0.73529  1.0000
  H   H1272     1.0  0.46749  0.99821  0.64636  1.0000
  C   C1604     1.0  0.53977  0.11701  0.73238  1.0000
  H   H1273     1.0  0.33379  0.01539  0.65281  1.0000
  C   C1605     1.0  0.61493  0.98602  0.62786  1.0000
  C   C1606     1.0  0.45435  0.01254  0.73211  1.0000
  H   H1274     1.0  0.34104  0.09595  0.59159  1.0000
  H   H1275     1.0  0.51597  0.19535  0.73258  1.0000
  H   H1276     1.0  0.63078  0.12068  0.67931  1.0000
  H   H1277     1.0  0.37133  0.00351  0.73544  1.0000
  H   H1278     1.0  0.32699  0.99422  0.55744  1.0000
  C   C1607     1.0  0.33063  0.09663  0.56732  1.0000
  H   H1279     1.0  0.32307  0.04439  0.62673  1.0000
  C   C1608     1.0  0.41706  0.01701  0.73119  1.0000
  H   H1280     1.0  0.40098  0.98550  0.71771  1.0000
  H   H1281     1.0  0.64976  0.99205  0.57229  1.0000
  H   H1282     1.0  0.64443  0.04284  0.59942  1.0000
  C   C1609     1.0  0.60395  0.98297  0.73614  1.0000
  C   C1610     1.0  0.41421  0.07280  0.73558  1.0000
  C   C1611     1.0  0.37281  0.98699  0.73531  1.0000
  H   H1283     1.0  0.64713  0.00239  0.66839  1.0000
  H   H1284     1.0  0.64949  0.10968  0.70477  1.0000
  H   H1285     1.0  0.34539  0.08904  0.56178  1.0000
  C   C1612     1.0  0.34426  0.98258  0.65772  1.0000
  H   H1286     1.0  0.49612  0.07751  0.73663  1.0000
  C   C1613     1.0  0.49867  0.01082  0.73648  1.0000
  H   H1287     1.0  0.39635  0.12391  0.73580  1.0000
  H   H1288     1.0  0.55810  0.07807  0.73544  1.0000
  Fe  Fe113     1.0  0.42526  0.07391  0.78221  1.0000
  S   S217      1.0  0.41371  0.05821  0.80818  1.0000
  S   S218      1.0  0.40520  0.09432  0.76405  1.0000
  Fe  Fe114     1.0  0.47032  0.06110  0.78695  1.0000
  S   S219      1.0  0.46243  0.04468  0.81300  1.0000
  S   S220      1.0  0.50229  0.06313  0.77297  1.0000
  Fe  Fe115     1.0  0.43875  0.03208  0.80126  1.0000
  S   S221      1.0  0.44334  0.99705  0.80573  1.0000
  Fe  Fe116     1.0  0.43853  0.07237  0.81748  1.0000
  S   S222      1.0  0.43829  0.08472  0.84294  1.0000
  S   S223      1.0  0.44829  0.04704  0.77483  1.0000
  S   S224      1.0  0.44825  0.08959  0.79202  1.0000
  Fe  Fe117     1.0  0.61742  0.07719  0.77253  1.0000
  C   C1614     1.0  0.33436  0.25592  0.89813  1.0000
  H   H1289     1.0  0.58131  0.15879  0.77696  1.0000
  Fe  Fe118     1.0  0.59797  0.06368  0.80832  1.0000
  S   S225      1.0  0.62796  0.05778  0.81960  1.0000
  S   S226      1.0  0.56829  0.05681  0.82369  1.0000
  Fe  Fe119     1.0  0.63427  0.08771  0.80372  1.0000
  C   C1615     1.0  0.54479  0.99904  0.85001  1.0000
  Fe  Fe120     1.0  0.63958  0.04254  0.79584  1.0000
  H   H1290     1.0  0.50816  0.07782  0.97129  1.0000
  S   S227      1.0  0.60296  0.09464  0.79440  1.0000
  S   S228      1.0  0.60909  0.04676  0.78565  1.0000
  Fe  Fe121     1.0  0.42628  0.23821  0.88887  1.0000
  S   S229      1.0  0.40506  0.21418  0.89648  1.0000
  S   S230      1.0  0.41776  0.27275  0.88122  1.0000
  Fe  Fe122     1.0  0.46560  0.20657  0.89312  1.0000
  S   S231      1.0  0.44698  0.18019  0.90097  1.0000
  S   S232      1.0  0.50034  0.19584  0.89244  1.0000
  Fe  Fe123     1.0  0.42818  0.19422  0.87974  1.0000
  S   S233      1.0  0.41824  0.17843  0.85908  1.0000
  Fe  Fe124     1.0  0.42586  0.20211  0.91697  1.0000
  S   S234      1.0  0.41277  0.19232  0.94427  1.0000
  S   S235      1.0  0.44819  0.21929  0.87070  1.0000
  S   S236      1.0  0.44563  0.22754  0.91050  1.0000
  S   S237      1.0  0.63181  0.23354  0.91488  1.0000
  H   H1291     1.0  0.63275  0.10032  0.84537  1.0000
  Fe  Fe125     1.0  0.60837  0.22473  0.90006  1.0000
  S   S238      1.0  0.57569  0.24241  0.89975  1.0000
  S   S239      1.0  0.61289  0.19155  0.91099  1.0000
  H   H1292     1.0  0.43125  0.98308  0.84136  1.0000
  C   C1616     1.0  0.64982  0.98808  0.80580  1.0000
  C   C1617     1.0  0.51637  0.98752  0.75804  1.0000
  C   C1618     1.0  0.53617  0.11268  0.75024  1.0000
  C   C1619     1.0  0.35700  0.38470  0.94801  1.0000
  C   C1620     1.0  0.39507  0.29142  0.88083  1.0000
  C   C1621     1.0  0.37497  0.28745  0.88775  1.0000
  C   C1622     1.0  0.35784  0.30350  0.88703  1.0000
  C   C1623     1.0  0.36077  0.32341  0.87902  1.0000
  C   C1624     1.0  0.38084  0.32710  0.87221  1.0000
  C   C1625     1.0  0.39776  0.31137  0.87318  1.0000
  H   H1293     1.0  0.37266  0.27206  0.89345  1.0000
  H   H1294     1.0  0.34244  0.30045  0.89246  1.0000
  H   H1295     1.0  0.38337  0.34235  0.86609  1.0000
  H   H1296     1.0  0.41312  0.31469  0.86779  1.0000
  C   C1626     1.0  0.42511  0.19959  0.96023  1.0000
  H   H1297     1.0  0.64660  0.35259  0.97635  1.0000
  C   C1627     1.0  0.63355  0.12526  0.85995  1.0000
  H   H1298     1.0  0.42829  0.00295  0.77187  1.0000
  C   C1628     1.0  0.45360  0.21315  0.96888  1.0000
  C   C1629     1.0  0.44418  0.20697  0.95616  1.0000
  H   H1299     1.0  0.33237  0.43445  0.89920  1.0000
  C   C1630     1.0  0.63546  0.11610  0.84482  1.0000
  H   H1300     1.0  0.46841  0.21871  0.96570  1.0000
  H   H1301     1.0  0.45188  0.20757  0.94327  1.0000
  C   C1631     1.0  0.52036  0.20924  0.89583  1.0000
  C   C1632     1.0  0.51774  0.23071  0.89526  1.0000
  C   C1633     1.0  0.53470  0.24070  0.89682  1.0000
  C   C1634     1.0  0.55438  0.22934  0.89881  1.0000
  C   C1635     1.0  0.55680  0.20786  0.89969  1.0000
  C   C1636     1.0  0.53989  0.19788  0.89826  1.0000
  H   H1302     1.0  0.50282  0.23964  0.89325  1.0000
  H   H1303     1.0  0.53265  0.25732  0.89614  1.0000
  H   H1304     1.0  0.57184  0.19892  0.90096  1.0000
  H   H1305     1.0  0.54216  0.18130  0.89855  1.0000
  H   H1306     1.0  0.35988  0.22700  0.97753  1.0000
  P   P53       1.0  0.54570  0.23742  0.96514  1.0000
  C   C1637     1.0  0.50896  0.18851  0.74479  1.0000
  H   H1307     1.0  0.50400  0.23361  0.98413  1.0000
  H   H1308     1.0  0.59718  0.17614  0.97886  1.0000
  C   C1638     1.0  0.43306  0.11097  0.84699  1.0000
  C   C1639     1.0  0.42315  0.12652  0.83586  1.0000
  C   C1640     1.0  0.41847  0.14693  0.83995  1.0000
  C   C1641     1.0  0.42403  0.15223  0.85497  1.0000
  C   C1642     1.0  0.43407  0.13674  0.86604  1.0000
  C   C1643     1.0  0.43847  0.11623  0.86210  1.0000
  H   H1309     1.0  0.41868  0.12276  0.82427  1.0000
  H   H1310     1.0  0.41033  0.15869  0.83150  1.0000
  H   H1311     1.0  0.43805  0.14049  0.87779  1.0000
  H   H1312     1.0  0.44594  0.10431  0.87089  1.0000
  C   C1644     1.0  0.52183  0.05843  0.78637  1.0000
  C   C1645     1.0  0.54068  0.06588  0.78067  1.0000
  C   C1646     1.0  0.55524  0.06506  0.79202  1.0000
  C   C1647     1.0  0.55127  0.05607  0.80892  1.0000
  C   C1648     1.0  0.53331  0.04698  0.81414  1.0000
  C   C1649     1.0  0.51851  0.04826  0.80292  1.0000
  H   H1313     1.0  0.54371  0.07298  0.76768  1.0000
  H   H1314     1.0  0.56911  0.07211  0.78780  1.0000
  H   H1315     1.0  0.53046  0.03988  0.82711  1.0000
  H   H1316     1.0  0.50448  0.04165  0.80719  1.0000
  S   S240      1.0  0.63422  0.15622  0.87919  1.0000
  H   H1317     1.0  0.59896  0.29878  0.94416  1.0000
  C   C1650     1.0  0.50811  0.02577  0.85838  1.0000
  C   C1651     1.0  0.34975  0.33897  0.93757  1.0000
  H   H1318     1.0  0.62362  0.99036  0.79182  1.0000
  H   H1319     1.0  0.54937  0.27567  0.97871  1.0000
  H   H1320     1.0  0.52607  0.03840  0.87379  1.0000
  H   H1321     1.0  0.41231  0.24693  0.84728  1.0000
  C   C1652     1.0  0.45155  0.98884  0.85874  1.0000
  H   H1322     1.0  0.45914  0.14844  0.74049  1.0000
  C   C1653     1.0  0.36260  0.23809  0.86050  1.0000
  H   H1323     1.0  0.50169  0.11548  0.97178  1.0000
  H   H1324     1.0  0.41864  0.05908  0.74414  1.0000
  C   C1654     1.0  0.44654  0.02421  0.86532  1.0000
  C   C1655     1.0  0.39758  0.24889  0.94179  1.0000
  C   C1656     1.0  0.59469  0.98787  0.86678  1.0000
  C   C1657     1.0  0.49793  0.08421  0.98172  1.0000
  C   C1658     1.0  0.59080  0.99101  0.84966  1.0000
  H   H1325     1.0  0.60468  0.24640  0.97458  1.0000
  H   H1326     1.0  0.40132  0.99656  0.79715  1.0000
  H   H1327     1.0  0.44147  0.11809  0.75253  1.0000
  H   H1328     1.0  0.61802  0.22525  0.95110  1.0000
  H   H1329     1.0  0.45655  0.15214  0.93722  1.0000
  H   H1330     1.0  0.63045  0.01068  0.76489  1.0000
  H   H1331     1.0  0.59615  0.16157  0.95217  1.0000
  H   H1332     1.0  0.34350  0.39160  0.88232  1.0000
  H   H1333     1.0  0.37554  0.41282  0.97337  1.0000
  P   P54       1.0  0.32456  0.26360  0.86455  1.0000
  C   C1659     1.0  0.54441  0.01361  0.86126  1.0000
  C   C1660     1.0  0.50267  0.99112  0.74569  1.0000
  C   C1661     1.0  0.45704  0.00401  0.86719  1.0000
  H   H1334     1.0  0.40576  0.35878  0.95123  1.0000
  H   H1335     1.0  0.59542  0.02540  0.75711  1.0000
  C   C1662     1.0  0.56650  0.12780  0.75299  1.0000
  C   C1663     1.0  0.37518  0.40066  0.96571  1.0000
  H   H1336     1.0  0.35009  0.33023  0.91251  1.0000
  C   C1664     1.0  0.46790  0.09606  0.74538  1.0000
  H   H1337     1.0  0.39821  0.01147  0.75541  1.0000
  H   H1338     1.0  0.34449  0.41254  0.95911  1.0000
  C   C1665     1.0  0.37500  0.26492  0.96450  1.0000
  C   C1666     1.0  0.58646  0.18374  0.97001  1.0000
  H   H1339     1.0  0.34831  0.24635  0.89337  1.0000
  C   C1667     1.0  0.43075  0.00662  0.75814  1.0000
  C   C1668     1.0  0.54959  0.11794  0.76048  1.0000
  H   H1340     1.0  0.39204  0.21831  0.85852  1.0000
  C   C1669     1.0  0.57391  0.20222  0.97331  1.0000
  H   H1341     1.0  0.57279  0.30181  0.96968  1.0000
  H   H1342     1.0  0.57269  0.17970  0.93129  1.0000
  C   C1670     1.0  0.62202  0.21986  0.96380  1.0000
  C   C1671     1.0  0.43545  0.99428  0.84840  1.0000
  H   H1343     1.0  0.46945  0.00049  0.87511  1.0000
  C   C1672     1.0  0.62287  0.00276  0.75708  1.0000
  C   C1673     1.0  0.64288  0.15693  0.84380  1.0000
  C   C1674     1.0  0.55601  0.16160  0.79734  1.0000
  H   H1344     1.0  0.64309  0.37488  0.94903  1.0000
  H   H1345     1.0  0.53419  0.18832  0.85204  1.0000
  H   H1346     1.0  0.54466  0.16875  0.78891  1.0000
  C   C1675     1.0  0.63900  0.19371  0.98369  1.0000
  C   C1676     1.0  0.35763  0.38534  0.88791  1.0000
  C   C1677     1.0  0.61235  0.99400  0.87134  1.0000
  C   C1678     1.0  0.57665  0.15602  0.79058  1.0000
  H   H1347     1.0  0.63663  0.29185  0.98213  1.0000
  Fe  Fe126     1.0  0.63680  0.18695  0.88823  1.0000
  C   C1679     1.0  0.57587  0.20815  0.86005  1.0000
  H   H1348     1.0  0.62493  0.04867  0.74443  1.0000
  H   H1349     1.0  0.60643  0.19113  0.86192  1.0000
  C   C1680     1.0  0.40755  0.09171  0.74208  1.0000
  C   C1681     1.0  0.50098  0.12880  0.85403  1.0000
  C   C1682     1.0  0.49117  0.13647  0.86898  1.0000
  C   C1683     1.0  0.50149  0.14791  0.87753  1.0000
  C   C1684     1.0  0.52164  0.15173  0.87112  1.0000
  C   C1685     1.0  0.53144  0.14451  0.85586  1.0000
  C   C1686     1.0  0.52115  0.13258  0.84759  1.0000
  P   P55       1.0  0.55828  0.14724  0.84878  1.0000
  C   C1687     1.0  0.56493  0.14933  0.82594  1.0000
  C   C1688     1.0  0.56475  0.17081  0.85413  1.0000
  C   C1689     1.0  0.58519  0.17197  0.85658  1.0000
  C   C1690     1.0  0.58566  0.14398  0.81905  1.0000
  C   C1691     1.0  0.59145  0.14718  0.80144  1.0000
  H   H1350     1.0  0.56936  0.01344  0.78412  1.0000
  C   C1692     1.0  0.55016  0.15828  0.81500  1.0000
  C   C1693     1.0  0.57288  0.12432  0.85864  1.0000
  C   C1694     1.0  0.57894  0.12380  0.87488  1.0000
  C   C1695     1.0  0.58948  0.10565  0.88275  1.0000
  C   C1696     1.0  0.59393  0.08791  0.87450  1.0000
  C   C1697     1.0  0.58757  0.08822  0.85847  1.0000
  C   C1698     1.0  0.57696  0.10630  0.85061  1.0000
  H   H1351     1.0  0.49295  0.11973  0.84759  1.0000
  H   H1352     1.0  0.47561  0.13346  0.87400  1.0000
  H   H1353     1.0  0.49392  0.15380  0.88918  1.0000
  H   H1354     1.0  0.52956  0.16017  0.87822  1.0000
  H   H1355     1.0  0.52892  0.12587  0.83643  1.0000
  H   H1356     1.0  0.59691  0.15858  0.85600  1.0000
  H   H1357     1.0  0.59749  0.13763  0.82728  1.0000
  H   H1358     1.0  0.60754  0.14293  0.79628  1.0000
  C   C1699     1.0  0.52121  0.26325  0.94241  1.0000
  H   H1359     1.0  0.57556  0.13740  0.88145  1.0000
  H   H1360     1.0  0.59445  0.10547  0.89514  1.0000
  H   H1361     1.0  0.60230  0.07393  0.88051  1.0000
  H   H1362     1.0  0.59080  0.07445  0.85207  1.0000
  H   H1363     1.0  0.57191  0.10611  0.83829  1.0000
  C   C1700     1.0  0.64553  0.14753  0.82872  1.0000
  H   H1364     1.0  0.42441  0.29456  0.90881  1.0000
  H   H1365     1.0  0.54397  0.22084  0.85789  1.0000
  C   C1701     1.0  0.63725  0.14568  0.85957  1.0000
  C   C1702     1.0  0.50564  0.26770  0.93162  1.0000
  C   C1703     1.0  0.51221  0.16713  0.74922  1.0000
  C   C1704     1.0  0.47730  0.15369  0.97382  1.0000
  C   C1705     1.0  0.59068  0.19051  0.85970  1.0000
  C   C1706     1.0  0.43054  0.02941  0.85500  1.0000
  H   H1366     1.0  0.32860  0.26866  0.97242  1.0000
  Fe  Fe127     1.0  0.63792  0.19965  0.92388  1.0000
  H   H1367     1.0  0.39160  0.32518  0.96104  1.0000
  H   H1368     1.0  0.58003  0.22241  0.86286  1.0000
  S   S241      1.0  0.63122  0.22021  0.87644  1.0000
  H   H1369     1.0  0.39437  0.28280  0.84280  1.0000
  H   H1370     1.0  0.41008  0.38237  0.87884  1.0000
  H   H1371     1.0  0.46026  0.08292  0.75100  1.0000
  S   S242      1.0  0.61024  0.09205  0.74623  1.0000
  C   C1707     1.0  0.62626  0.00329  0.85883  1.0000
  C   C1708     1.0  0.59071  0.27021  0.93916  1.0000
  C   C1709     1.0  0.50840  0.01147  0.84705  1.0000
  C   C1710     1.0  0.45091  0.00726  0.74989  1.0000
  H   H1372     1.0  0.39922  0.23905  0.96838  1.0000
  C   C1711     1.0  0.33948  0.33802  0.95430  1.0000
  C   C1712     1.0  0.52662  0.00340  0.76090  1.0000
  C   C1713     1.0  0.39911  0.31900  0.94952  1.0000
  H   H1373     1.0  0.45087  0.03601  0.87166  1.0000
  H   H1374     1.0  0.52357  0.10431  0.75624  1.0000
  C   C1714     1.0  0.42500  0.01444  0.84657  1.0000
  C   C1715     1.0  0.51271  0.22854  0.95015  1.0000
  C   C1716     1.0  0.55554  0.20725  0.85724  1.0000
  H   H1375     1.0  0.62936  0.11639  0.87208  1.0000
  C   C1717     1.0  0.33080  0.25805  0.91554  1.0000
  H   H1376     1.0  0.34518  0.34462  0.96406  1.0000
  C   C1718     1.0  0.39200  0.36992  0.95337  1.0000
  H   H1377     1.0  0.53041  0.27515  0.94324  1.0000
  C   C1719     1.0  0.35222  0.25838  0.85792  1.0000
  C   C1720     1.0  0.56111  0.27371  0.96786  1.0000
  C   C1721     1.0  0.63289  0.98425  0.75145  1.0000
  C   C1722     1.0  0.60474  0.00063  0.83722  1.0000
  H   H1378     1.0  0.53674  0.00088  0.77078  1.0000
  H   H1379     1.0  0.52684  0.98754  0.83378  1.0000
  H   H1380     1.0  0.55157  0.21279  0.93637  1.0000
  H   H1381     1.0  0.64013  0.00777  0.86222  1.0000
  C   C1723     1.0  0.48109  0.16942  0.93898  1.0000
  C   C1724     1.0  0.59376  0.00123  0.74211  1.0000
  H   H1382     1.0  0.63586  0.29046  0.93095  1.0000
  C   C1725     1.0  0.61434  0.23173  0.97714  1.0000
  C   C1726     1.0  0.60314  0.01105  0.75269  1.0000
  C   C1727     1.0  0.38412  0.23397  0.85639  1.0000
  C   C1728     1.0  0.62243  0.00661  0.84182  1.0000
  C   C1729     1.0  0.39129  0.24993  0.95914  1.0000
  C   C1730     1.0  0.57423  0.28873  0.96266  1.0000
  C   C1731     1.0  0.37411  0.36922  0.94587  1.0000
  C   C1732     1.0  0.37691  0.38841  0.87882  1.0000
  C   C1733     1.0  0.58901  0.28700  0.94831  1.0000
  C   C1734     1.0  0.38791  0.26299  0.92961  1.0000
  C   C1735     1.0  0.37476  0.36429  0.91085  1.0000
  H   H1383     1.0  0.40830  0.36188  0.90734  1.0000
  C   C1736     1.0  0.49177  0.16722  0.96711  1.0000
  H   H1384     1.0  0.41820  0.29419  0.96313  1.0000
  H   H1385     1.0  0.34330  0.38482  0.94186  1.0000
  H   H1386     1.0  0.54746  0.11343  0.77415  1.0000
  H   H1387     1.0  0.40617  0.38591  0.96931  1.0000
  C   C1737     1.0  0.46729  0.13300  0.73953  1.0000
  C   C1738     1.0  0.57783  0.25501  0.94447  1.0000
  C   C1739     1.0  0.41558  0.19836  0.97718  1.0000
  C   C1740     1.0  0.52503  0.24354  0.95164  1.0000
  C   C1741     1.0  0.37202  0.27835  0.93479  1.0000
  C   C1742     1.0  0.49377  0.25255  0.92995  1.0000
  H   H1388     1.0  0.49993  0.98564  0.80200  1.0000
  H   H1389     1.0  0.34143  0.37109  0.91064  1.0000
  C   C1743     1.0  0.40260  0.31910  0.91888  1.0000
  H   H1390     1.0  0.48837  0.22120  0.93749  1.0000
  H   H1391     1.0  0.34198  0.25023  0.92394  1.0000
  C   C1744     1.0  0.42339  0.29279  0.93609  1.0000
  C   C1745     1.0  0.56079  0.21276  0.96145  1.0000
  H   H1392     1.0  0.49466  0.01120  0.84108  1.0000
  P   P56       1.0  0.56835  0.98202  0.84409  1.0000
  H   H1393     1.0  0.36490  0.28951  0.92526  1.0000
  H   H1394     1.0  0.43470  0.27895  0.93707  1.0000
  C   C1746     1.0  0.38540  0.27026  0.84735  1.0000
  H   H1395     1.0  0.50524  0.18485  0.94448  1.0000
  C   C1747     1.0  0.56307  0.25652  0.95898  1.0000
  C   C1748     1.0  0.64190  0.12706  0.82913  1.0000
  C   C1749     1.0  0.36571  0.27949  0.95220  1.0000
  H   H1396     1.0  0.35657  0.29030  0.84957  1.0000
  C   C1750     1.0  0.39513  0.37991  0.88587  1.0000
  C   C1751     1.0  0.56887  0.99942  0.81018  1.0000
  C   C1752     1.0  0.48856  0.10036  0.81997  1.0000
  C   C1753     1.0  0.51014  0.09584  0.81835  1.0000
  C   C1754     1.0  0.52237  0.10982  0.80872  1.0000
  C   C1755     1.0  0.51296  0.12887  0.80141  1.0000
  C   C1756     1.0  0.49123  0.13379  0.80331  1.0000
  C   C1757     1.0  0.47910  0.11939  0.81273  1.0000
  P   P57       1.0  0.47941  0.15975  0.79691  1.0000
  C   C1758     1.0  0.48221  0.17372  0.81408  1.0000
  C   C1759     1.0  0.49115  0.17080  0.77652  1.0000
  C   C1760     1.0  0.50306  0.15824  0.76491  1.0000
  H   H1397     1.0  0.49411  0.03645  0.86123  1.0000
  H   H1398     1.0  0.45423  0.13701  0.96741  1.0000
  C   C1761     1.0  0.52611  0.02686  0.86544  1.0000
  C   C1762     1.0  0.48744  0.19221  0.77177  1.0000
  C   C1763     1.0  0.49730  0.18698  0.81229  1.0000
  C   C1764     1.0  0.50038  0.19631  0.82622  1.0000
  C   C1765     1.0  0.48860  0.19230  0.84204  1.0000
  C   C1766     1.0  0.47362  0.17911  0.84390  1.0000
  C   C1767     1.0  0.47056  0.16971  0.83005  1.0000
  C   C1768     1.0  0.45253  0.16023  0.79428  1.0000
  C   C1769     1.0  0.44686  0.14530  0.78571  1.0000
  C   C1770     1.0  0.42604  0.14546  0.78368  1.0000
  C   C1771     1.0  0.41087  0.16088  0.78974  1.0000
  C   C1772     1.0  0.41650  0.17620  0.79778  1.0000
  C   C1773     1.0  0.43726  0.17588  0.80010  1.0000
  H   H1399     1.0  0.47916  0.08933  0.82732  1.0000
  H   H1400     1.0  0.51735  0.08170  0.82494  1.0000
  H   H1401     1.0  0.53915  0.10605  0.80747  1.0000
  H   H1402     1.0  0.52263  0.13993  0.79467  1.0000
  H   H1403     1.0  0.46236  0.12295  0.81498  1.0000
  H   H1404     1.0  0.50514  0.14161  0.76786  1.0000
  H   H1405     1.0  0.50178  0.17174  0.97511  1.0000
  C   C1774     1.0  0.57010  0.99905  0.79261  1.0000
  H   H1406     1.0  0.64525  0.13261  0.92162  1.0000
  H   H1407     1.0  0.47757  0.20208  0.78027  1.0000
  H   H1408     1.0  0.50707  0.18979  0.80033  1.0000
  H   H1409     1.0  0.51206  0.20649  0.82484  1.0000
  H   H1410     1.0  0.49110  0.19930  0.85293  1.0000
  H   H1411     1.0  0.46446  0.17596  0.85617  1.0000
  H   H1412     1.0  0.45927  0.15910  0.83186  1.0000
  H   H1413     1.0  0.45848  0.13331  0.78085  1.0000
  H   H1414     1.0  0.42156  0.13347  0.77760  1.0000
  H   H1415     1.0  0.39472  0.16083  0.78831  1.0000
  H   H1416     1.0  0.40470  0.18806  0.80262  1.0000
  H   H1417     1.0  0.44123  0.18772  0.80660  1.0000
  H   H1418     1.0  0.57765  0.13068  0.76081  1.0000
  C   C1775     1.0  0.36384  0.27445  0.85132  1.0000
  H   H1419     1.0  0.52173  0.15746  0.74043  1.0000
  H   H1420     1.0  0.39315  0.26222  0.91619  1.0000
  H   H1421     1.0  0.53429  0.16300  0.82017  1.0000
  C   C1776     1.0  0.54999  0.18868  0.85421  1.0000
  C   C1777     1.0  0.49379  0.17481  0.94973  1.0000
  H   H1422     1.0  0.56728  0.01408  0.81507  1.0000
  C   C1778     1.0  0.35653  0.37344  0.90391  1.0000
  C   C1779     1.0  0.56062  0.20455  0.94619  1.0000
  H   H1423     1.0  0.42262  0.04512  0.85336  1.0000
  H   H1424     1.0  0.32699  0.46517  0.91457  1.0000
  H   H1425     1.0  0.35417  0.22543  0.86597  1.0000
  C   C1780     1.0  0.63431  0.20077  0.96704  1.0000
  C   C1781     1.0  0.52337  0.02276  0.75129  1.0000
  H   H1426     1.0  0.61540  0.99129  0.88452  1.0000
  H   H1427     1.0  0.53120  0.03514  0.75361  1.0000
  C   C1782     1.0  0.39554  0.25006  0.84993  1.0000
  C   C1783     1.0  0.52667  0.99820  0.84286  1.0000
  H   H1428     1.0  0.48244  0.17562  0.92558  1.0000
  H   H1429     1.0  0.65049  0.15615  0.81663  1.0000
  C   C1784     1.0  0.39239  0.38545  0.96346  1.0000
  H   H1430     1.0  0.50307  0.28277  0.92426  1.0000
  H   H1431     1.0  0.63340  0.01350  0.83207  1.0000
  C   C1785     1.0  0.41762  0.30160  0.92016  1.0000
  C   C1786     1.0  0.58593  0.17555  0.95494  1.0000
  C   C1787     1.0  0.35759  0.40041  0.95781  1.0000
  H   H1432     1.0  0.55828  0.01521  0.86648  1.0000
  H   H1433     1.0  0.40084  0.19263  0.98036  1.0000
  H   H1434     1.0  0.64544  0.17276  0.84324  1.0000
  S   S243      1.0  0.64923  0.07189  0.78081  1.0000
  S   S244      1.0  0.64729  0.11538  0.81001  1.0000
  H   H1435     1.0  0.64845  0.17892  0.98628  1.0000
  H   H1436     1.0  0.48201  0.25584  0.92131  1.0000
  C   C1788     1.0  0.45735  0.11597  0.74639  1.0000
  C   C1789     1.0  0.41382  0.01148  0.74884  1.0000
  C   C1790     1.0  0.49738  0.23297  0.93912  1.0000
  H   H1437     1.0  0.57924  0.24226  0.93706  1.0000
  H   H1438     1.0  0.60240  0.00325  0.82392  1.0000
  C   C1791     1.0  0.57283  0.18584  0.94313  1.0000
  S   S245      1.0  0.34054  0.34460  0.87686  1.0000
  H   H1439     1.0  0.46349  0.00424  0.75768  1.0000
  H   H1440     1.0  0.37770  0.39724  0.86625  1.0000
  C   C1792     1.0  0.46500  0.14794  0.96277  1.0000
  H   H1441     1.0  0.41005  0.23716  0.93778  1.0000
  C   C1793     1.0  0.49643  0.20103  0.75601  1.0000
  C   C1794     1.0  0.39406  0.36812  0.90194  1.0000
  C   C1795     1.0  0.39365  0.32829  0.93351  1.0000
  H   H1442     1.0  0.39775  0.32509  0.90648  1.0000
  H   H1443     1.0  0.35386  0.29184  0.95598  1.0000
  C   C1796     1.0  0.46660  0.15611  0.94553  1.0000
  S   S246      1.0  0.64342  0.18520  0.95065  1.0000
  P   P58       1.0  0.37341  0.35019  0.93202  1.0000
  H   H1444     1.0  0.60181  0.26902  0.92779  1.0000
  H   H1445     1.0  0.49362  0.21759  0.75246  1.0000
  C   C1797     1.0  0.34224  0.32981  0.92538  1.0000
  H   H1446     1.0  0.51523  0.21334  0.95730  1.0000
  C   C1798     1.0  0.41406  0.30141  0.95077  1.0000
  H   H1447     1.0  0.41293  0.01853  0.83823  1.0000
  C   C1799     1.0  0.44411  0.21203  0.98576  1.0000
  H   H1448     1.0  0.33160  0.23824  0.83658  1.0000
  C   C1800     1.0  0.49415  0.10557  0.98201  1.0000
  C   C1801     1.0  0.32451  0.32010  0.92971  1.0000
  C   C1802     1.0  0.32369  0.43402  0.91183  1.0000
  H   H1449     1.0  0.57513  0.20849  0.98482  1.0000
  H   H1450     1.0  0.64451  0.32620  0.92663  1.0000
  C   C1803     1.0  0.50926  0.02657  0.73926  1.0000
  C   C1804     1.0  0.65456  0.31373  0.93298  1.0000
  H   H1451     1.0  0.34493  0.98366  0.75267  1.0000
  C   C1805     1.0  0.64970  0.29363  0.93538  1.0000
  H   H1452     1.0  0.47340  0.98918  0.82679  1.0000
  C   C1806     1.0  0.32565  0.27762  0.98305  1.0000
  H   H1453     1.0  0.57870  0.00789  0.73837  1.0000
  H   H1454     1.0  0.32654  0.30731  0.86556  1.0000
  Fe  Fe128     1.0  0.65520  0.22638  0.89234  1.0000
  C   C1807     1.0  0.48819  0.09307  0.73709  1.0000
  Fe  Fe129     1.0  0.40233  0.73264  0.06165  1.0000
  S   S247      1.0  0.40201  0.70483  0.08157  1.0000
  S   S248      1.0  0.40051  0.76657  0.06540  1.0000
  Fe  Fe130     1.0  0.41576  0.70536  0.03240  1.0000
  S   S249      1.0  0.41716  0.67597  0.05051  1.0000
  S   S250      1.0  0.42927  0.70215  0.00506  1.0000
  Fe  Fe131     1.0  0.38667  0.69061  0.06316  1.0000
  S   S251      1.0  0.35660  0.67582  0.06888  1.0000
  Fe  Fe132     1.0  0.43243  0.69282  0.06682  1.0000
  S   S252      1.0  0.46175  0.67926  0.07924  1.0000
  S   S253      1.0  0.38479  0.71964  0.04418  1.0000
  S   S254      1.0  0.43304  0.72099  0.04771  1.0000
  Fe  Fe133     1.0  0.61994  0.71849  0.03995  1.0000
  S   S255      1.0  0.60514  0.68985  0.04274  1.0000
  S   S256      1.0  0.63571  0.72763  0.01339  1.0000
  Fe  Fe134     1.0  0.60523  0.72623  0.07698  1.0000
  S   S257      1.0  0.58945  0.69755  0.08210  1.0000
  S   S258      1.0  0.59907  0.74519  0.09957  1.0000
  Fe  Fe135     1.0  0.61840  0.68192  0.06765  1.0000
  H   H1455     1.0  0.39102  0.88421  0.18139  1.0000
  Fe  Fe136     1.0  0.57787  0.70790  0.05672  1.0000
  S   S259      1.0  0.54627  0.71237  0.04742  1.0000
  S   S260      1.0  0.63510  0.70970  0.06424  1.0000
  S   S261      1.0  0.59190  0.73730  0.05233  1.0000
  S   S262      1.0  0.58279  0.86753  0.13944  1.0000
  Fe  Fe137     1.0  0.62667  0.85158  0.16784  1.0000
  S   S263      1.0  0.59662  0.87017  0.17664  1.0000
  Fe  Fe138     1.0  0.58224  0.84808  0.16490  1.0000
  S   S264      1.0  0.55484  0.83305  0.17792  1.0000
  H   H1456     1.0  0.36341  0.89776  0.15950  1.0000
  S   S265      1.0  0.61198  0.82775  0.15846  1.0000
  Fe  Fe139     1.0  0.41798  0.82964  0.14069  1.0000
  S   S266      1.0  0.44731  0.81682  0.15217  1.0000
  S   S267      1.0  0.39926  0.80634  0.13394  1.0000
  Fe  Fe140     1.0  0.42124  0.87390  0.14742  1.0000
  S   S268      1.0  0.45054  0.86392  0.15948  1.0000
  S   S269      1.0  0.40682  0.90771  0.14399  1.0000
  Fe  Fe141     1.0  0.45958  0.84480  0.13790  1.0000
  S   S270      1.0  0.49168  0.84270  0.12394  1.0000
  Fe  Fe142     1.0  0.43539  0.83692  0.17284  1.0000
  S   S271      1.0  0.43940  0.82270  0.19997  1.0000
  S   S272      1.0  0.43131  0.85643  0.12465  1.0000
  S   S273      1.0  0.40514  0.84807  0.16253  1.0000
  H   H1457     1.0  0.40363  0.77037  0.16028  1.0000
  C   C1808     1.0  0.42002  0.92768  0.14790  1.0000
  C   C1809     1.0  0.43852  0.92323  0.15531  1.0000
  C   C1810     1.0  0.44827  0.93928  0.15889  1.0000
  C   C1811     1.0  0.43978  0.96003  0.15502  1.0000
  C   C1812     1.0  0.58799  0.64155  0.99787  1.0000
  C   C1813     1.0  0.41158  0.94845  0.14388  1.0000
  H   H1458     1.0  0.44524  0.90743  0.15839  1.0000
  H   H1459     1.0  0.46262  0.93558  0.16451  1.0000
  C   C1814     1.0  0.50338  0.74747  0.00875  1.0000
  H   H1460     1.0  0.39727  0.95209  0.13816  1.0000
  C   C1815     1.0  0.53766  0.83347  0.16293  1.0000
  C   C1816     1.0  0.54461  0.83610  0.14545  1.0000
  C   C1817     1.0  0.53038  0.83932  0.13350  1.0000
  C   C1818     1.0  0.50929  0.83897  0.13900  1.0000
  C   C1819     1.0  0.50252  0.83476  0.15643  1.0000
  C   C1820     1.0  0.51668  0.83221  0.16840  1.0000
  H   H1461     1.0  0.56094  0.83567  0.14110  1.0000
  H   H1462     1.0  0.53568  0.84225  0.12003  1.0000
  H   H1463     1.0  0.48639  0.83358  0.16077  1.0000
  H   H1464     1.0  0.51125  0.82996  0.18188  1.0000
  C   C1821     1.0  0.40721  0.63283  0.02179  1.0000
  H   H1465     1.0  0.57647  0.96653  0.14402  1.0000
  H   H1466     1.0  0.41095  0.86091  0.20173  1.0000
  C   C1822     1.0  0.62749  0.95475  0.20756  1.0000
  C   C1823     1.0  0.60505  0.77008  0.10137  1.0000
  C   C1824     1.0  0.61667  0.78132  0.08826  1.0000
  C   C1825     1.0  0.62152  0.80069  0.09061  1.0000
  C   C1826     1.0  0.61488  0.80904  0.10607  1.0000
  C   C1827     1.0  0.60323  0.79779  0.11916  1.0000
  C   C1828     1.0  0.59832  0.77849  0.11678  1.0000
  H   H1467     1.0  0.62201  0.77507  0.07635  1.0000
  H   H1468     1.0  0.59788  0.80403  0.13107  1.0000
  H   H1469     1.0  0.58933  0.76997  0.12699  1.0000
  C   C1829     1.0  0.35208  0.65051  0.06668  1.0000
  C   C1830     1.0  0.42547  0.97011  0.20987  1.0000
  C   C1831     1.0  0.34344  0.61039  0.06388  1.0000
  C   C1832     1.0  0.36391  0.61422  0.06374  1.0000
  C   C1833     1.0  0.36827  0.63418  0.06482  1.0000
  H   H1470     1.0  0.37653  0.60163  0.06278  1.0000
  H   H1471     1.0  0.38413  0.63686  0.06453  1.0000
  C   C1834     1.0  0.48514  0.68979  0.07200  1.0000
  C   C1835     1.0  0.50389  0.68004  0.07788  1.0000
  C   C1836     1.0  0.52290  0.68716  0.07105  1.0000
  C   C1837     1.0  0.52314  0.70410  0.05832  1.0000
  C   C1838     1.0  0.50433  0.71442  0.05322  1.0000
  C   C1839     1.0  0.48549  0.70747  0.06013  1.0000
  H   H1472     1.0  0.50369  0.66670  0.08743  1.0000
  H   H1473     1.0  0.53733  0.67927  0.07526  1.0000
  H   H1474     1.0  0.50430  0.72779  0.04372  1.0000
  H   H1475     1.0  0.47135  0.71568  0.05596  1.0000
  C   C1840     1.0  0.40237  0.79452  0.11489  1.0000
  C   C1841     1.0  0.39683  0.77469  0.11572  1.0000
  C   C1842     1.0  0.39700  0.76557  0.10076  1.0000
  C   C1843     1.0  0.40210  0.77647  0.08471  1.0000
  C   C1844     1.0  0.40790  0.79622  0.08388  1.0000
  C   C1845     1.0  0.40832  0.80509  0.09888  1.0000
  H   H1476     1.0  0.39197  0.76646  0.12800  1.0000
  H   H1477     1.0  0.39244  0.75042  0.10162  1.0000
  H   H1478     1.0  0.41175  0.80484  0.07155  1.0000
  H   H1479     1.0  0.41223  0.82049  0.09803  1.0000
  H   H1480     1.0  0.45117  0.77485  0.19061  1.0000
  C   C1846     1.0  0.36145  0.85660  0.13920  1.0000
  H   H1481     1.0  0.58111  0.57962  0.00188  1.0000
  H   H1482     1.0  0.46606  0.71602  0.17217  1.0000
  H   H1483     1.0  0.59182  0.72742  0.01372  1.0000
  C   C1847     1.0  0.53403  0.77179  0.13221  1.0000
  S   S274      1.0  0.63072  0.64805  0.07541  1.0000
  C   C1848     1.0  0.64295  0.72400  0.20707  1.0000
  H   H1484     1.0  0.63232  0.71803  0.21761  1.0000
  C   C1849     1.0  0.34928  0.69707  0.01043  1.0000
  H   H1485     1.0  0.38813  0.72464  0.99939  1.0000
  S   S275      1.0  0.33916  0.58494  0.06187  1.0000
  H   H1486     1.0  0.46209  0.94968  0.19141  1.0000
  C   C1850     1.0  0.54230  0.59538  0.04580  1.0000
  C   C1851     1.0  0.50746  0.81054  0.22051  1.0000
  C   C1852     1.0  0.59932  0.72569  0.00092  1.0000
  C   C1853     1.0  0.55765  0.95517  0.18297  1.0000
  C   C1854     1.0  0.38918  0.65988  0.00327  1.0000
  C   C1855     1.0  0.62839  0.60638  0.02591  1.0000
  H   H1487     1.0  0.36542  0.85143  0.12670  1.0000
  C   C1856     1.0  0.35334  0.84343  0.15297  1.0000
  H   H1488     1.0  0.32859  0.65336  0.03083  1.0000
  H   H1489     1.0  0.32361  0.60071  0.09950  1.0000
  H   H1490     1.0  0.54872  0.97773  0.22594  1.0000
  H   H1491     1.0  0.46861  0.77594  0.11190  1.0000
  H   H1492     1.0  0.48329  0.96700  0.20627  1.0000
  C   C1857     1.0  0.35324  0.86902  0.17200  1.0000
  H   H1493     1.0  0.55252  0.76498  0.16532  1.0000
  C   C1858     1.0  0.52533  0.98088  0.12647  1.0000
  H   H1494     1.0  0.58478  0.80747  0.00620  1.0000
  C   C1859     1.0  0.57082  0.96832  0.18632  1.0000
  C   C1860     1.0  0.36053  0.88252  0.15795  1.0000
  H   H1495     1.0  0.42354  0.96327  0.19874  1.0000
  H   H1496     1.0  0.54102  0.80438  0.21987  1.0000
  H   H1497     1.0  0.58597  0.59395  0.06382  1.0000
  C   C1861     1.0  0.32739  0.58904  0.99120  1.0000
  C   C1862     1.0  0.62078  0.72549  0.99722  1.0000
  C   C1863     1.0  0.59761  0.59749  0.05318  1.0000
  H   H1498     1.0  0.38834  0.81036  0.21499  1.0000
  H   H1499     1.0  0.46634  0.91153  0.19402  1.0000
  C   C1864     1.0  0.39433  0.91274  0.18965  1.0000
  C   C1865     1.0  0.46482  0.81250  0.06147  1.0000
  C   C1866     1.0  0.45867  0.82415  0.07507  1.0000
  C   C1867     1.0  0.47293  0.82583  0.08602  1.0000
  C   C1868     1.0  0.49340  0.81606  0.08332  1.0000
  C   C1869     1.0  0.49985  0.80454  0.06955  1.0000
  C   C1870     1.0  0.48525  0.80252  0.05883  1.0000
  P   P59       1.0  0.52603  0.79095  0.06646  1.0000
  C   C1871     1.0  0.52676  0.76568  0.07867  1.0000
  C   C1872     1.0  0.53330  0.78784  0.04413  1.0000
  C   C1873     1.0  0.54392  0.76903  0.03931  1.0000
  C   C1874     1.0  0.54971  0.76667  0.02208  1.0000
  C   C1875     1.0  0.54490  0.78306  0.00948  1.0000
  C   C1876     1.0  0.53427  0.80185  0.01414  1.0000
  C   C1877     1.0  0.52849  0.80426  0.03140  1.0000
  C   C1878     1.0  0.50969  0.75491  0.08033  1.0000
  C   C1879     1.0  0.51068  0.73483  0.08883  1.0000
  C   C1880     1.0  0.52884  0.72523  0.09546  1.0000
  C   C1881     1.0  0.54589  0.73583  0.09384  1.0000
  C   C1882     1.0  0.54496  0.75591  0.08539  1.0000
  C   C1883     1.0  0.54395  0.80520  0.07343  1.0000
  C   C1884     1.0  0.54537  0.80433  0.09092  1.0000
  C   C1885     1.0  0.55941  0.81490  0.09650  1.0000
  C   C1886     1.0  0.57199  0.82666  0.08469  1.0000
  C   C1887     1.0  0.57076  0.82762  0.06725  1.0000
  C   C1888     1.0  0.55684  0.81692  0.06161  1.0000
  H   H1500     1.0  0.45358  0.81082  0.05324  1.0000
  H   H1501     1.0  0.44278  0.83164  0.07727  1.0000
  H   H1502     1.0  0.46811  0.83468  0.09669  1.0000
  H   H1503     1.0  0.50399  0.81760  0.09210  1.0000
  H   H1504     1.0  0.48951  0.79304  0.04856  1.0000
  H   H1505     1.0  0.54778  0.75607  0.04880  1.0000
  H   H1506     1.0  0.55790  0.75201  0.01859  1.0000
  S   S276      1.0  0.45182  0.97930  0.16146  1.0000
  H   H1507     1.0  0.53051  0.81456  0.00438  1.0000
  H   H1508     1.0  0.52035  0.81893  0.03486  1.0000
  H   H1509     1.0  0.49581  0.76172  0.07467  1.0000
  H   H1510     1.0  0.49760  0.72646  0.08970  1.0000
  H   H1511     1.0  0.52985  0.70943  0.10154  1.0000
  H   H1512     1.0  0.56000  0.72846  0.09897  1.0000
  H   H1513     1.0  0.55866  0.76352  0.08379  1.0000
  H   H1514     1.0  0.53568  0.79536  0.10022  1.0000
  H   H1515     1.0  0.56073  0.81384  0.10999  1.0000
  H   H1516     1.0  0.58291  0.83480  0.08906  1.0000
  H   H1517     1.0  0.58081  0.83650  0.05813  1.0000
  H   H1518     1.0  0.55638  0.81776  0.04805  1.0000
  H   H1519     1.0  0.54299  0.56248  0.05194  1.0000
  C   C1889     1.0  0.53690  0.61284  0.03420  1.0000
  C   C1890     1.0  0.52835  0.61052  0.01955  1.0000
  P   P60       1.0  0.54099  0.63819  0.03763  1.0000
  C   C1891     1.0  0.54695  0.63778  0.05919  1.0000
  C   C1892     1.0  0.56186  0.64682  0.02227  1.0000
  C   C1893     1.0  0.56814  0.66597  0.02276  1.0000
  C   C1894     1.0  0.57221  0.63446  0.00988  1.0000
  C   C1895     1.0  0.53219  0.63306  0.07321  1.0000
  C   C1896     1.0  0.53680  0.63232  0.08990  1.0000
  C   C1897     1.0  0.55613  0.63641  0.09275  1.0000
  C   C1898     1.0  0.57096  0.64102  0.07894  1.0000
  C   C1899     1.0  0.56650  0.64153  0.06225  1.0000
  C   C1900     1.0  0.51650  0.65465  0.03505  1.0000
  C   C1901     1.0  0.49772  0.64725  0.04180  1.0000
  C   C1902     1.0  0.47869  0.65953  0.03960  1.0000
  C   C1903     1.0  0.47816  0.67923  0.03052  1.0000
  C   C1904     1.0  0.49668  0.68665  0.02361  1.0000
  C   C1905     1.0  0.51575  0.67449  0.02584  1.0000
  H   H1520     1.0  0.51849  0.58932  0.00530  1.0000
  H   H1521     1.0  0.52410  0.62385  0.01046  1.0000
  H   H1522     1.0  0.56092  0.67550  0.03255  1.0000
  H   H1523     1.0  0.60546  0.66680  0.98860  1.0000
  H   H1524     1.0  0.51700  0.63016  0.07136  1.0000
  H   H1525     1.0  0.52520  0.62892  0.10061  1.0000
  H   H1526     1.0  0.53168  0.93931  0.19242  1.0000
  H   H1527     1.0  0.38416  0.56974  0.00011  1.0000
  P   P61       1.0  0.47477  0.74058  0.13854  1.0000
  H   H1528     1.0  0.49765  0.63202  0.04886  1.0000
  H   H1529     1.0  0.46429  0.65405  0.04537  1.0000
  H   H1530     1.0  0.46338  0.68888  0.02909  1.0000
  H   H1531     1.0  0.49631  0.70210  0.01695  1.0000
  H   H1532     1.0  0.52962  0.68100  0.02049  1.0000
  C   C1906     1.0  0.55553  0.88600  0.09984  1.0000
  C   C1907     1.0  0.57405  0.89405  0.09921  1.0000
  C   C1908     1.0  0.57452  0.91054  0.10818  1.0000
  C   C1909     1.0  0.55650  0.91896  0.11779  1.0000
  C   C1910     1.0  0.53768  0.91121  0.11835  1.0000
  C   C1911     1.0  0.53746  0.89446  0.10940  1.0000
  P   P62       1.0  0.51511  0.92064  0.13252  1.0000
  C   C1912     1.0  0.51575  0.90366  0.15233  1.0000
  C   C1913     1.0  0.51702  0.94637  0.13667  1.0000
  C   C1914     1.0  0.51140  0.95210  0.15318  1.0000
  C   C1915     1.0  0.53906  0.57589  0.04282  1.0000
  C   C1916     1.0  0.33390  0.59206  0.00647  1.0000
  C   C1917     1.0  0.54143  0.94974  0.19531  1.0000
  C   C1918     1.0  0.52365  0.96103  0.12328  1.0000
  C   C1919     1.0  0.49795  0.89545  0.16053  1.0000
  C   C1920     1.0  0.49905  0.88147  0.17536  1.0000
  C   C1921     1.0  0.51766  0.87627  0.18250  1.0000
  C   C1922     1.0  0.53519  0.88507  0.17486  1.0000
  C   C1923     1.0  0.53430  0.89863  0.15976  1.0000
  C   C1924     1.0  0.49117  0.92094  0.12359  1.0000
  C   C1925     1.0  0.48430  0.90234  0.12195  1.0000
  C   C1926     1.0  0.46537  0.90250  0.11587  1.0000
  C   C1927     1.0  0.45295  0.92118  0.11156  1.0000
  C   C1928     1.0  0.45953  0.93975  0.11322  1.0000
  C   C1929     1.0  0.47854  0.93968  0.11919  1.0000
  H   H1533     1.0  0.55527  0.87284  0.09327  1.0000
  H   H1534     1.0  0.58820  0.88710  0.09223  1.0000
  H   H1535     1.0  0.58901  0.91637  0.10825  1.0000
  H   H1536     1.0  0.55759  0.93110  0.12522  1.0000
  H   H1537     1.0  0.52364  0.88745  0.10999  1.0000
  H   H1538     1.0  0.50548  0.94137  0.16360  1.0000
  C   C1930     1.0  0.50024  0.93855  0.21746  1.0000
  H   H1539     1.0  0.48149  0.78366  0.13672  1.0000
  H   H1540     1.0  0.50841  0.97648  0.16896  1.0000
  H   H1541     1.0  0.52752  0.95712  0.11038  1.0000
  H   H1542     1.0  0.48328  0.89949  0.15546  1.0000
  H   H1543     1.0  0.48558  0.87434  0.18106  1.0000
  H   H1544     1.0  0.51864  0.86500  0.19371  1.0000
  H   H1545     1.0  0.54970  0.88069  0.18025  1.0000
  H   H1546     1.0  0.54818  0.90494  0.15377  1.0000
  H   H1547     1.0  0.49308  0.88761  0.12602  1.0000
  H   H1548     1.0  0.46014  0.88806  0.11492  1.0000
  H   H1549     1.0  0.43791  0.92122  0.10746  1.0000
  C   C1931     1.0  0.55115  0.97123  0.21407  1.0000
  H   H1550     1.0  0.48288  0.95431  0.12082  1.0000
  C   C1932     1.0  0.60338  0.94329  0.14595  1.0000
  C   C1933     1.0  0.35684  0.85647  0.20954  1.0000
  C   C1934     1.0  0.58384  0.90188  0.23099  1.0000
  C   C1935     1.0  0.41415  0.70494  0.98806  1.0000
  H   H1551     1.0  0.56823  0.61938  0.00945  1.0000
  C   C1936     1.0  0.37118  0.65039  0.00701  1.0000
  H   H1552     1.0  0.35630  0.94323  0.21154  1.0000
  H   H1553     1.0  0.58596  0.58118  0.03603  1.0000
  H   H1554     1.0  0.61146  0.78481  0.16501  1.0000
  C   C1937     1.0  0.59759  0.59041  0.03754  1.0000
  H   H1555     1.0  0.38990  0.60826  0.03320  1.0000
  H   H1556     1.0  0.39281  0.87832  0.22645  1.0000
  C   C1938     1.0  0.41974  0.76701  0.16263  1.0000
  H   H1557     1.0  0.63940  0.89171  0.19035  1.0000
  H   H1558     1.0  0.63307  0.92432  0.14695  1.0000
  C   C1939     1.0  0.63614  0.95682  0.14347  1.0000
  C   C1940     1.0  0.65518  0.78532  0.15980  1.0000
  P   P63       1.0  0.34909  0.66109  0.99593  1.0000
  H   H1559     1.0  0.58362  0.97227  0.17692  1.0000
  H   H1560     1.0  0.64928  0.60539  0.07907  1.0000
  H   H1561     1.0  0.64000  0.62213  0.04388  1.0000
  H   H1562     1.0  0.57333  0.79215  0.16821  1.0000
  C   C1941     1.0  0.64001  0.73056  0.12755  1.0000
  C   C1942     1.0  0.64973  0.73894  0.17748  1.0000
  C   C1943     1.0  0.34320  0.71795  0.01218  1.0000
  H   H1563     1.0  0.45393  0.78022  0.08475  1.0000
  S   S277      1.0  0.63130  0.87044  0.14204  1.0000
  H   H1564     1.0  0.47478  0.81119  0.21896  1.0000
  Fe  Fe143     1.0  0.60018  0.88810  0.15050  1.0000
  Fe  Fe144     1.0  0.61347  0.84795  0.13335  1.0000
  H   H1565     1.0  0.55818  0.89696  0.21877  1.0000
  C   C1944     1.0  0.58377  0.67304  0.01067  1.0000
  H   H1566     1.0  0.58826  0.68791  0.01111  1.0000
  H   H1567     1.0  0.63133  0.65337  0.01241  1.0000
  C   C1945     1.0  0.38458  0.92952  0.19796  1.0000
  H   H1568     1.0  0.41440  0.78182  0.18550  1.0000
  H   H1569     1.0  0.37124  0.88644  0.13103  1.0000
  H   H1570     1.0  0.52779  0.55862  0.02605  1.0000
  H   H1571     1.0  0.57853  0.64482  0.05192  1.0000
  S   S278      1.0  0.58847  0.92266  0.14867  1.0000
  C   C1946     1.0  0.62496  0.93992  0.14569  1.0000
  S   S279      1.0  0.62101  0.83373  0.10831  1.0000
  H   H1572     1.0  0.35941  0.68791  0.01913  1.0000
  C   C1947     1.0  0.59312  0.96371  0.14417  1.0000
  H   H1573     1.0  0.35096  0.82815  0.15100  1.0000
  C   C1948     1.0  0.47515  0.85432  0.21762  1.0000
  C   C1949     1.0  0.42579  0.77345  0.17685  1.0000
  H   H1574     1.0  0.57337  0.91062  0.18978  1.0000
  C   C1950     1.0  0.46148  0.75947  0.16812  1.0000
  H   H1575     1.0  0.42058  0.65923  0.00830  1.0000
  C   C1951     1.0  0.56931  0.76170  0.16384  1.0000
  C   C1952     1.0  0.43451  0.75696  0.15105  1.0000
  C   C1953     1.0  0.44662  0.76956  0.17965  1.0000
  H   H1576     1.0  0.42942  0.75252  0.13996  1.0000
  C   C1954     1.0  0.62107  0.96466  0.22223  1.0000
  H   H1577     1.0  0.50342  0.66801  0.13196  1.0000
  C   C1955     1.0  0.36478  0.87624  0.14166  1.0000
  C   C1956     1.0  0.60076  0.91740  0.19841  1.0000
  C   C1957     1.0  0.45553  0.75321  0.15366  1.0000
  H   H1578     1.0  0.47173  0.74701  0.02046  1.0000
  H   H1579     1.0  0.60694  0.92364  0.18570  1.0000
  C   C1958     1.0  0.48267  0.84890  0.23353  1.0000
  H   H1580     1.0  0.49601  0.70510  0.12182  1.0000
  C   C1959     1.0  0.53580  0.75044  0.13265  1.0000
  C   C1960     1.0  0.61179  0.91659  0.21238  1.0000
  H   H1581     1.0  0.35804  0.62378  0.02065  1.0000
  C   C1961     1.0  0.46354  0.76282  0.10793  1.0000
  C   C1962     1.0  0.45535  0.76534  0.09241  1.0000
  C   C1963     1.0  0.49126  0.69962  0.13505  1.0000
  C   C1964     1.0  0.48277  0.74431  0.00924  1.0000
  C   C1965     1.0  0.37157  0.63162  0.01777  1.0000
  C   C1966     1.0  0.38964  0.62278  0.02496  1.0000
  C   C1967     1.0  0.46461  0.74369  0.11826  1.0000
  C   C1968     1.0  0.44845  0.74881  0.08694  1.0000
  C   C1969     1.0  0.48060  0.71344  0.14624  1.0000
  C   C1970     1.0  0.47875  0.68477  0.16896  1.0000
  C   C1971     1.0  0.47441  0.70584  0.16327  1.0000
  H   H1582     1.0  0.44211  0.75080  0.07489  1.0000
  H   H1583     1.0  0.55107  0.74140  0.13106  1.0000
  C   C1972     1.0  0.59359  0.66097  0.99812  1.0000
  C   C1973     1.0  0.33150  0.64651  0.06744  1.0000
  C   C1974     1.0  0.53048  0.57371  0.02824  1.0000
  H   H1584     1.0  0.59955  0.77225  0.99948  1.0000
  H   H1585     1.0  0.41039  0.91215  0.18407  1.0000
  C   C1975     1.0  0.62816  0.61347  0.04173  1.0000
  H   H1586     1.0  0.48038  0.79022  0.19529  1.0000
  P   P64       1.0  0.63575  0.92737  0.20944  1.0000
  H   H1587     1.0  0.47760  0.75677  0.17039  1.0000
  C   C1976     1.0  0.37033  0.83871  0.20539  1.0000
  H   H1588     1.0  0.35892  0.58639  0.02199  1.0000
  C   C1977     1.0  0.63930  0.84164  0.20759  1.0000
  C   C1978     1.0  0.38326  0.89689  0.18813  1.0000
  C   C1979     1.0  0.57931  0.74224  0.16025  1.0000
  C   C1980     1.0  0.51305  0.97200  0.15630  1.0000
  C   C1981     1.0  0.36231  0.89762  0.19498  1.0000
  H   H1589     1.0  0.63891  0.71707  0.10477  1.0000
  C   C1982     1.0  0.49069  0.90731  0.21023  1.0000
  C   C1983     1.0  0.61288  0.60901  0.05524  1.0000
  C   C1984     1.0  0.40700  0.65137  0.01088  1.0000
  H   H1590     1.0  0.48173  0.84620  0.20684  1.0000
  C   C1985     1.0  0.41363  0.85437  0.21456  1.0000
  C   C1986     1.0  0.50201  0.97441  0.23419  1.0000
  C   C1987     1.0  0.62654  0.96623  0.19141  1.0000
  H   H1591     1.0  0.61275  0.58868  0.01226  1.0000
  H   H1592     1.0  0.55964  0.63613  0.10566  1.0000
  P   P65       1.0  0.34841  0.87673  0.19319  1.0000
  H   H1593     1.0  0.56019  0.94893  0.17089  1.0000
  H   H1594     1.0  0.61265  0.82981  0.20207  1.0000
  C   C1988     1.0  0.49550  0.67858  0.14076  1.0000
  H   H1595     1.0  0.44271  0.71739  0.09338  1.0000
  C   C1989     1.0  0.49362  0.79312  0.20077  1.0000
  H   H1596     1.0  0.51615  0.77615  0.18376  1.0000
  H   H1597     1.0  0.46969  0.66108  0.00130  1.0000
  H   H1598     1.0  0.57027  0.73035  0.15901  1.0000
  H   H1599     1.0  0.47407  0.69753  0.99494  1.0000
  C   C1990     1.0  0.48925  0.67114  0.15771  1.0000
  C   C1991     1.0  0.47323  0.94053  0.19924  1.0000
  H   H1600     1.0  0.49239  0.65480  0.16211  1.0000
  H   H1601     1.0  0.63049  0.80926  0.08038  1.0000
  H   H1602     1.0  0.50836  0.75284  0.01950  1.0000
  H   H1603     1.0  0.37604  0.83663  0.19229  1.0000
  C   C1992     1.0  0.56749  0.97637  0.20184  1.0000
  C   C1993     1.0  0.51374  0.78521  0.19432  1.0000
  C   C1994     1.0  0.49049  0.80537  0.21403  1.0000
  C   C1995     1.0  0.32784  0.70044  0.98760  1.0000
  C   C1996     1.0  0.44955  0.88095  0.22920  1.0000
  H   H1604     1.0  0.54786  0.77926  0.13047  1.0000
  C   C1997     1.0  0.60269  0.77289  0.16346  1.0000
  C   C1998     1.0  0.53814  0.95768  0.21105  1.0000
  C   C1999     1.0  0.44880  0.72997  0.09737  1.0000
  C   C2000     1.0  0.58157  0.91019  0.20072  1.0000
  C   C2001     1.0  0.61289  0.75364  0.15934  1.0000
  H   H1605     1.0  0.41469  0.98049  0.14437  1.0000
  C   C2002     1.0  0.58101  0.77700  0.16548  1.0000
  C   C2003     1.0  0.35279  0.91417  0.20387  1.0000
  H   H1606     1.0  0.54888  0.59674  0.05720  1.0000
  H   H1607     1.0  0.51302  0.80012  0.13310  1.0000
  H   H1608     1.0  0.56937  0.85448  0.21607  1.0000
  C   C2004     1.0  0.50316  0.91699  0.21836  1.0000
  C   C2005     1.0  0.49653  0.77411  0.13563  1.0000
  C   C2006     1.0  0.65004  0.72981  0.14206  1.0000
  C   C2007     1.0  0.52518  0.59101  0.01659  1.0000
  H   H1609     1.0  0.58595  0.64430  0.08114  1.0000
  H   H1610     1.0  0.34898  0.72465  0.02187  1.0000
  C   C2008     1.0  0.61190  0.83059  0.22912  1.0000
  C   C2009     1.0  0.51794  0.74086  0.13465  1.0000
  C   C2010     1.0  0.34892  0.84973  0.16926  1.0000
  C   C2011     1.0  0.60310  0.90897  0.22873  1.0000
  H   H1611     1.0  0.43619  0.89271  0.22774  1.0000
  P   P66       1.0  0.64940  0.61070  0.00897  1.0000
  H   H1612     1.0  0.61306  0.61435  0.06743  1.0000
  C   C2012     1.0  0.53071  0.78925  0.20138  1.0000
  H   H1613     1.0  0.54636  0.78326  0.19638  1.0000
  C   C2013     1.0  0.42691  0.83579  0.21723  1.0000
  C   C2014     1.0  0.61292  0.59478  0.02399  1.0000
  H   H1614     1.0  0.54947  0.78120  0.99612  1.0000
  H   H1615     1.0  0.34143  0.87316  0.23032  1.0000
  C   C2015     1.0  0.57307  0.90248  0.21700  1.0000
  C   C2016     1.0  0.49809  0.75262  0.13620  1.0000
  C   C2017     1.0  0.45649  0.72748  0.11309  1.0000
  C   C2018     1.0  0.62041  0.83387  0.21193  1.0000
  C   C2019     1.0  0.52760  0.80165  0.21457  1.0000
  H   H1616     1.0  0.45575  0.71294  0.12115  1.0000
  H   H1617     1.0  0.44959  0.95422  0.11040  1.0000
  C   C2020     1.0  0.41661  0.96261  0.22615  1.0000
  P   P67       1.0  0.51703  0.95122  0.22707  1.0000
  C   C2021     1.0  0.47640  0.73730  0.99538  1.0000
  C   C2022     1.0  0.43031  0.82736  0.23395  1.0000
  C   C2023     1.0  0.47574  0.91904  0.20063  1.0000
  H   H1618     1.0  0.51521  0.90759  0.22512  1.0000
  H   H1619     1.0  0.34261  0.83933  0.17977  1.0000
  H   H1620     1.0  0.49294  0.89070  0.21119  1.0000
  C   C2024     1.0  0.60103  0.73816  0.15809  1.0000
  H   H1621     1.0  0.39308  0.94202  0.19871  1.0000
  C   C2025     1.0  0.55804  0.85124  0.22707  1.0000
  C   C2026     1.0  0.37741  0.82369  0.21829  1.0000
  H   H1622     1.0  0.46041  0.73459  0.99612  1.0000
  H   H1623     1.0  0.62016  0.73020  0.18959  1.0000
  H   H1624     1.0  0.51983  0.72434  0.13484  1.0000
  C   C2027     1.0  0.53996  0.84371  0.22503  1.0000
  H   H1625     1.0  0.63026  0.95882  0.17989  1.0000
  C   C2028     1.0  0.36383  0.93020  0.20512  1.0000
  H   H1626     1.0  0.45217  0.87362  0.20347  1.0000
  C   C2029     1.0  0.35427  0.58492  0.00975  1.0000
  H   H1627     1.0  0.42095  0.62631  0.02781  1.0000
  C   C2030     1.0  0.45853  0.87017  0.21555  1.0000
  H   H1628     1.0  0.62692  0.74225  0.12518  1.0000
  C   C2031     1.0  0.40346  0.86421  0.22857  1.0000
  C   C2032     1.0  0.34207  0.68826  0.99779  1.0000
  C   C2033     1.0  0.42147  0.96459  0.14733  1.0000
  C   C2034     1.0  0.48533  0.95030  0.20770  1.0000
  H   H1629     1.0  0.53742  0.84150  0.21237  1.0000
  H   H1630     1.0  0.60852  0.72301  0.15534  1.0000
  H   H1631     1.0  0.47377  0.67897  0.18208  1.0000
  C   C2035     1.0  0.51441  0.78357  0.13369  1.0000
  C   C2036     1.0  0.51764  0.74348  0.99446  1.0000
  C   C2037     1.0  0.36840  0.57537  0.99749  1.0000
  C   C2038     1.0  0.35107  0.85920  0.22680  1.0000
  C   C2039     1.0  0.32601  0.64982  0.00470  1.0000
  C   C2040     1.0  0.65344  0.77884  0.13096  1.0000
  C   C2041     1.0  0.39459  0.71698  0.98833  1.0000
  S   S280      1.0  0.65065  0.84493  0.18615  1.0000
  C   C2042     1.0  0.60422  0.98060  0.14249  1.0000
  P   P68       1.0  0.64095  0.74846  0.15695  1.0000
  H   H1632     1.0  0.62073  0.95590  0.23483  1.0000
  H   H1633     1.0  0.38934  0.67396  0.99450  1.0000
  H   H1634     1.0  0.40841  0.94944  0.22749  1.0000
  C   C2043     1.0  0.32973  0.73016  0.00150  1.0000
  H   H1635     1.0  0.44043  0.81291  0.23612  1.0000
  H   H1636     1.0  0.53370  0.74560  0.99420  1.0000
  H   H1637     1.0  0.64547  0.68319  0.01905  1.0000
  C   C2044     1.0  0.63610  0.73096  0.19114  1.0000
  C   C2045     1.0  0.64753  0.65167  0.01422  1.0000
  C   C2046     1.0  0.32721  0.62663  0.06596  1.0000
  C   C2047     1.0  0.62584  0.97723  0.14195  1.0000
  C   C2048     1.0  0.64941  0.84648  0.22050  1.0000
  C   C2049     1.0  0.59007  0.80488  0.99308  1.0000
  H   H1638     1.0  0.59771  0.82384  0.23244  1.0000
  C   C2050     1.0  0.64681  0.71627  0.11595  1.0000
  H   H1639     1.0  0.56911  0.54631  0.00043  1.0000
  H   H1640     1.0  0.64744  0.88663  0.22711  1.0000
  C   C2051     1.0  0.65032  0.90186  0.18399  1.0000
  C   C2052     1.0  0.37137  0.82642  0.23542  1.0000
  C   C2053     1.0  0.65540  0.66856  0.01817  1.0000
  H   H1641     1.0  0.57096  0.72333  0.99121  1.0000
  H   H1642     1.0  0.64953  0.76974  0.12199  1.0000
  C   C2054     1.0  0.65184  0.92019  0.19035  1.0000
  C   C2055     1.0  0.65132  0.91844  0.22665  1.0000
  C   C2056     1.0  0.65090  0.77239  0.14861  1.0000
  H   H1643     1.0  0.65287  0.95406  0.14288  1.0000
  H   H1644     1.0  0.32522  0.74638  0.00282  1.0000
  H   H1645     1.0  0.33687  0.91478  0.20979  1.0000
  H   H1646     1.0  0.65252  0.78128  0.17350  1.0000
  C   C2057     1.0  0.65466  0.89733  0.23253  1.0000
  C   C2058     1.0  0.57233  0.57817  0.99174  1.0000
  C   C2059     1.0  0.56555  0.55941  0.99093  1.0000
  C   C2060     1.0  0.58753  0.72341  0.98815  1.0000
  H   H1647     1.0  0.32288  0.59909  0.01615  1.0000
  C   C2061     1.0  0.59840  0.78505  0.98931  1.0000
  C   C2062     1.0  0.64022  0.61495  0.98813  1.0000
  C   C2063     1.0  0.47378  0.66756  0.98821  1.0000
  H   H1648     1.0  0.59562  0.63218  0.98816  1.0000
  H   H1649     1.0  0.63478  0.58340  0.98868  1.0000
  Fe  Fe145     1.0  0.58508  0.87608  0.30882  1.0000
  S   S281      1.0  0.58996  0.88211  0.28042  1.0000
  S   S282      1.0  0.55183  0.88371  0.32120  1.0000
  Fe  Fe146     1.0  0.61569  0.89865  0.28410  1.0000
  S   S283      1.0  0.61649  0.92944  0.26818  1.0000
  Fe  Fe147     1.0  0.61367  0.85391  0.28148  1.0000
  S   S284      1.0  0.60951  0.89478  0.31272  1.0000
  S   S285      1.0  0.60717  0.84630  0.30998  1.0000
  Fe  Fe148     1.0  0.44236  0.85568  0.30761  1.0000
  S   S286      1.0  0.42668  0.88340  0.29228  1.0000
  S   S287      1.0  0.47702  0.84555  0.30123  1.0000
  Fe  Fe149     1.0  0.40075  0.84366  0.32627  1.0000
  S   S288      1.0  0.38255  0.86986  0.31158  1.0000
  S   S289      1.0  0.38449  0.82448  0.34871  1.0000
  Fe  Fe150     1.0  0.40467  0.86238  0.28842  1.0000
  S   S290      1.0  0.39268  0.86767  0.26264  1.0000
  Fe  Fe151     1.0  0.40601  0.88835  0.31667  1.0000
  S   S291      1.0  0.39179  0.91856  0.32573  1.0000
  S   S292      1.0  0.42118  0.83406  0.30258  1.0000
  S   S293      1.0  0.42358  0.86260  0.33259  1.0000
  C   C2064     1.0  0.35713  0.82942  0.35448  1.0000
  C   C2065     1.0  0.34401  0.84108  0.34320  1.0000
  H   H1650     1.0  0.34061  0.94979  0.41144  1.0000
  C   C2066     1.0  0.34831  0.82118  0.37066  1.0000
  H   H1651     1.0  0.35044  0.84734  0.33067  1.0000
  H   H1652     1.0  0.35828  0.81210  0.37949  1.0000
  H   H1653     1.0  0.38751  0.96013  0.33259  1.0000
  C   C2067     1.0  0.52588  0.83823  0.23932  1.0000
  C   C2068     1.0  0.40680  0.85571  0.24531  1.0000
  C   C2069     1.0  0.33368  0.96523  0.36368  1.0000
  C   C2070     1.0  0.34162  0.83828  0.45020  1.0000
  H   H1654     1.0  0.41678  0.88216  0.45768  1.0000
  P   P69       1.0  0.53355  0.96563  0.33430  1.0000
  H   H1655     1.0  0.55198  0.72083  0.37927  1.0000
  H   H1656     1.0  0.42292  0.83064  0.26081  1.0000
  C   C2071     1.0  0.41031  0.93363  0.32850  1.0000
  C   C2072     1.0  0.40384  0.95409  0.33146  1.0000
  C   C2073     1.0  0.64450  0.93496  0.28873  1.0000
  H   H1657     1.0  0.43353  0.92188  0.26067  1.0000
  C   C2074     1.0  0.44607  0.93842  0.32864  1.0000
  C   C2075     1.0  0.43141  0.92563  0.32738  1.0000
  C   C2076     1.0  0.34181  0.89924  0.39611  1.0000
  H   H1658     1.0  0.52038  0.94522  0.30789  1.0000
  H   H1659     1.0  0.46243  0.93243  0.32727  1.0000
  H   H1660     1.0  0.43645  0.90976  0.32519  1.0000
  C   C2077     1.0  0.47403  0.86031  0.24702  1.0000
  H   H1661     1.0  0.61103  0.90869  0.23977  1.0000
  P   P70       1.0  0.34498  0.87471  0.42780  1.0000
  H   H1662     1.0  0.55679  0.94613  0.24218  1.0000
  C   C2078     1.0  0.53118  0.87421  0.31421  1.0000
  C   C2079     1.0  0.53475  0.85651  0.30599  1.0000
  C   C2080     1.0  0.51791  0.84831  0.30185  1.0000
  C   C2081     1.0  0.49740  0.85767  0.30575  1.0000
  C   C2082     1.0  0.49382  0.87591  0.31331  1.0000
  C   C2083     1.0  0.51069  0.88410  0.31755  1.0000
  H   H1663     1.0  0.55044  0.84880  0.30325  1.0000
  H   H1664     1.0  0.52070  0.83436  0.29588  1.0000
  H   H1665     1.0  0.47809  0.88343  0.31621  1.0000
  H   H1666     1.0  0.50786  0.89808  0.32350  1.0000
  H   H1667     1.0  0.61796  0.97293  0.26350  1.0000
  H   H1668     1.0  0.35133  0.87982  0.46241  1.0000
  C   C2084     1.0  0.51632  0.83569  0.34875  1.0000
  C   C2085     1.0  0.63087  0.94432  0.27702  1.0000
  C   C2086     1.0  0.62804  0.96577  0.27289  1.0000
  C   C2087     1.0  0.52089  0.91085  0.27114  1.0000
  C   C2088     1.0  0.37302  0.97446  0.44015  1.0000
  C   C2089     1.0  0.37926  0.95573  0.41539  1.0000
  C   C2090     1.0  0.54022  0.91268  0.27561  1.0000
  C   C2091     1.0  0.33904  0.95379  0.39805  1.0000
  C   C2092     1.0  0.55291  0.92560  0.26511  1.0000
  H   H1669     1.0  0.52990  0.80072  0.31355  1.0000
  C   C2093     1.0  0.45800  0.92138  0.27603  1.0000
  C   C2094     1.0  0.42373  0.89622  0.37786  1.0000
  H   H1670     1.0  0.58239  0.80111  0.27495  1.0000
  C   C2095     1.0  0.52926  0.84211  0.25546  1.0000
  C   C2096     1.0  0.35902  0.93693  0.25163  1.0000
  H   H1671     1.0  0.54396  0.97248  0.36727  1.0000
  H   H1672     1.0  0.41976  0.87918  0.42675  1.0000
  C   C2097     1.0  0.49592  0.81093  0.25635  1.0000
  C   C2098     1.0  0.48019  0.83359  0.34720  1.0000
  C   C2099     1.0  0.40479  0.87935  0.43449  1.0000
  P   P71       1.0  0.40801  0.96233  0.26171  1.0000
  C   C2100     1.0  0.51401  0.92232  0.25634  1.0000
  H   H1673     1.0  0.38087  0.92806  0.36650  1.0000
  C   C2101     1.0  0.39376  0.92208  0.37367  1.0000
  C   C2102     1.0  0.47520  0.81187  0.26395  1.0000
  C   C2103     1.0  0.47010  0.79934  0.27916  1.0000
  C   C2104     1.0  0.48553  0.78551  0.28674  1.0000
  C   C2105     1.0  0.50608  0.78399  0.27897  1.0000
  C   C2106     1.0  0.51126  0.79659  0.26377  1.0000
  H   H1674     1.0  0.47351  0.80436  0.34238  1.0000
  C   C2107     1.0  0.51557  0.96888  0.28678  1.0000
  C   C2108     1.0  0.55475  0.80056  0.29308  1.0000
  C   C2109     1.0  0.35629  0.95746  0.38601  1.0000
  Fe  Fe152     1.0  0.63233  0.86558  0.31140  1.0000
  C   C2110     1.0  0.39800  0.93217  0.38682  1.0000
  C   C2111     1.0  0.37371  0.91487  0.27507  1.0000
  C   C2112     1.0  0.35343  0.96332  0.36880  1.0000
  H   H1675     1.0  0.55029  0.85205  0.27003  1.0000
  H   H1676     1.0  0.51807  0.83901  0.26652  1.0000
  C   C2113     1.0  0.43964  0.96127  0.28183  1.0000
  H   H1677     1.0  0.47960  0.85647  0.25941  1.0000
  H   H1678     1.0  0.45004  0.88407  0.25558  1.0000
  H   H1679     1.0  0.43371  0.88246  0.37421  1.0000
  C   C2114     1.0  0.40311  0.88104  0.45190  1.0000
  H   H1680     1.0  0.39956  0.92434  0.28385  1.0000
  C   C2115     1.0  0.56498  0.74063  0.35790  1.0000
  H   H1681     1.0  0.45415  0.80053  0.28516  1.0000
  H   H1682     1.0  0.48150  0.77596  0.29860  1.0000
  H   H1683     1.0  0.51799  0.77308  0.28474  1.0000
  C   C2116     1.0  0.38881  0.92769  0.27439  1.0000
  C   C2117     1.0  0.34571  0.90322  0.37832  1.0000
  C   C2118     1.0  0.33881  0.84870  0.43384  1.0000
  C   C2119     1.0  0.38965  0.94481  0.26182  1.0000
  C   C2120     1.0  0.38382  0.88112  0.46190  1.0000
  C   C2121     1.0  0.41441  0.97580  0.37483  1.0000
  S   S294      1.0  0.61071  0.83146  0.26347  1.0000
  H   H1684     1.0  0.57497  0.76365  0.33800  1.0000
  C   C2122     1.0  0.33023  0.83899  0.42253  1.0000
  H   H1685     1.0  0.48039  0.92523  0.29220  1.0000
  H   H1686     1.0  0.56805  0.92682  0.26852  1.0000
  H   H1687     1.0  0.37913  0.92278  0.42122  1.0000
  C   C2123     1.0  0.37777  0.93726  0.42637  1.0000
  H   H1688     1.0  0.52493  0.78454  0.37560  1.0000
  C   C2124     1.0  0.60417  0.96661  0.32317  1.0000
  H   H1689     1.0  0.64684  0.91835  0.29184  1.0000
  C   C2125     1.0  0.56129  0.96549  0.33069  1.0000
  C   C2126     1.0  0.44009  0.93043  0.26866  1.0000
  H   H1690     1.0  0.36850  0.95617  0.46465  1.0000
  H   H1691     1.0  0.32458  0.92046  0.34242  1.0000
  H   H1692     1.0  0.60509  0.93977  0.31069  1.0000
  H   H1693     1.0  0.46425  0.84096  0.34707  1.0000
  H   H1694     1.0  0.41931  0.93201  0.40519  1.0000
  H   H1695     1.0  0.42396  0.96090  0.37472  1.0000
  C   C2127     1.0  0.42823  0.90627  0.39084  1.0000
  C   C2128     1.0  0.52036  0.96145  0.30330  1.0000
  C   C2129     1.0  0.37160  0.95602  0.45095  1.0000
  H   H1696     1.0  0.37752  0.81517  0.24539  1.0000
  C   C2130     1.0  0.33454  0.90439  0.32054  1.0000
  H   H1697     1.0  0.37261  0.92323  0.45245  1.0000
  C   C2131     1.0  0.58837  0.83967  0.36869  1.0000
  C   C2132     1.0  0.35824  0.84418  0.23967  1.0000
  H   H1698     1.0  0.51172  0.95842  0.27888  1.0000
  H   H1699     1.0  0.34008  0.88720  0.29898  1.0000
  C   C2133     1.0  0.59535  0.95113  0.31787  1.0000
  C   C2134     1.0  0.52178  0.81491  0.34602  1.0000
  H   H1700     1.0  0.38906  0.87605  0.41359  1.0000
  C   C2135     1.0  0.34964  0.88014  0.40471  1.0000
  H   H1701     1.0  0.57730  0.89600  0.24365  1.0000
  S   S295      1.0  0.64017  0.87096  0.28271  1.0000
  C   C2136     1.0  0.35766  0.88829  0.36896  1.0000
  H   H1702     1.0  0.49874  0.92108  0.25336  1.0000
  C   C2137     1.0  0.43966  0.95934  0.33033  1.0000
  H   H1703     1.0  0.34740  0.84544  0.45951  1.0000
  C   C2138     1.0  0.48825  0.97304  0.24935  1.0000
  H   H1704     1.0  0.36063  0.89130  0.35515  1.0000
  C   C2139     1.0  0.49558  0.84489  0.34947  1.0000
  C   C2140     1.0  0.41543  0.92418  0.39531  1.0000
  C   C2141     1.0  0.42045  0.83738  0.24795  1.0000
  C   C2142     1.0  0.45784  0.95239  0.28877  1.0000
  H   H1705     1.0  0.36820  0.85047  0.40142  1.0000
  H   H1706     1.0  0.40325  0.89656  0.35901  1.0000
  P   P72       1.0  0.38180  0.95554  0.39252  1.0000
  C   C2143     1.0  0.57596  0.80093  0.28826  1.0000
  C   C2144     1.0  0.58062  0.80186  0.31769  1.0000
  H   H1707     1.0  0.56470  0.84156  0.33326  1.0000
  H   H1708     1.0  0.52722  0.79526  0.25783  1.0000
  H   H1709     1.0  0.51125  0.90055  0.27925  1.0000
  C   C2145     1.0  0.40653  0.90413  0.36931  1.0000
  C   C2146     1.0  0.46678  0.93231  0.28619  1.0000
  H   H1710     1.0  0.49154  0.86106  0.35108  1.0000
  H   H1711     1.0  0.33214  0.91089  0.40292  1.0000
  C   C2147     1.0  0.36619  0.87962  0.45447  1.0000
  C   C2148     1.0  0.38725  0.87751  0.42707  1.0000
  C   C2149     1.0  0.49895  0.91915  0.35170  1.0000
  C   C2150     1.0  0.51341  0.90315  0.35819  1.0000
  C   C2151     1.0  0.53419  0.90596  0.35720  1.0000
  C   C2152     1.0  0.54058  0.92471  0.34964  1.0000
  C   C2153     1.0  0.52626  0.94063  0.34263  1.0000
  C   C2154     1.0  0.50537  0.93779  0.34392  1.0000
  H   H1712     1.0  0.32716  0.84677  0.41007  1.0000
  C   C2155     1.0  0.54732  0.84973  0.25747  1.0000
  H   H1713     1.0  0.52794  0.84506  0.34996  1.0000
  H   H1714     1.0  0.54546  0.90402  0.28717  1.0000
  H   H1715     1.0  0.48628  0.95829  0.25669  1.0000
  C   C2156     1.0  0.37398  0.93744  0.44406  1.0000
  C   C2157     1.0  0.57397  0.95056  0.32156  1.0000
  H   H1716     1.0  0.36640  0.96677  0.35937  1.0000
  C   C2158     1.0  0.48545  0.81294  0.34449  1.0000
  C   C2159     1.0  0.43051  0.95027  0.27185  1.0000
  C   C2160     1.0  0.41850  0.96704  0.33212  1.0000
  H   H1717     1.0  0.46481  0.96098  0.29645  1.0000
  H   H1718     1.0  0.56641  0.79563  0.37753  1.0000
  C   C2161     1.0  0.36185  0.86531  0.39517  1.0000
  H   H1719     1.0  0.37513  0.85784  0.37013  1.0000
  C   C2162     1.0  0.36779  0.87749  0.43704  1.0000
  H   H1720     1.0  0.48280  0.91709  0.35248  1.0000
  H   H1721     1.0  0.50861  0.88850  0.36381  1.0000
  H   H1722     1.0  0.54549  0.89346  0.36196  1.0000
  H   H1723     1.0  0.55667  0.92663  0.34930  1.0000
  H   H1724     1.0  0.49401  0.95013  0.33905  1.0000
  P   P73       1.0  0.54856  0.80271  0.34474  1.0000
  H   H1725     1.0  0.56733  0.93862  0.31713  1.0000
  C   C2163     1.0  0.36584  0.86942  0.37741  1.0000
  H   H1726     1.0  0.44181  0.90035  0.39725  1.0000
  C   C2164     1.0  0.37670  0.97437  0.42246  1.0000
  H   H1727     1.0  0.50993  0.78761  0.34170  1.0000
  C   C2165     1.0  0.50612  0.80357  0.34401  1.0000
  H   H1728     1.0  0.58811  0.81540  0.38980  1.0000
  H   H1729     1.0  0.59097  0.80237  0.32699  1.0000
  C   C2166     1.0  0.54631  0.93670  0.25010  1.0000
  C   C2167     1.0  0.63783  0.97801  0.28128  1.0000
  H   H1730     1.0  0.54474  0.80050  0.28347  1.0000
  H   H1731     1.0  0.33146  0.97039  0.35047  1.0000
  C   C2168     1.0  0.32662  0.82431  0.37540  1.0000
  C   C2169     1.0  0.56418  0.76071  0.34936  1.0000
  C   C2170     1.0  0.38817  0.97791  0.29122  1.0000
  H   H1732     1.0  0.46293  0.82230  0.25827  1.0000
  C   C2171     1.0  0.56185  0.85396  0.24333  1.0000
  C   C2172     1.0  0.53691  0.75227  0.37897  1.0000
  H   H1733     1.0  0.59812  0.84823  0.37402  1.0000
  H   H1734     1.0  0.34132  0.91837  0.43147  1.0000
  H   H1735     1.0  0.35086  0.90481  0.32105  1.0000
  H   H1736     1.0  0.35435  0.84668  0.25296  1.0000
  H   H1737     1.0  0.57623  0.72834  0.35306  1.0000
  H   H1738     1.0  0.33923  0.91780  0.37176  1.0000
  H   H1739     1.0  0.52637  0.74899  0.39046  1.0000
  H   H1740     1.0  0.60535  0.80195  0.29672  1.0000
  C   C2173     1.0  0.39344  0.97768  0.38189  1.0000
  C   C2174     1.0  0.54963  0.77670  0.35555  1.0000
  C   C2175     1.0  0.53609  0.77237  0.37048  1.0000
  H   H1741     1.0  0.46493  0.90577  0.27408  1.0000
  C   C2176     1.0  0.56377  0.81722  0.35446  1.0000
  H   H1742     1.0  0.37350  0.90139  0.28447  1.0000
  C   C2177     1.0  0.56951  0.83581  0.34570  1.0000
  H   H1743     1.0  0.57622  0.85906  0.24502  1.0000
  C   C2178     1.0  0.54641  0.80084  0.31021  1.0000
  C   C2179     1.0  0.65123  0.96867  0.29317  1.0000
  C   C2180     1.0  0.58274  0.82116  0.37754  1.0000
  C   C2181     1.0  0.45738  0.87610  0.24489  1.0000
  H   H1744     1.0  0.62071  0.96708  0.32040  1.0000
  C   C2182     1.0  0.55133  0.73640  0.37268  1.0000
  H   H1745     1.0  0.39340  0.96289  0.29782  1.0000
  C   C2183     1.0  0.58163  0.84705  0.35282  1.0000
  C   C2184     1.0  0.64304  0.97966  0.39800  1.0000
  C   C2185     1.0  0.57043  0.80997  0.37050  1.0000
  C   C2186     1.0  0.55920  0.80203  0.32259  1.0000
  C   C2187     1.0  0.52552  0.97490  0.31358  1.0000
  C   C2188     1.0  0.58891  0.80142  0.30058  1.0000
  C   C2189     1.0  0.64039  0.84409  0.23765  1.0000
  H   H1746     1.0  0.58599  0.86139  0.34589  1.0000
  C   C2190     1.0  0.52667  0.93537  0.24562  1.0000
  H   H1747     1.0  0.38250  0.88228  0.47544  1.0000
  C   C2191     1.0  0.33632  0.81843  0.45498  1.0000
  H   H1748     1.0  0.65164  0.88861  0.34585  1.0000
  S   S296      1.0  0.45828  0.97591  0.32905  1.0000
  C   C2192     1.0  0.62166  0.83603  0.24200  1.0000
  H   H1749     1.0  0.33787  0.81074  0.46779  1.0000
  H   H1750     1.0  0.62919  0.97256  0.39846  1.0000
  C   C2193     1.0  0.37413  0.94982  0.25088  1.0000
  C   C2194     1.0  0.32846  0.89462  0.30806  1.0000
  H   H1751     1.0  0.34757  0.90902  0.26405  1.0000
  C   C2195     1.0  0.35902  0.91926  0.26356  1.0000
  H   H1752     1.0  0.34717  0.94071  0.24312  1.0000
  H   H1753     1.0  0.37359  0.96380  0.24192  1.0000
  H   H1754     1.0  0.64821  0.84782  0.24757  1.0000
  C   C2196     1.0  0.32655  0.91337  0.43646  1.0000
  H   H1755     1.0  0.43286  0.97680  0.28418  1.0000
  C   C2197     1.0  0.41868  0.97197  0.24044  1.0000
  C   C2198     1.0  0.32810  0.80882  0.44355  1.0000
  C   C2199     1.0  0.65494  0.94714  0.29660  1.0000
  C   C2200     1.0  0.32505  0.81909  0.42736  1.0000
  C   C2201     1.0  0.32382  0.89274  0.43656  1.0000
  H   H1756     1.0  0.32336  0.79371  0.44746  1.0000
  P   P74       1.0  0.50301  0.82742  0.23699  1.0000
  Fe  Fe153     1.0  0.41130  0.88475  0.65035  1.0000
  S   S297      1.0  0.42761  0.86430  0.63115  1.0000
  S   S298      1.0  0.40524  0.91856  0.64130  1.0000
  Fe  Fe154     1.0  0.40418  0.84905  0.67753  1.0000
  S   S299      1.0  0.41932  0.82546  0.66028  1.0000
  S   S300      1.0  0.39096  0.84144  0.70512  1.0000
  Fe  Fe155     1.0  0.44356  0.84667  0.65295  1.0000
  S   S301      1.0  0.47749  0.83305  0.65194  1.0000
  Fe  Fe156     1.0  0.40173  0.84516  0.63991  1.0000
  S   S302      1.0  0.38924  0.83381  0.61814  1.0000
  S   S303      1.0  0.42947  0.86898  0.67144  1.0000
  S   S304      1.0  0.38444  0.86694  0.65785  1.0000
  Fe  Fe157     1.0  0.62089  0.86191  0.64471  1.0000
  Fe  Fe158     1.0  0.57618  0.88272  0.65322  1.0000
  S   S305      1.0  0.58331  0.89240  0.67723  1.0000
  S   S306      1.0  0.54413  0.89433  0.64531  1.0000
  Fe  Fe159     1.0  0.61294  0.90045  0.66215  1.0000
  S   S307      1.0  0.62515  0.92879  0.66670  1.0000
  Fe  Fe160     1.0  0.60082  0.86071  0.68180  1.0000
  S   S308      1.0  0.59306  0.84523  0.70863  1.0000
  S   S309      1.0  0.60439  0.89375  0.63755  1.0000
  S   S310      1.0  0.59172  0.85015  0.65860  1.0000
  C   C2202     1.0  0.60557  0.85196  0.72475  1.0000
  C   C2203     1.0  0.62288  0.86240  0.72072  1.0000
  C   C2204     1.0  0.54841  0.79779  0.69534  1.0000
  C   C2205     1.0  0.61179  0.87132  0.58762  1.0000
  H   H1757     1.0  0.62877  0.86659  0.70752  1.0000
  H   H1758     1.0  0.33798  0.95682  0.55593  1.0000
  C   C2206     1.0  0.62098  0.95061  0.65163  1.0000
  C   C2207     1.0  0.61385  0.94940  0.63616  1.0000
  C   C2208     1.0  0.51982  0.79547  0.72833  1.0000
  H   H1759     1.0  0.57959  0.90169  0.71657  1.0000
  C   C2209     1.0  0.53740  0.94739  0.59525  1.0000
  H   H1760     1.0  0.61070  0.93489  0.63335  1.0000
  C   C2210     1.0  0.35938  0.89253  0.58791  1.0000
  C   C2211     1.0  0.36333  0.83731  0.61291  1.0000
  C   C2212     1.0  0.36009  0.83551  0.59614  1.0000
  C   C2213     1.0  0.40425  0.95698  0.64943  1.0000
  H   H1761     1.0  0.44459  0.89456  0.69892  1.0000
  C   C2214     1.0  0.34604  0.84083  0.62510  1.0000
  H   H1762     1.0  0.37333  0.83265  0.58663  1.0000
  H   H1763     1.0  0.37286  0.96042  0.68979  1.0000
  H   H1764     1.0  0.34826  0.84200  0.63807  1.0000
  C   C2215     1.0  0.40695  0.84269  0.72084  1.0000
  H   H1765     1.0  0.53947  0.91892  0.67307  1.0000
  C   C2216     1.0  0.42857  0.84056  0.71704  1.0000
  H   H1766     1.0  0.59012  0.91366  0.60236  1.0000
  H   H1767     1.0  0.43566  0.83830  0.70425  1.0000
  C   C2217     1.0  0.49582  0.85014  0.65065  1.0000
  C   C2218     1.0  0.48985  0.87146  0.64808  1.0000
  C   C2219     1.0  0.50484  0.88483  0.64627  1.0000
  C   C2220     1.0  0.52573  0.87702  0.64783  1.0000
  C   C2221     1.0  0.53163  0.85568  0.65077  1.0000
  C   C2222     1.0  0.51676  0.84227  0.65192  1.0000
  H   H1768     1.0  0.47370  0.87760  0.64734  1.0000
  H   H1769     1.0  0.50019  0.90122  0.64358  1.0000
  H   H1770     1.0  0.54768  0.84946  0.65186  1.0000
  H   H1771     1.0  0.52153  0.82579  0.65383  1.0000
  C   C2223     1.0  0.41066  0.93602  0.65401  1.0000
  C   C2224     1.0  0.42121  0.92960  0.66834  1.0000
  H   H1772     1.0  0.39600  0.96193  0.63844  1.0000
  H   H1773     1.0  0.35030  0.88888  0.55646  1.0000
  H   H1774     1.0  0.42628  0.91341  0.67186  1.0000
  C   C2225     1.0  0.61114  0.96703  0.62415  1.0000
  H   H1775     1.0  0.40614  0.79364  0.72682  1.0000
  S   S311      1.0  0.63136  0.86937  0.66847  1.0000
  H   H1776     1.0  0.40430  0.94819  0.71710  1.0000
  H   H1777     1.0  0.60450  0.93825  0.57475  1.0000
  C   C2226     1.0  0.48759  0.92461  0.68601  1.0000
  C   C2227     1.0  0.42535  0.94432  0.67800  1.0000
  P   P75       1.0  0.37836  0.91692  0.73375  1.0000
  H   H1778     1.0  0.52506  0.95575  0.71671  1.0000
  C   C2228     1.0  0.61809  0.90184  0.56004  1.0000
  C   C2229     1.0  0.65403  0.95525  0.71521  1.0000
  H   H1779     1.0  0.52270  0.95679  0.59309  1.0000
  H   H1780     1.0  0.40768  0.90929  0.70293  1.0000
  C   C2230     1.0  0.50542  0.76446  0.70623  1.0000
  C   C2231     1.0  0.40562  0.90665  0.73050  1.0000
  C   C2232     1.0  0.55652  0.95162  0.64928  1.0000
  C   C2233     1.0  0.61462  0.94976  0.57394  1.0000
  C   C2234     1.0  0.62570  0.88513  0.58795  1.0000
  H   H1781     1.0  0.63436  0.88317  0.59874  1.0000
  C   C2235     1.0  0.36528  0.91368  0.71608  1.0000
  C   C2236     1.0  0.49367  0.75170  0.70033  1.0000
  C   C2237     1.0  0.50618  0.92314  0.67503  1.0000
  H   H1782     1.0  0.56139  0.80758  0.71587  1.0000
  H   H1783     1.0  0.47635  0.93474  0.63755  1.0000
  C   C2238     1.0  0.33849  0.89775  0.54924  1.0000
  C   C2239     1.0  0.33477  0.94940  0.64015  1.0000
  C   C2240     1.0  0.59581  0.92796  0.70866  1.0000
  C   C2241     1.0  0.33985  0.83701  0.59162  1.0000
  C   C2242     1.0  0.50746  0.78417  0.69745  1.0000
  C   C2243     1.0  0.51102  0.82783  0.70016  1.0000
  C   C2244     1.0  0.48964  0.83324  0.69913  1.0000
  C   C2245     1.0  0.48137  0.85372  0.69451  1.0000
  C   C2246     1.0  0.49427  0.86899  0.69113  1.0000
  C   C2247     1.0  0.51543  0.86392  0.69263  1.0000
  C   C2248     1.0  0.52382  0.84341  0.69715  1.0000
  C   C2249     1.0  0.49827  0.79052  0.68238  1.0000
  C   C2250     1.0  0.48645  0.77782  0.67656  1.0000
  C   C2251     1.0  0.48407  0.75843  0.68556  1.0000
  C   C2252     1.0  0.61684  0.93558  0.72904  1.0000
  C   C2253     1.0  0.53350  0.94935  0.72738  1.0000
  H   H1784     1.0  0.33710  0.97249  0.60278  1.0000
  H   H1785     1.0  0.34550  0.94328  0.71577  1.0000
  C   C2254     1.0  0.60575  0.97033  0.57474  1.0000
  C   C2255     1.0  0.58943  0.79409  0.67903  1.0000
  C   C2256     1.0  0.57345  0.79014  0.67071  1.0000
  C   C2257     1.0  0.55302  0.79197  0.67881  1.0000
  C   C2258     1.0  0.48206  0.97639  0.68546  1.0000
  H   H1786     1.0  0.62074  0.91333  0.54912  1.0000
  H   H1787     1.0  0.57706  0.94196  0.61956  1.0000
  H   H1788     1.0  0.59071  0.86160  0.57314  1.0000
  C   C2259     1.0  0.60936  0.94003  0.71306  1.0000
  H   H1789     1.0  0.33544  0.90509  0.67957  1.0000
  C   C2260     1.0  0.54834  0.95084  0.60820  1.0000
  H   H1790     1.0  0.48789  0.88460  0.68690  1.0000
  H   H1791     1.0  0.52550  0.87575  0.68976  1.0000
  H   H1792     1.0  0.54032  0.83987  0.69798  1.0000
  H   H1793     1.0  0.50012  0.80537  0.67514  1.0000
  H   H1794     1.0  0.47910  0.78316  0.66506  1.0000
  H   H1795     1.0  0.47486  0.74862  0.68104  1.0000
  H   H1796     1.0  0.63030  0.97059  0.66726  1.0000
  C   C2261     1.0  0.33900  0.92598  0.69696  1.0000
  P   P76       1.0  0.63602  0.94980  0.73411  1.0000
  C   C2262     1.0  0.40806  0.97157  0.65919  1.0000
  H   H1797     1.0  0.60523  0.79298  0.67268  1.0000
  H   H1798     1.0  0.57689  0.78589  0.65789  1.0000
  H   H1799     1.0  0.54088  0.78915  0.67198  1.0000
  C   C2263     1.0  0.41888  0.96536  0.67331  1.0000
  C   C2264     1.0  0.41959  0.78814  0.73355  1.0000
  H   H1800     1.0  0.60975  0.85924  0.59822  1.0000
  S   S312      1.0  0.64054  0.84723  0.62261  1.0000
  H   H1801     1.0  0.65433  0.95245  0.62364  1.0000
  H   H1802     1.0  0.47291  0.92619  0.68092  1.0000
  C   C2265     1.0  0.57342  0.96859  0.66722  1.0000
  C   C2266     1.0  0.52557  0.92022  0.69901  1.0000
  C   C2267     1.0  0.36357  0.97222  0.68211  1.0000
  H   H1803     1.0  0.45338  0.96544  0.64725  1.0000
  C   C2268     1.0  0.48802  0.92324  0.70362  1.0000
  H   H1804     1.0  0.57274  0.93597  0.67015  1.0000
  H   H1805     1.0  0.63262  0.91769  0.60974  1.0000
  H   H1806     1.0  0.47564  0.95316  0.72456  1.0000
  C   C2269     1.0  0.57544  0.92315  0.60030  1.0000
  C   C2270     1.0  0.43694  0.89654  0.71164  1.0000
  C   C2271     1.0  0.34960  0.92899  0.71020  1.0000
  C   C2272     1.0  0.46951  0.96636  0.64242  1.0000
  C   C2273     1.0  0.62493  0.96956  0.65525  1.0000
  C   C2274     1.0  0.45030  0.91599  0.61450  1.0000
  C   C2275     1.0  0.43811  0.92888  0.60319  1.0000
  C   C2276     1.0  0.43928  0.92469  0.58637  1.0000
  C   C2277     1.0  0.45278  0.90769  0.58085  1.0000
  C   C2278     1.0  0.46551  0.89504  0.59207  1.0000
  C   C2279     1.0  0.46371  0.89900  0.60904  1.0000
  P   P77       1.0  0.48200  0.87225  0.58566  1.0000
  C   C2280     1.0  0.46722  0.85132  0.59338  1.0000
  C   C2281     1.0  0.48846  0.87448  0.56280  1.0000
  C   C2282     1.0  0.48847  0.85767  0.55389  1.0000
  C   C2283     1.0  0.49405  0.85942  0.53620  1.0000
  C   C2284     1.0  0.49988  0.87784  0.52734  1.0000
  C   C2285     1.0  0.50030  0.89449  0.53618  1.0000
  C   C2286     1.0  0.49475  0.89278  0.55387  1.0000
  C   C2287     1.0  0.47194  0.83748  0.60785  1.0000
  C   C2288     1.0  0.45971  0.82194  0.61416  1.0000
  C   C2289     1.0  0.44245  0.82036  0.60632  1.0000
  C   C2290     1.0  0.43739  0.83434  0.59214  1.0000
  C   C2291     1.0  0.44965  0.84982  0.58572  1.0000
  C   C2292     1.0  0.50672  0.86874  0.59390  1.0000
  C   C2293     1.0  0.51929  0.84943  0.59446  1.0000
  C   C2294     1.0  0.53834  0.84655  0.60100  1.0000
  C   C2295     1.0  0.54517  0.86301  0.60667  1.0000
  C   C2296     1.0  0.53311  0.88242  0.60553  1.0000
  C   C2297     1.0  0.51406  0.88537  0.59906  1.0000
  H   H1807     1.0  0.44875  0.91877  0.62771  1.0000
  H   H1808     1.0  0.42732  0.94173  0.60767  1.0000
  H   H1809     1.0  0.42941  0.93439  0.57774  1.0000
  H   H1810     1.0  0.45298  0.90430  0.56796  1.0000
  H   H1811     1.0  0.47246  0.88870  0.61810  1.0000
  H   H1812     1.0  0.48438  0.84314  0.56057  1.0000
  H   H1813     1.0  0.49395  0.84642  0.52938  1.0000
  H   H1814     1.0  0.50424  0.87914  0.51364  1.0000
  H   H1815     1.0  0.50501  0.90870  0.52932  1.0000
  H   H1816     1.0  0.49538  0.90571  0.56060  1.0000
  H   H1817     1.0  0.48457  0.83900  0.61469  1.0000
  H   H1818     1.0  0.46317  0.81160  0.62556  1.0000
  H   H1819     1.0  0.43251  0.80880  0.61159  1.0000
  H   H1820     1.0  0.42349  0.83349  0.58655  1.0000
  H   H1821     1.0  0.44517  0.86086  0.57502  1.0000
  H   H1822     1.0  0.51420  0.83651  0.59012  1.0000
  H   H1823     1.0  0.54765  0.83146  0.60196  1.0000
  H   H1824     1.0  0.55961  0.86070  0.61224  1.0000
  H   H1825     1.0  0.53827  0.89505  0.61023  1.0000
  H   H1826     1.0  0.50508  0.90059  0.59832  1.0000
  H   H1827     1.0  0.57014  0.90718  0.58004  1.0000
  H   H1828     1.0  0.53670  0.92903  0.57520  1.0000
  C   C2298     1.0  0.58497  0.79996  0.69542  1.0000
  C   C2299     1.0  0.38897  0.90265  0.59791  1.0000
  C   C2300     1.0  0.37848  0.88730  0.59439  1.0000
  C   C2301     1.0  0.50701  0.92177  0.71020  1.0000
  C   C2302     1.0  0.39138  0.95559  0.72512  1.0000
  H   H1829     1.0  0.40339  0.89847  0.60352  1.0000
  H   H1830     1.0  0.38497  0.87126  0.59706  1.0000
  C   C2303     1.0  0.38052  0.92335  0.59465  1.0000
  H   H1831     1.0  0.35101  0.88032  0.58612  1.0000
  C   C2304     1.0  0.56777  0.95067  0.66305  1.0000
  H   H1832     1.0  0.59735  0.80342  0.70172  1.0000
  C   C2305     1.0  0.56777  0.93905  0.61027  1.0000
  H   H1833     1.0  0.44143  0.79520  0.71148  1.0000
  H   H1834     1.0  0.60598  0.96601  0.61207  1.0000
  C   C2306     1.0  0.51112  0.96922  0.62937  1.0000
  H   H1835     1.0  0.54049  0.91808  0.70378  1.0000
  C   C2307     1.0  0.41589  0.90467  0.71399  1.0000
  C   C2308     1.0  0.33527  0.90647  0.64325  1.0000
  C   C2309     1.0  0.35313  0.93639  0.63552  1.0000
  C   C2310     1.0  0.45684  0.78261  0.73362  1.0000
  H   H1836     1.0  0.51315  0.93679  0.62658  1.0000
  C   C2311     1.0  0.60116  0.87261  0.57346  1.0000
  C   C2312     1.0  0.37655  0.94421  0.73490  1.0000
  C   C2313     1.0  0.63628  0.94426  0.57253  1.0000
  H   H1837     1.0  0.55249  0.93752  0.64609  1.0000
  H   H1838     1.0  0.49045  0.81536  0.73291  1.0000
  H   H1839     1.0  0.47931  0.82165  0.70161  1.0000
  H   H1840     1.0  0.50606  0.92359  0.66147  1.0000
  C   C2314     1.0  0.50326  0.95046  0.63047  1.0000
  C   C2315     1.0  0.43951  0.78909  0.72489  1.0000
  C   C2316     1.0  0.52510  0.92079  0.68154  1.0000
  C   C2317     1.0  0.54532  0.93177  0.58505  1.0000
  C   C2318     1.0  0.38951  0.97687  0.72539  1.0000
  H   H1841     1.0  0.51271  0.75897  0.71768  1.0000
  C   C2319     1.0  0.36165  0.92867  0.58782  1.0000
  H   H1842     1.0  0.58277  0.96773  0.67751  1.0000
  C   C2320     1.0  0.55124  0.97052  0.63932  1.0000
  H   H1843     1.0  0.38838  0.93525  0.59781  1.0000
  H   H1844     1.0  0.47105  0.96977  0.67977  1.0000
  H   H1845     1.0  0.43368  0.93947  0.68898  1.0000
  C   C2321     1.0  0.56454  0.80209  0.70348  1.0000
  C   C2322     1.0  0.56425  0.91954  0.58768  1.0000
  P   P78       1.0  0.64802  0.91757  0.57363  1.0000
  C   C2323     1.0  0.35087  0.91332  0.58435  1.0000
  C   C2324     1.0  0.48246  0.94913  0.63684  1.0000
  H   H1846     1.0  0.36228  0.87756  0.69051  1.0000
  H   H1847     1.0  0.59099  0.93080  0.69603  1.0000
  H   H1848     1.0  0.47355  0.92316  0.71199  1.0000
  H   H1849     1.0  0.59640  0.88865  0.54852  1.0000
  C   C2325     1.0  0.35531  0.96713  0.66831  1.0000
  C   C2326     1.0  0.62880  0.90066  0.57426  1.0000
  P   P79       1.0  0.52181  0.80116  0.70536  1.0000
  C   C2327     1.0  0.36973  0.89518  0.70882  1.0000
  H   H1850     1.0  0.46408  0.88377  0.72394  1.0000
  H   H1851     1.0  0.35536  0.94473  0.58570  1.0000
  H   H1852     1.0  0.61459  0.95233  0.70373  1.0000
  H   H1853     1.0  0.36743  0.94269  0.63095  1.0000
  C   C2328     1.0  0.35335  0.91505  0.63705  1.0000
  H   H1854     1.0  0.36766  0.90512  0.63355  1.0000
  H   H1855     1.0  0.34635  0.87878  0.52879  1.0000
  H   H1856     1.0  0.46502  0.85766  0.69316  1.0000
  H   H1857     1.0  0.45770  0.83835  0.72715  1.0000
  C   C2329     1.0  0.54921  0.95940  0.73103  1.0000
  H   H1858     1.0  0.35832  0.95129  0.66562  1.0000
  C   C2330     1.0  0.35894  0.89210  0.69576  1.0000
  H   H1859     1.0  0.38138  0.88296  0.71343  1.0000
  C   C2331     1.0  0.32582  0.96179  0.56576  1.0000
  H   H1860     1.0  0.33762  0.83528  0.57876  1.0000
  C   C2332     1.0  0.44796  0.89064  0.72570  1.0000
  C   C2333     1.0  0.60435  0.88785  0.55964  1.0000
  H   H1861     1.0  0.32510  0.90138  0.61277  1.0000
  H   H1862     1.0  0.32707  0.93791  0.69236  1.0000
  H   H1863     1.0  0.47219  0.78363  0.72691  1.0000
  H   H1864     1.0  0.64643  0.87492  0.73064  1.0000
  H   H1865     1.0  0.49196  0.73658  0.70722  1.0000
  H   H1866     1.0  0.65156  0.92763  0.70433  1.0000
  C   C2334     1.0  0.63999  0.98023  0.57256  1.0000
  C   C2335     1.0  0.58935  0.91159  0.72023  1.0000
  H   H1867     1.0  0.59670  0.97602  0.72754  1.0000
  C   C2336     1.0  0.44102  0.84043  0.73001  1.0000
  C   C2337     1.0  0.53462  0.88116  0.73336  1.0000
  P   P80       1.0  0.33515  0.97687  0.63886  1.0000
  H   H1868     1.0  0.50854  0.96500  0.66846  1.0000
  C   C2338     1.0  0.63290  0.86707  0.73382  1.0000
  H   H1869     1.0  0.33560  0.88987  0.64448  1.0000
  H   H1870     1.0  0.54669  0.89011  0.72735  1.0000
  C   C2339     1.0  0.64888  0.95966  0.57185  1.0000
  C   C2340     1.0  0.33638  0.89200  0.53344  1.0000
  C   C2341     1.0  0.34370  0.90755  0.68972  1.0000
  H   H1871     1.0  0.55293  0.97341  0.72315  1.0000
  H   H1872     1.0  0.54774  0.77306  0.72852  1.0000
  C   C2342     1.0  0.53466  0.78085  0.73613  1.0000
  C   C2343     1.0  0.64933  0.91379  0.60866  1.0000
  P   P81       1.0  0.32538  0.92001  0.57717  1.0000
  C   C2344     1.0  0.32483  0.91412  0.55580  1.0000
  P   P82       1.0  0.50825  0.91837  0.73288  1.0000
  P   P83       1.0  0.53780  0.97137  0.62093  1.0000
  H   H1873     1.0  0.58901  0.97448  0.57620  1.0000
  H   H1874     1.0  0.64998  0.90969  0.63592  1.0000
  H   H1875     1.0  0.55485  0.85239  0.73187  1.0000
  C   C2345     1.0  0.50312  0.97366  0.67913  1.0000
  C   C2346     1.0  0.53934  0.85971  0.73593  1.0000
  C   C2347     1.0  0.59608  0.90756  0.73635  1.0000
  C   C2348     1.0  0.32584  0.84161  0.62072  1.0000
  C   C2349     1.0  0.35019  0.97988  0.60424  1.0000
  H   H1876     1.0  0.53340  0.98031  0.68147  1.0000
  Fe  Fe161     1.0  0.41376  0.70742  0.88031  1.0000
  S   S313      1.0  0.42777  0.67395  0.88052  1.0000
  S   S314      1.0  0.42160  0.72782  0.85527  1.0000
  Fe  Fe162     1.0  0.39750  0.70066  0.91812  1.0000
  S   S315      1.0  0.41069  0.66714  0.92083  1.0000
  S   S316      1.0  0.37957  0.71520  0.94085  1.0000
  Fe  Fe163     1.0  0.43908  0.67774  0.90497  1.0000
  S   S317      1.0  0.47038  0.66518  0.91411  1.0000
  Fe  Fe164     1.0  0.39784  0.66631  0.89628  1.0000
  S   S318      1.0  0.38427  0.63760  0.89191  1.0000
  S   S319      1.0  0.42674  0.71138  0.90403  1.0000
  S   S320      1.0  0.38301  0.69962  0.89430  1.0000
  Fe  Fe165     1.0  0.62271  0.67758  0.90898  1.0000
  S   S321      1.0  0.62988  0.70522  0.91928  1.0000
  H   H1877     1.0  0.54337  0.84947  0.86608  1.0000
  Fe  Fe166     1.0  0.58149  0.70071  0.89747  1.0000
  S   S322      1.0  0.58568  0.72997  0.90680  1.0000
  S   S323      1.0  0.55368  0.70157  0.88332  1.0000
  Fe  Fe167     1.0  0.61870  0.72365  0.89522  1.0000
  S   S324      1.0  0.63529  0.74894  0.87911  1.0000
  Fe  Fe168     1.0  0.59621  0.70968  0.92995  1.0000
  S   S325      1.0  0.58170  0.71678  0.95634  1.0000
  S   S326      1.0  0.61412  0.69547  0.88411  1.0000
  S   S327      1.0  0.58949  0.68085  0.92144  1.0000
  Fe  Fe169     1.0  0.40903  0.84582  0.82221  1.0000
  S   S328      1.0  0.44196  0.83546  0.81222  1.0000
  S   S329      1.0  0.38950  0.82393  0.83965  1.0000
  Fe  Fe170     1.0  0.41163  0.89053  0.80559  1.0000
  S   S330      1.0  0.44474  0.88292  0.79420  1.0000
  S   S331      1.0  0.39452  0.92305  0.80109  1.0000
  Fe  Fe171     1.0  0.43464  0.85449  0.78760  1.0000
  S   S332      1.0  0.44828  0.84221  0.76267  1.0000
  Fe  Fe172     1.0  0.44866  0.86469  0.81980  1.0000
  S   S333      1.0  0.47528  0.86286  0.83492  1.0000
  S   S334      1.0  0.40099  0.86335  0.79701  1.0000
  S   S335      1.0  0.41620  0.87398  0.83169  1.0000
  Fe  Fe173     1.0  0.59968  0.86104  0.82853  1.0000
  S   S336      1.0  0.58837  0.86315  0.80281  1.0000
  S   S337      1.0  0.58953  0.83736  0.85083  1.0000
  Fe  Fe174     1.0  0.61636  0.90289  0.81927  1.0000
  S   S338      1.0  0.60630  0.90811  0.79321  1.0000
  S   S339      1.0  0.63294  0.92452  0.83034  1.0000
  Fe  Fe175     1.0  0.57719  0.89632  0.80595  1.0000
  S   S340      1.0  0.54668  0.91285  0.79845  1.0000
  Fe  Fe176     1.0  0.61853  0.87464  0.79203  1.0000
  S   S341      1.0  0.63802  0.86814  0.76717  1.0000
  S   S342      1.0  0.58598  0.89379  0.83228  1.0000
  S   S343      1.0  0.63104  0.86993  0.81746  1.0000
  C   C2350     1.0  0.50041  0.72879  0.94390  1.0000
  H   H1878     1.0  0.57211  0.95907  0.74796  1.0000
  C   C2351     1.0  0.55995  0.95147  0.74499  1.0000
  C   C2352     1.0  0.63885  0.94905  0.82048  1.0000
  C   C2353     1.0  0.62745  0.96129  0.80817  1.0000
  C   C2354     1.0  0.62452  0.60239  0.96649  1.0000
  H   H1879     1.0  0.45776  0.76427  0.97183  1.0000
  C   C2355     1.0  0.42548  0.70619  0.80495  1.0000
  H   H1880     1.0  0.61470  0.95558  0.80414  1.0000
  H   H1881     1.0  0.53165  0.93165  0.82923  1.0000
  C   C2356     1.0  0.49453  0.87777  0.82527  1.0000
  C   C2357     1.0  0.49023  0.89476  0.81301  1.0000
  C   C2358     1.0  0.50624  0.90580  0.80494  1.0000
  C   C2359     1.0  0.52655  0.89960  0.80894  1.0000
  C   C2360     1.0  0.53072  0.88289  0.82142  1.0000
  C   C2361     1.0  0.51467  0.87214  0.82969  1.0000
  H   H1882     1.0  0.47458  0.89954  0.80993  1.0000
  H   H1883     1.0  0.50294  0.91906  0.79558  1.0000
  H   H1884     1.0  0.54633  0.87813  0.82468  1.0000
  H   H1885     1.0  0.51796  0.85912  0.83922  1.0000
  C   C2362     1.0  0.40735  0.94375  0.80351  1.0000
  C   C2363     1.0  0.42697  0.94010  0.80905  1.0000
  H   H1886     1.0  0.34298  0.87354  0.79535  1.0000
  H   H1887     1.0  0.43416  0.92444  0.81242  1.0000
  H   H1888     1.0  0.64670  0.77775  0.95828  1.0000
  H   H1889     1.0  0.58502  0.83818  0.74523  1.0000
  C   C2364     1.0  0.48498  0.92965  0.74503  1.0000
  H   H1890     1.0  0.48002  0.65524  0.94779  1.0000
  C   C2365     1.0  0.52608  0.82420  0.79132  1.0000
  H   H1891     1.0  0.60194  0.84760  0.76825  1.0000
  H   H1892     1.0  0.56694  0.89961  0.87650  1.0000
  H   H1893     1.0  0.40320  0.84806  0.76316  1.0000
  H   H1894     1.0  0.35438  0.68620  0.96183  1.0000
  C   C2366     1.0  0.47416  0.79013  0.80203  1.0000
  C   C2367     1.0  0.47761  0.95627  0.87926  1.0000
  C   C2368     1.0  0.59711  0.72065  0.97162  1.0000
  C   C2369     1.0  0.61853  0.72088  0.96775  1.0000
  H   H1895     1.0  0.52071  0.84334  0.89354  1.0000
  H   H1896     1.0  0.62595  0.71923  0.95494  1.0000
  C   C2370     1.0  0.53543  0.83599  0.86888  1.0000
  C   C2371     1.0  0.62249  0.77370  0.87169  1.0000
  C   C2372     1.0  0.63329  0.78678  0.85927  1.0000
  C   C2373     1.0  0.62348  0.80628  0.85267  1.0000
  C   C2374     1.0  0.60278  0.81300  0.85858  1.0000
  C   C2375     1.0  0.59210  0.80010  0.87124  1.0000
  C   C2376     1.0  0.60184  0.78056  0.87774  1.0000
  C   C2377     1.0  0.49681  0.94499  0.90918  1.0000
  H   H1897     1.0  0.63192  0.81607  0.84299  1.0000
  H   H1898     1.0  0.59329  0.77075  0.88727  1.0000
  C   C2378     1.0  0.35907  0.62992  0.89336  1.0000
  C   C2379     1.0  0.34086  0.64213  0.89943  1.0000
  P   P84       1.0  0.46604  0.96310  0.85962  1.0000
  H   H1899     1.0  0.34189  0.65666  0.90366  1.0000
  H   H1900     1.0  0.51423  0.78187  0.77768  1.0000
  C   C2380     1.0  0.39231  0.71025  0.95938  1.0000
  C   C2381     1.0  0.41146  0.69762  0.95943  1.0000
  H   H1901     1.0  0.41829  0.69032  0.94828  1.0000
  C   C2382     1.0  0.49296  0.67658  0.90596  1.0000
  C   C2383     1.0  0.49406  0.68980  0.89060  1.0000
  C   C2384     1.0  0.51274  0.69746  0.88392  1.0000
  C   C2385     1.0  0.53031  0.69233  0.89265  1.0000
  C   C2386     1.0  0.52903  0.67968  0.90827  1.0000
  C   C2387     1.0  0.51050  0.67169  0.91480  1.0000
  H   H1902     1.0  0.48067  0.69371  0.88368  1.0000
  H   H1903     1.0  0.51366  0.70728  0.87187  1.0000
  H   H1904     1.0  0.54233  0.67596  0.91522  1.0000
  H   H1905     1.0  0.50979  0.66171  0.92677  1.0000
  C   C2388     1.0  0.41331  0.75476  0.85205  1.0000
  C   C2389     1.0  0.42395  0.76693  0.83880  1.0000
  C   C2390     1.0  0.41723  0.78822  0.83528  1.0000
  C   C2391     1.0  0.39948  0.79752  0.84469  1.0000
  C   C2392     1.0  0.38881  0.78532  0.85792  1.0000
  C   C2393     1.0  0.39579  0.76407  0.86171  1.0000
  H   H1906     1.0  0.43744  0.75990  0.83119  1.0000
  H   H1907     1.0  0.42538  0.79728  0.82490  1.0000
  H   H1908     1.0  0.37505  0.79235  0.86525  1.0000
  H   H1909     1.0  0.38740  0.75484  0.87186  1.0000
  H   H1910     1.0  0.45163  0.71649  0.94206  1.0000
  C   C2394     1.0  0.48963  0.78118  0.85137  1.0000
  H   H1911     1.0  0.45728  0.77714  0.85636  1.0000
  H   H1912     1.0  0.50361  0.81175  0.90009  1.0000
  C   C2395     1.0  0.54151  0.79447  0.80907  1.0000
  H   H1913     1.0  0.41837  0.73581  0.93447  1.0000
  C   C2396     1.0  0.42202  0.72877  0.77275  1.0000
  C   C2397     1.0  0.54011  0.80601  0.79302  1.0000
  C   C2398     1.0  0.35632  0.68349  0.86469  1.0000
  C   C2399     1.0  0.51333  0.83078  0.80563  1.0000
  C   C2400     1.0  0.63184  0.82932  0.93032  1.0000
  C   C2401     1.0  0.45433  0.77519  0.75102  1.0000
  C   C2402     1.0  0.37312  0.80539  0.80654  1.0000
  C   C2403     1.0  0.32291  0.71037  0.89576  1.0000
  H   H1914     1.0  0.61548  0.91534  0.75309  1.0000
  C   C2404     1.0  0.35429  0.71971  0.85362  1.0000
  H   H1915     1.0  0.62624  0.76388  0.91271  1.0000
  H   H1916     1.0  0.40240  0.69407  0.84270  1.0000
  H   H1917     1.0  0.64927  0.78167  0.85454  1.0000
  H   H1918     1.0  0.39804  0.75644  0.81115  1.0000
  H   H1919     1.0  0.47096  0.92500  0.84293  1.0000
  C   C2405     1.0  0.36659  0.90349  0.75324  1.0000
  C   C2406     1.0  0.34937  0.88193  0.78359  1.0000
  C   C2407     1.0  0.65514  0.92264  0.77993  1.0000
  C   C2408     1.0  0.37490  0.71631  0.84610  1.0000
  H   H1920     1.0  0.38246  0.72914  0.83951  1.0000
  C   C2409     1.0  0.35789  0.97581  0.74497  1.0000
  H   H1921     1.0  0.38280  0.96711  0.79519  1.0000
  H   H1922     1.0  0.36771  0.77814  0.82383  1.0000
  C   C2410     1.0  0.35737  0.61088  0.88813  1.0000
  H   H1923     1.0  0.33828  0.73748  0.88821  1.0000
  H   H1924     1.0  0.40142  0.78006  0.75742  1.0000
  H   H1925     1.0  0.57355  0.60932  0.97999  1.0000
  C   C2411     1.0  0.55504  0.93355  0.75524  1.0000
  H   H1926     1.0  0.44634  0.88840  0.75310  1.0000
  H   H1927     1.0  0.57278  0.79601  0.82989  1.0000
  C   C2412     1.0  0.35964  0.95452  0.74468  1.0000
  H   H1928     1.0  0.41857  0.68063  0.79391  1.0000
  H   H1929     1.0  0.54779  0.82519  0.84491  1.0000
  H   H1930     1.0  0.63448  0.83122  0.88116  1.0000
  H   H1931     1.0  0.43169  0.73403  0.81270  1.0000
  C   C2413     1.0  0.43754  0.95671  0.80988  1.0000
  C   C2414     1.0  0.36290  0.63398  0.97198  1.0000
  H   H1932     1.0  0.60050  0.91225  0.86534  1.0000
  H   H1933     1.0  0.58180  0.72850  0.86606  1.0000
  C   C2415     1.0  0.37749  0.78460  0.81291  1.0000
  C   C2416     1.0  0.39806  0.96419  0.79936  1.0000
  H   H1934     1.0  0.54935  0.68786  0.98077  1.0000
  H   H1935     1.0  0.49467  0.97874  0.74371  1.0000
  S   S344      1.0  0.63907  0.64451  0.91377  1.0000
  H   H1936     1.0  0.44589  0.80133  0.79104  1.0000
  C   C2417     1.0  0.39790  0.84523  0.73757  1.0000
  C   C2418     1.0  0.55681  0.77256  0.84600  1.0000
  H   H1937     1.0  0.64812  0.97803  0.75512  1.0000
  C   C2419     1.0  0.44936  0.94762  0.76434  1.0000
  C   C2420     1.0  0.46281  0.93154  0.77200  1.0000
  C   C2421     1.0  0.48057  0.92260  0.76242  1.0000
  C   C2422     1.0  0.41904  0.70802  0.77562  1.0000
  C   C2423     1.0  0.58834  0.82126  0.97990  1.0000
  C   C2424     1.0  0.38386  0.54670  0.93172  1.0000
  C   C2425     1.0  0.57434  0.78087  0.83727  1.0000
  C   C2426     1.0  0.50107  0.97456  0.81338  1.0000
  C   C2427     1.0  0.54844  0.92873  0.86921  1.0000
  C   C2428     1.0  0.60988  0.91937  0.74074  1.0000
  C   C2429     1.0  0.51586  0.80063  0.87606  1.0000
  H   H1938     1.0  0.38122  0.84671  0.74062  1.0000
  C   C2430     1.0  0.50393  0.85721  0.74842  1.0000
  H   H1939     1.0  0.39859  0.93646  0.87137  1.0000
  C   C2431     1.0  0.60774  0.85185  0.75504  1.0000
  C   C2432     1.0  0.60565  0.61248  0.90635  1.0000
  C   C2433     1.0  0.58599  0.92261  0.86462  1.0000
  H   H1940     1.0  0.36886  0.72945  0.97404  1.0000
  H   H1941     1.0  0.43553  0.95444  0.77179  1.0000
  H   H1942     1.0  0.45952  0.92602  0.78542  1.0000
  H   H1943     1.0  0.49089  0.91029  0.76867  1.0000
  C   C2434     1.0  0.35688  0.65478  0.97446  1.0000
  H   H1944     1.0  0.46796  0.77037  0.75755  1.0000
  C   C2435     1.0  0.55624  0.59333  0.96636  1.0000
  C   C2436     1.0  0.54986  0.57431  0.96541  1.0000
  P   P85       1.0  0.55130  0.61478  0.95002  1.0000
  C   C2437     1.0  0.55026  0.63834  0.95938  1.0000
  C   C2438     1.0  0.57214  0.61336  0.93254  1.0000
  C   C2439     1.0  0.57403  0.63042  0.92000  1.0000
  C   C2440     1.0  0.59069  0.62997  0.90698  1.0000
  H   H1945     1.0  0.42701  0.69746  0.81741  1.0000
  C   C2441     1.0  0.60384  0.59532  0.91866  1.0000
  C   C2442     1.0  0.58713  0.59570  0.93169  1.0000
  C   C2443     1.0  0.53249  0.64596  0.96990  1.0000
  C   C2444     1.0  0.64117  0.84603  0.90172  1.0000
  C   C2445     1.0  0.63033  0.72340  0.98053  1.0000
  C   C2446     1.0  0.56727  0.66644  0.96460  1.0000
  C   C2447     1.0  0.56775  0.64862  0.95703  1.0000
  C   C2448     1.0  0.52644  0.61425  0.94293  1.0000
  C   C2449     1.0  0.50957  0.60894  0.95483  1.0000
  C   C2450     1.0  0.49014  0.60912  0.94953  1.0000
  C   C2451     1.0  0.48740  0.61457  0.93234  1.0000
  C   C2452     1.0  0.50414  0.61947  0.92040  1.0000
  C   C2453     1.0  0.52360  0.61925  0.92562  1.0000
  H   H1946     1.0  0.34510  0.74027  0.91738  1.0000
  H   H1947     1.0  0.42062  0.73719  0.76019  1.0000
  H   H1948     1.0  0.54156  0.57242  0.95506  1.0000
  H   H1949     1.0  0.56279  0.64424  0.92042  1.0000
  C   C2454     1.0  0.51564  0.78550  0.76395  1.0000
  H   H1950     1.0  0.47660  0.80526  0.80429  1.0000
  H   H1951     1.0  0.45293  0.95368  0.81383  1.0000
  H   H1952     1.0  0.58614  0.58225  0.94108  1.0000
  C   C2455     1.0  0.60466  0.79820  0.95918  1.0000
  C   C2456     1.0  0.63693  0.76088  0.92223  1.0000
  C   C2457     1.0  0.40854  0.98088  0.80042  1.0000
  H   H1953     1.0  0.38580  0.66486  0.85890  1.0000
  H   H1954     1.0  0.58186  0.64303  0.94934  1.0000
  C   C2458     1.0  0.41450  0.93398  0.86537  1.0000
  C   C2459     1.0  0.33297  0.72648  0.89871  1.0000
  H   H1955     1.0  0.47220  0.61550  0.92823  1.0000
  H   H1956     1.0  0.50179  0.62426  0.90714  1.0000
  H   H1957     1.0  0.53606  0.62353  0.91605  1.0000
  H   H1958     1.0  0.37317  0.63946  0.92865  1.0000
  C   C2460     1.0  0.52282  0.83242  0.88435  1.0000
  C   C2461     1.0  0.34468  0.70322  0.86273  1.0000
  H   H1959     1.0  0.57607  0.80510  0.87582  1.0000
  C   C2462     1.0  0.51319  0.81464  0.88802  1.0000
  H   H1960     1.0  0.35996  0.81502  0.81250  1.0000
  H   H1961     1.0  0.38281  0.83011  0.78810  1.0000
  C   C2463     1.0  0.42082  0.69672  0.79170  1.0000
  H   H1962     1.0  0.64690  0.72353  0.97754  1.0000
  C   C2464     1.0  0.38618  0.69652  0.84786  1.0000
  H   H1963     1.0  0.37511  0.92303  0.76993  1.0000
  C   C2465     1.0  0.53219  0.66368  0.97767  1.0000
  C   C2466     1.0  0.37686  0.68010  0.85707  1.0000
  H   H1964     1.0  0.50153  0.97579  0.87129  1.0000
  C   C2467     1.0  0.42674  0.73840  0.78600  1.0000
  C   C2468     1.0  0.41693  0.90112  0.74452  1.0000
  C   C2469     1.0  0.49909  0.87870  0.74568  1.0000
  H   H1965     1.0  0.33693  0.58960  0.88454  1.0000
  H   H1966     1.0  0.36357  0.67628  0.93291  1.0000
  H   H1967     1.0  0.53379  0.92311  0.87377  1.0000
  C   C2470     1.0  0.45678  0.78781  0.79457  1.0000
  H   H1968     1.0  0.46716  0.73596  0.79288  1.0000
  H   H1969     1.0  0.34976  0.67077  0.87245  1.0000
  C   C2471     1.0  0.35720  0.88595  0.75280  1.0000
  C   C2472     1.0  0.48576  0.75349  0.80333  1.0000
  C   C2473     1.0  0.48583  0.97641  0.82744  1.0000
  H   H1970     1.0  0.34621  0.73533  0.85274  1.0000
  C   C2474     1.0  0.60531  0.78165  0.97242  1.0000
  C   C2475     1.0  0.49523  0.96476  0.88126  1.0000
  C   C2476     1.0  0.34870  0.87521  0.76791  1.0000
  C   C2477     1.0  0.65549  0.95655  0.82550  1.0000
  H   H1971     1.0  0.49998  0.72326  0.84510  1.0000
  H   H1972     1.0  0.63160  0.65245  0.95455  1.0000
  H   H1973     1.0  0.61914  0.58992  0.96173  1.0000
  H   H1974     1.0  0.50542  0.75854  0.90525  1.0000
  H   H1975     1.0  0.37127  0.60126  0.88335  1.0000
  H   H1976     1.0  0.40955  0.90270  0.75739  1.0000
  H   H1977     1.0  0.41419  0.80907  0.77574  1.0000
  C   C2478     1.0  0.38624  0.81399  0.79298  1.0000
  H   H1978     1.0  0.57344  0.97984  0.77250  1.0000
  C   C2479     1.0  0.36893  0.62850  0.95554  1.0000
  C   C2480     1.0  0.50480  0.95914  0.89614  1.0000
  H   H1979     1.0  0.45616  0.93515  0.89126  1.0000
  H   H1980     1.0  0.39238  0.53132  0.93134  1.0000
  C   C2481     1.0  0.56709  0.91551  0.87083  1.0000
  C   C2482     1.0  0.42849  0.97713  0.80540  1.0000
  H   H1981     1.0  0.52517  0.83336  0.77899  1.0000
  H   H1982     1.0  0.36109  0.53710  0.95214  1.0000
  H   H1983     1.0  0.55009  0.80099  0.78192  1.0000
  C   C2483     1.0  0.57961  0.74296  0.85782  1.0000
  C   C2484     1.0  0.41035  0.84584  0.75039  1.0000
  C   C2485     1.0  0.41700  0.78063  0.75092  1.0000
  H   H1984     1.0  0.58079  0.67434  0.96252  1.0000
  H   H1985     1.0  0.35306  0.60178  0.93216  1.0000
  C   C2486     1.0  0.36202  0.57254  0.98208  1.0000
  C   C2487     1.0  0.33787  0.60415  0.88883  1.0000
  C   C2488     1.0  0.53934  0.92347  0.75165  1.0000
  H   H1986     1.0  0.32949  0.61850  0.96160  1.0000
  C   C2489     1.0  0.51965  0.71605  0.94228  1.0000
  C   C2490     1.0  0.57300  0.96180  0.79719  1.0000
  H   H1987     1.0  0.48705  0.80673  0.76406  1.0000
  H   H1988     1.0  0.38522  0.59587  0.91247  1.0000
  H   H1989     1.0  0.50508  0.82500  0.83269  1.0000
  C   C2491     1.0  0.39497  0.77236  0.80572  1.0000
  C   C2492     1.0  0.47309  0.76976  0.85332  1.0000
  C   C2493     1.0  0.36599  0.55001  0.94338  1.0000
  H   H1990     1.0  0.43730  0.68563  0.97332  1.0000
  C   C2494     1.0  0.62361  0.62182  0.95683  1.0000
  C   C2495     1.0  0.51755  0.95839  0.81402  1.0000
  C   C2496     1.0  0.54871  0.94902  0.86132  1.0000
  H   H1991     1.0  0.48073  0.75432  0.93129  1.0000
  C   C2497     1.0  0.53789  0.82216  0.85683  1.0000
  H   H1992     1.0  0.40463  0.56073  0.91157  1.0000
  C   C2498     1.0  0.36742  0.90996  0.76910  1.0000
  H   H1993     1.0  0.52369  0.70380  0.95229  1.0000
  C   C2499     1.0  0.37974  0.58304  0.92104  1.0000
  C   C2500     1.0  0.36158  0.58635  0.93237  1.0000
  C   C2501     1.0  0.48200  0.68521  0.95438  1.0000
  H   H1994     1.0  0.42265  0.96076  0.87356  1.0000
  C   C2502     1.0  0.35864  0.89934  0.78417  1.0000
  C   C2503     1.0  0.57015  0.98100  0.82140  1.0000
  H   H1995     1.0  0.47253  0.63966  0.97774  1.0000
  C   C2504     1.0  0.36857  0.64368  0.94142  1.0000
  H   H1996     1.0  0.49198  0.84794  0.75425  1.0000
  H   H1997     1.0  0.57445  0.94719  0.79220  1.0000
  C   C2505     1.0  0.40398  0.80194  0.78599  1.0000
  C   C2506     1.0  0.64479  0.93596  0.76760  1.0000
  C   C2507     1.0  0.35470  0.56988  0.94378  1.0000
  C   C2508     1.0  0.39077  0.56323  0.92060  1.0000
  H   H1998     1.0  0.64595  0.64679  0.98194  1.0000
  P   P86       1.0  0.33245  0.57433  0.95961  1.0000
  H   H1999     1.0  0.42386  0.78260  0.96485  1.0000
  C   C2509     1.0  0.33679  0.72817  0.91521  1.0000
  C   C2510     1.0  0.40842  0.78092  0.79219  1.0000
  H   H2000     1.0  0.37314  0.56474  0.97295  1.0000
  C   C2511     1.0  0.59422  0.76989  0.83829  1.0000
  C   C2512     1.0  0.48839  0.77295  0.80670  1.0000
  C   C2513     1.0  0.43199  0.84306  0.74671  1.0000
  C   C2514     1.0  0.57231  0.98021  0.78610  1.0000
  C   C2515     1.0  0.52934  0.80146  0.82362  1.0000
  H   H2001     1.0  0.50856  0.78680  0.87919  1.0000
  C   C2516     1.0  0.59538  0.81789  0.96297  1.0000
  C   C2517     1.0  0.44915  0.75747  0.96409  1.0000
  C   C2518     1.0  0.45357  0.76820  0.79171  1.0000
  H   H2002     1.0  0.34770  0.94619  0.75197  1.0000
  P   P87       1.0  0.43082  0.76517  0.78243  1.0000
  C   C2519     1.0  0.46966  0.94206  0.89243  1.0000
  H   H2003     1.0  0.61761  0.62440  0.94460  1.0000
  C   C2520     1.0  0.53268  0.77608  0.75389  1.0000
  C   C2521     1.0  0.51495  0.81949  0.82172  1.0000
  C   C2522     1.0  0.58627  0.94285  0.85673  1.0000
  C   C2523     1.0  0.49054  0.73367  0.98077  1.0000
  C   C2524     1.0  0.45535  0.92776  0.84940  1.0000
  C   C2525     1.0  0.42235  0.69510  0.97364  1.0000
  H   H2004     1.0  0.61884  0.61243  0.89646  1.0000
  H   H2005     1.0  0.59228  0.64337  0.89753  1.0000
  C   C2526     1.0  0.42816  0.94777  0.86648  1.0000
  C   C2527     1.0  0.64043  0.84519  0.91942  1.0000
  C   C2528     1.0  0.52406  0.84773  0.74353  1.0000
  C   C2529     1.0  0.46860  0.75114  0.79564  1.0000
  H   H2006     1.0  0.41538  0.70067  0.76536  1.0000
  C   C2530     1.0  0.63324  0.59883  0.98184  1.0000
  C   C2531     1.0  0.53384  0.71909  0.92766  1.0000
  H   H2007     1.0  0.54865  0.70924  0.92648  1.0000
  H   H2008     1.0  0.48631  0.79748  0.85273  1.0000
  H   H2009     1.0  0.63227  0.94751  0.77181  1.0000
  C   C2532     1.0  0.43005  0.76817  0.95990  1.0000
  C   C2533     1.0  0.42699  0.74184  0.94276  1.0000
  C   C2534     1.0  0.45694  0.73838  0.95817  1.0000
  C   C2535     1.0  0.63982  0.63426  0.97803  1.0000
  C   C2536     1.0  0.52872  0.73440  0.91433  1.0000
  C   C2537     1.0  0.50043  0.79954  0.75628  1.0000
  H   H2010     1.0  0.47706  0.60541  0.95874  1.0000
  C   C2538     1.0  0.51018  0.77165  0.84762  1.0000
  C   C2539     1.0  0.51128  0.73671  0.98050  1.0000
  H   H2011     1.0  0.54664  0.74769  0.86463  1.0000
  H   H2012     1.0  0.50420  0.94064  0.92073  1.0000
  C   C2540     1.0  0.44584  0.73084  0.94722  1.0000
  C   C2541     1.0  0.47944  0.66438  0.95808  1.0000
  C   C2542     1.0  0.50953  0.74696  0.91573  1.0000
  H   H2013     1.0  0.49697  0.74019  0.80678  1.0000
  C   C2543     1.0  0.55966  0.75387  0.85682  1.0000
  C   C2544     1.0  0.42827  0.72694  0.80218  1.0000
  H   H2014     1.0  0.48453  0.69189  0.94115  1.0000
  H   H2015     1.0  0.53950  0.73630  0.90278  1.0000
  C   C2545     1.0  0.41892  0.76029  0.94931  1.0000
  C   C2546     1.0  0.48050  0.69743  0.96761  1.0000
  H   H2016     1.0  0.53562  0.90971  0.75995  1.0000
  H   H2017     1.0  0.54434  0.76502  0.75986  1.0000
  C   C2547     1.0  0.49549  0.74436  0.93052  1.0000
  H   H2018     1.0  0.61118  0.76606  0.96976  1.0000
  H   H2019     1.0  0.60770  0.77649  0.83170  1.0000
  C   C2548     1.0  0.52865  0.93117  0.73752  1.0000
  C   C2549     1.0  0.38371  0.71967  0.97398  1.0000
  P   P88       1.0  0.48205  0.72477  0.96281  1.0000
  C   C2550     1.0  0.56763  0.95624  0.85508  1.0000
  H   H2020     1.0  0.40403  0.76842  0.94614  1.0000
  H   H2021     1.0  0.53422  0.95887  0.85978  1.0000
  H   H2022     1.0  0.60106  0.94788  0.85155  1.0000
  C   C2551     1.0  0.56057  0.79816  0.91360  1.0000
  H   H2023     1.0  0.55246  0.80915  0.90452  1.0000
  C   C2552     1.0  0.59684  0.75084  0.84842  1.0000
  C   C2553     1.0  0.57198  0.96213  0.81478  1.0000
  H   H2024     1.0  0.35945  0.90438  0.79636  1.0000
  H   H2025     1.0  0.58396  0.81710  0.91372  1.0000
  C   C2554     1.0  0.43800  0.89319  0.74210  1.0000
  H   H2026     1.0  0.52927  0.74325  0.84119  1.0000
  H   H2027     1.0  0.56363  0.92730  0.76590  1.0000
  H   H2028     1.0  0.51885  0.63833  0.97216  1.0000
  H   H2029     1.0  0.33407  0.71499  0.94156  1.0000
  H   H2030     1.0  0.55756  0.75129  0.93701  1.0000
  H   H2031     1.0  0.53882  0.77646  0.91625  1.0000
  H   H2032     1.0  0.44696  0.90075  0.84154  1.0000
  P   P89       1.0  0.53121  0.78695  0.84447  1.0000
  C   C2555     1.0  0.55437  0.55747  0.97775  1.0000
  C   C2556     1.0  0.51447  0.89086  0.73826  1.0000
  H   H2033     1.0  0.51133  0.60487  0.96823  1.0000
  C   C2557     1.0  0.42126  0.91707  0.85637  1.0000
  H   H2034     1.0  0.61232  0.74255  0.84954  1.0000
  C   C2558     1.0  0.55292  0.77974  0.92018  1.0000
  H   H2035     1.0  0.44360  0.96771  0.74126  1.0000
  C   C2559     1.0  0.51377  0.75079  0.84494  1.0000
  C   C2560     1.0  0.47687  0.74885  0.85126  1.0000
  H   H2036     1.0  0.48335  0.88567  0.74924  1.0000
  C   C2561     1.0  0.35753  0.67002  0.96029  1.0000
  C   C2562     1.0  0.56351  0.76556  0.93181  1.0000
  C   C2563     1.0  0.51887  0.94420  0.82875  1.0000
  C   C2564     1.0  0.44171  0.91389  0.84851  1.0000
  H   H2037     1.0  0.50418  0.93411  0.85365  1.0000
  H   H2038     1.0  0.54938  0.54282  0.97696  1.0000
  H   H2039     1.0  0.52924  0.95673  0.80307  1.0000
  H   H2040     1.0  0.50239  0.84487  0.80433  1.0000
  H   H2041     1.0  0.47302  0.92550  0.91743  1.0000
  C   C2565     1.0  0.48664  0.96184  0.84204  1.0000
  C   C2566     1.0  0.52768  0.80468  0.86014  1.0000
  C   C2567     1.0  0.58208  0.76951  0.93648  1.0000
  H   H2042     1.0  0.57285  0.94759  0.82303  1.0000
  C   C2568     1.0  0.50336  0.94575  0.84264  1.0000
  C   C2569     1.0  0.34139  0.57925  0.97887  1.0000
  H   H2043     1.0  0.52269  0.73393  0.96961  1.0000
  C   C2570     1.0  0.47924  0.93648  0.90733  1.0000
  C   C2571     1.0  0.57878  0.80243  0.91863  1.0000
  H   H2044     1.0  0.59026  0.75829  0.94537  1.0000
  C   C2572     1.0  0.54954  0.67400  0.97493  1.0000
  H   H2045     1.0  0.61997  0.80296  0.90015  1.0000
  H   H2046     1.0  0.36298  0.62201  0.98280  1.0000
  C   C2573     1.0  0.58993  0.78790  0.92984  1.0000
  C   C2574     1.0  0.36297  0.66443  0.94382  1.0000
  C   C2575     1.0  0.62526  0.86196  0.75101  1.0000
  C   C2576     1.0  0.62524  0.81488  0.90574  1.0000
  H   H2047     1.0  0.61552  0.58181  0.91808  1.0000
  C   C2577     1.0  0.49716  0.73943  0.84691  1.0000
  C   C2578     1.0  0.63156  0.63764  0.96246  1.0000
  C   C2579     1.0  0.59814  0.84658  0.74196  1.0000
  C   C2580     1.0  0.56785  0.59503  0.97942  1.0000
  H   H2048     1.0  0.59114  0.89481  0.74532  1.0000
  C   C2581     1.0  0.47525  0.65557  0.97497  1.0000
  P   P90       1.0  0.61282  0.79349  0.93730  1.0000
  C   C2582     1.0  0.62359  0.81439  0.92356  1.0000
  C   C2583     1.0  0.44865  0.94491  0.85834  1.0000
  H   H2049     1.0  0.46403  0.73998  0.85292  1.0000
  H   H2050     1.0  0.50164  0.77482  0.81266  1.0000
  C   C2584     1.0  0.43435  0.77438  0.75986  1.0000
  H   H2051     1.0  0.51841  0.96578  0.89756  1.0000
  H   H2052     1.0  0.55229  0.78028  0.81012  1.0000
  H   H2053     1.0  0.52795  0.83114  0.74563  1.0000
  H   H2054     1.0  0.37389  0.61248  0.95375  1.0000
  C   C2585     1.0  0.63368  0.83081  0.89489  1.0000
  H   H2055     1.0  0.64670  0.85675  0.92466  1.0000
  C   C2586     1.0  0.47633  0.68839  0.98454  1.0000
  H   H2056     1.0  0.41062  0.90648  0.85539  1.0000
  H   H2057     1.0  0.34172  0.86157  0.76745  1.0000
  H   H2058     1.0  0.59350  0.83062  0.95287  1.0000
  C   C2587     1.0  0.45395  0.95511  0.74715  1.0000
  C   C2588     1.0  0.63369  0.77226  0.93612  1.0000
  C   C2589     1.0  0.63266  0.98095  0.80108  1.0000
  H   H2059     1.0  0.63196  0.82860  0.94394  1.0000
  H   H2060     1.0  0.64781  0.85831  0.89325  1.0000
  H   H2061     1.0  0.65086  0.92425  0.79335  1.0000
  C   C2590     1.0  0.62331  0.97396  0.74119  1.0000
  C   C2591     1.0  0.65017  0.93374  0.75019  1.0000
  C   C2592     1.0  0.65451  0.74605  0.92013  1.0000
  H   H2062     1.0  0.35660  0.88029  0.74088  1.0000
  C   C2593     1.0  0.64832  0.76860  0.94785  1.0000
  C   C2594     1.0  0.50245  0.80445  0.73853  1.0000
  H   H2063     1.0  0.58153  0.83656  0.98279  1.0000
  C   C2595     1.0  0.47194  0.94650  0.73762  1.0000
  C   C2596     1.0  0.33065  0.71381  0.92887  1.0000
  H   H2064     1.0  0.32327  0.67240  0.85436  1.0000
  H   H2065     1.0  0.51882  0.97248  0.76553  1.0000
  H   H2066     1.0  0.58420  0.98042  0.87658  1.0000
  H   H2067     1.0  0.51847  0.66953  0.98575  1.0000
  H   H2068     1.0  0.80522  0.41250  0.08546  1.0000
  C   C2597     1.0  0.82504  0.42579  0.12174  1.0000
  C   C2598     1.0  0.87667  0.41253  0.08406  1.0000
  C   C2599     1.0  0.71933  0.22830  0.08863  1.0000
  C   C2600     1.0  0.76388  0.42903  0.01881  1.0000
  H   H2069     1.0  0.70664  0.31440  0.02218  1.0000
  C   C2601     1.0  0.66942  0.38165  0.03775  1.0000
  H   H2070     1.0  0.97035  0.42622  0.11150  1.0000
  C   C2602     1.0  0.69637  0.03905  0.20179  1.0000
  H   H2071     1.0  0.68639  0.23120  0.09789  1.0000
  H   H2072     1.0  0.91367  0.41516  0.19262  1.0000
  C   C2603     1.0  0.67553  0.16485  0.11906  1.0000
  C   C2604     1.0  0.67729  0.98820  0.16966  1.0000
  H   H2073     1.0  0.70945  0.35096  0.01832  1.0000
  C   C2605     1.0  0.96275  0.41613  0.20101  1.0000
  C   C2606     1.0  0.66483  0.11384  0.10929  1.0000
  Fe  Fe177     1.0  0.74449  0.38320  0.05079  1.0000
  S   S345      1.0  0.77819  0.38622  0.04553  1.0000
  S   S346      1.0  0.71839  0.41011  0.05090  1.0000
  Fe  Fe178     1.0  0.75231  0.33577  0.05375  1.0000
  S   S347      1.0  0.78732  0.33547  0.04943  1.0000
  S   S348      1.0  0.73978  0.30493  0.05499  1.0000
  Fe  Fe179     1.0  0.78232  0.36036  0.06682  1.0000
  S   S349      1.0  0.79917  0.36840  0.08764  1.0000
  Fe  Fe180     1.0  0.78049  0.36141  0.02858  1.0000
  S   S350      1.0  0.79765  0.36636  0.00199  1.0000
  S   S351      1.0  0.74789  0.35838  0.07305  1.0000
  S   S352      1.0  0.74631  0.36056  0.03192  1.0000
  H   H2074     1.0  0.75110  0.20160  0.10712  1.0000
  Fe  Fe181     1.0  0.94814  0.35164  0.14303  1.0000
  S   S353      1.0  0.93669  0.37806  0.15817  1.0000
  Fe  Fe182     1.0  0.90662  0.35619  0.12734  1.0000
  S   S354      1.0  0.89234  0.38272  0.14170  1.0000
  S   S355      1.0  0.89154  0.34461  0.10711  1.0000
  Fe  Fe183     1.0  0.92343  0.39344  0.13446  1.0000
  S   S356      1.0  0.92811  0.42547  0.12332  1.0000
  Fe  Fe184     1.0  0.90689  0.36448  0.16419  1.0000
  S   S357      1.0  0.88781  0.36167  0.19028  1.0000
  S   S358      1.0  0.93705  0.36824  0.11868  1.0000
  S   S359      1.0  0.91895  0.33674  0.15045  1.0000
  C   C2607     1.0  0.68944  0.37135  0.03399  1.0000
  H   H2075     1.0  0.82891  0.45543  0.04467  1.0000
  C   C2608     1.0  0.92976  0.46032  0.13695  1.0000
  C   C2609     1.0  0.92119  0.44202  0.13898  1.0000
  C   C2610     1.0  0.90725  0.43713  0.15344  1.0000
  C   C2611     1.0  0.90124  0.45109  0.16551  1.0000
  H   H2076     1.0  0.98059  0.44081  0.15910  1.0000
  C   C2612     1.0  0.70751  0.99998  0.15248  1.0000
  H   H2077     1.0  0.90075  0.42285  0.15513  1.0000
  C   C2613     1.0  0.77391  0.41696  0.00628  1.0000
  C   C2614     1.0  0.83380  0.47594  0.13663  1.0000
  C   C2615     1.0  0.90060  0.36169  0.20831  1.0000
  C   C2616     1.0  0.92080  0.36644  0.20636  1.0000
  H   H2078     1.0  0.88997  0.44768  0.17643  1.0000
  C   C2617     1.0  0.96560  0.30668  0.20646  1.0000
  H   H2079     1.0  0.92870  0.37039  0.19381  1.0000
  C   C2618     1.0  0.71925  0.43518  0.05599  1.0000
  C   C2619     1.0  0.70093  0.44921  0.05604  1.0000
  C   C2620     1.0  0.81124  0.42931  0.15617  1.0000
  C   C2621     1.0  0.73551  0.30144  0.00909  1.0000
  C   C2622     1.0  0.73696  0.46214  0.06315  1.0000
  C   C2623     1.0  0.73729  0.44161  0.05970  1.0000
  H   H2080     1.0  0.68690  0.44445  0.05328  1.0000
  S   S360      1.0  0.66961  0.09331  0.12583  1.0000
  H   H2081     1.0  0.74281  0.45434  0.10308  1.0000
  H   H2082     1.0  0.75149  0.43082  0.05967  1.0000
  C   C2624     1.0  0.82550  0.36306  0.09162  1.0000
  C   C2625     1.0  0.83166  0.37243  0.10445  1.0000
  C   C2626     1.0  0.85197  0.36742  0.10906  1.0000
  C   C2627     1.0  0.86633  0.35293  0.10086  1.0000
  C   C2628     1.0  0.86038  0.34420  0.08756  1.0000
  C   C2629     1.0  0.84006  0.34911  0.08302  1.0000
  H   H2083     1.0  0.82051  0.38326  0.11116  1.0000
  H   H2084     1.0  0.85637  0.37437  0.11921  1.0000
  H   H2085     1.0  0.87145  0.33315  0.08100  1.0000
  H   H2086     1.0  0.83555  0.34173  0.07316  1.0000
  C   C2630     1.0  0.83218  0.42259  0.15106  1.0000
  H   H2087     1.0  0.79804  0.32267  0.00102  1.0000
  H   H2088     1.0  0.97876  0.41138  0.19607  1.0000
  H   H2089     1.0  0.94627  0.37049  0.21911  1.0000
  H   H2090     1.0  0.84313  0.41876  0.16040  1.0000
  C   C2631     1.0  0.67511  0.28316  0.06254  1.0000
  C   C2632     1.0  0.69284  0.27092  0.05573  1.0000
  C   C2633     1.0  0.71228  0.27821  0.05289  1.0000
  C   C2634     1.0  0.71434  0.29783  0.05678  1.0000
  C   C2635     1.0  0.69645  0.31046  0.06286  1.0000
  C   C2636     1.0  0.67702  0.30311  0.06579  1.0000
  H   H2091     1.0  0.69164  0.25557  0.05323  1.0000
  H   H2092     1.0  0.72598  0.26837  0.04812  1.0000
  H   H2093     1.0  0.69766  0.32560  0.06589  1.0000
  H   H2094     1.0  0.72701  0.01395  0.16529  1.0000
  H   H2095     1.0  0.76715  0.45144  0.03492  1.0000
  P   P91       1.0  0.83331  0.43097  0.00043  1.0000
  H   H2096     1.0  0.80207  0.40840  0.99048  1.0000
  C   C2637     1.0  0.97883  0.34464  0.20686  1.0000
  H   H2097     1.0  0.78065  0.40155  0.13581  1.0000
  C   C2638     1.0  0.93737  0.43226  0.22219  1.0000
  C   C2639     1.0  0.68018  0.99812  0.22755  1.0000
  H   H2098     1.0  0.69218  0.13621  0.07384  1.0000
  H   H2099     1.0  0.74796  0.26790  0.08478  1.0000
  H   H2100     1.0  0.83076  0.42407  0.10854  1.0000
  C   C2640     1.0  0.96226  0.46375  0.17347  1.0000
  H   H2101     1.0  0.66842  0.00728  0.22039  1.0000
  H   H2102     1.0  0.83633  0.38956  0.99076  1.0000
  C   C2641     1.0  0.74742  0.29919  0.99334  1.0000
  C   C2642     1.0  0.92423  0.47390  0.14921  1.0000
  H   H2103     1.0  0.66911  0.25993  0.02867  1.0000
  C   C2643     1.0  0.77368  0.47766  0.12291  1.0000
  C   C2644     1.0  0.65771  0.36583  0.01601  1.0000
  C   C2645     1.0  0.84791  0.41494  0.01622  1.0000
  C   C2646     1.0  0.83537  0.45816  0.99859  1.0000
  C   C2647     1.0  0.76710  0.02802  0.19962  1.0000
  C   C2648     1.0  0.81333  0.46859  0.06699  1.0000
  H   H2104     1.0  0.70041  0.27567  0.01675  1.0000
  C   C2649     1.0  0.73623  0.47045  0.98995  1.0000
  C   C2650     1.0  0.66338  0.32064  0.00103  1.0000
  C   C2651     1.0  0.83835  0.40075  0.02847  1.0000
  C   C2652     1.0  0.84976  0.38799  0.04044  1.0000
  C   C2653     1.0  0.87087  0.38900  0.04011  1.0000
  C   C2654     1.0  0.88067  0.40260  0.02764  1.0000
  C   C2655     1.0  0.86930  0.41536  0.01561  1.0000
  C   C2656     1.0  0.80600  0.43030  0.00706  1.0000
  C   C2657     1.0  0.79482  0.41781  0.00024  1.0000
  C   C2658     1.0  0.68318  0.99433  0.18411  1.0000
  C   C2659     1.0  0.67833  0.08033  0.20284  1.0000
  C   C2660     1.0  0.86935  0.42860  0.07206  1.0000
  C   C2661     1.0  0.79581  0.44233  0.01970  1.0000
  H   H2105     1.0  0.66630  0.39175  0.04765  1.0000
  H   H2106     1.0  0.95030  0.40443  0.18138  1.0000
  C   C2662     1.0  0.91878  0.47185  0.09128  1.0000
  H   H2107     1.0  0.76289  0.29053  0.99281  1.0000
  H   H2108     1.0  0.83552  0.46950  0.11079  1.0000
  C   C2663     1.0  0.71069  0.17186  0.10960  1.0000
  H   H2109     1.0  0.75088  0.46708  0.06595  1.0000
  H   H2110     1.0  0.92838  0.31029  0.22915  1.0000
  H   H2111     1.0  0.70165  0.37354  0.04108  1.0000
  C   C2664     1.0  0.69260  0.26869  0.00850  1.0000
  H   H2112     1.0  0.82210  0.39928  0.02879  1.0000
  H   H2113     1.0  0.81887  0.47081  0.14052  1.0000
  H   H2114     1.0  0.87968  0.37899  0.04938  1.0000
  H   H2115     1.0  0.89716  0.40302  0.02718  1.0000
  H   H2116     1.0  0.96024  0.29214  0.20607  1.0000
  H   H2117     1.0  0.95056  0.45404  0.17887  1.0000
  H   H2118     1.0  0.86322  0.46131  0.06521  1.0000
  C   C2665     1.0  0.69197  0.04728  0.21740  1.0000
  C   C2666     1.0  0.90950  0.46967  0.16320  1.0000
  H   H2119     1.0  0.72833  0.37234  0.99511  1.0000
  H   H2120     1.0  0.82329  0.41962  0.05668  1.0000
  C   C2667     1.0  0.68265  0.07226  0.18727  1.0000
  H   H2121     1.0  0.86407  0.42511  0.06071  1.0000
  C   C2668     1.0  0.88277  0.43749  0.10152  1.0000
  C   C2669     1.0  0.94674  0.41220  0.19271  1.0000
  C   C2670     1.0  0.81768  0.43225  0.06406  1.0000
  P   P92       1.0  0.72131  0.20247  0.08294  1.0000
  C   C2671     1.0  0.74743  0.18932  0.08419  1.0000
  H   H2122     1.0  0.67083  0.09607  0.20334  1.0000
  C   C2672     1.0  0.95810  0.42623  0.21562  1.0000
  H   H2123     1.0  0.69609  0.10746  0.09703  1.0000
  S   S361      1.0  0.98064  0.33374  0.14439  1.0000
  C   C2673     1.0  0.84326  0.47531  0.11981  1.0000
  H   H2124     1.0  0.74176  0.29446  0.02077  1.0000
  C   C2674     1.0  0.75682  0.17600  0.07222  1.0000
  C   C2675     1.0  0.77690  0.16554  0.07345  1.0000
  C   C2676     1.0  0.78768  0.16820  0.08667  1.0000
  C   C2677     1.0  0.77835  0.18128  0.09873  1.0000
  C   C2678     1.0  0.75827  0.19175  0.09754  1.0000
  C   C2679     1.0  0.71552  0.20445  0.06124  1.0000
  C   C2680     1.0  0.72181  0.22047  0.04902  1.0000
  C   C2681     1.0  0.71690  0.22233  0.03232  1.0000
  C   C2682     1.0  0.70585  0.20809  0.02767  1.0000
  C   C2683     1.0  0.70019  0.19168  0.03961  1.0000
  C   C2684     1.0  0.70520  0.18973  0.05628  1.0000
  C   C2685     1.0  0.67781  0.35532  0.01220  1.0000
  C   C2686     1.0  0.71569  0.31298  0.00984  1.0000
  H   H2125     1.0  0.98366  0.35950  0.20706  1.0000
  H   H2126     1.0  0.91753  0.45573  0.09144  1.0000
  C   C2687     1.0  0.72927  0.38840  0.99045  1.0000
  C   C2688     1.0  0.69174  0.05174  0.18671  1.0000
  H   H2127     1.0  0.66118  0.32059  0.02848  1.0000
  H   H2128     1.0  0.79712  0.47757  0.09060  1.0000
  C   C2689     1.0  0.98586  0.42601  0.11467  1.0000
  H   H2129     1.0  0.74863  0.17350  0.06202  1.0000
  H   H2130     1.0  0.78405  0.15524  0.06420  1.0000
  H   H2131     1.0  0.80321  0.16003  0.08763  1.0000
  H   H2132     1.0  0.78664  0.18321  0.10906  1.0000
  C   C2690     1.0  0.68140  0.11750  0.09669  1.0000
  H   H2133     1.0  0.73030  0.23166  0.05241  1.0000
  H   H2134     1.0  0.72145  0.23497  0.02307  1.0000
  H   H2135     1.0  0.70156  0.20979  0.01487  1.0000
  H   H2136     1.0  0.69151  0.18061  0.03612  1.0000
  H   H2137     1.0  0.70077  0.17682  0.06529  1.0000
  C   C2691     1.0  0.74551  0.02881  0.20163  1.0000
  C   C2692     1.0  0.79956  0.44449  0.09017  1.0000
  P   P93       1.0  0.78574  0.43924  0.11119  1.0000
  C   C2693     1.0  0.66454  0.25091  0.00471  1.0000
  H   H2138     1.0  0.67859  0.08178  0.17564  1.0000
  H   H2139     1.0  0.98357  0.37624  0.14832  1.0000
  C   C2694     1.0  0.89046  0.35696  0.22485  1.0000
  C   C2695     1.0  0.69373  0.35842  0.02114  1.0000
  C   C2696     1.0  0.68300  0.06785  0.21789  1.0000
  C   C2697     1.0  0.71342  0.00622  0.16686  1.0000
  H   H2140     1.0  0.72704  0.16786  0.11080  1.0000
  H   H2141     1.0  0.84221  0.37717  0.04991  1.0000
  P   P94       1.0  0.70875  0.01272  0.20106  1.0000
  H   H2142     1.0  0.78099  0.43955  0.14822  1.0000
  C   C2698     1.0  0.68204  0.19210  0.09604  1.0000
  S   S362      1.0  0.65959  0.16766  0.06583  1.0000
  C   C2699     1.0  0.76097  0.41660  0.09795  1.0000
  H   H2143     1.0  0.90526  0.43288  0.21843  1.0000
  H   H2144     1.0  0.69521  0.03783  0.22923  1.0000
  C   C2700     1.0  0.70779  0.32272  0.99480  1.0000
  C   C2701     1.0  0.67920  0.13387  0.08355  1.0000
  C   C2702     1.0  0.79719  0.43445  0.14407  1.0000
  H   H2145     1.0  0.74770  0.42830  0.02358  1.0000
  C   C2703     1.0  0.73660  0.01212  0.19829  1.0000
  C   C2704     1.0  0.72450  0.42416  0.99550  1.0000
  C   C2705     1.0  0.91796  0.48030  0.22048  1.0000
  C   C2706     1.0  0.77189  0.41759  0.11162  1.0000
  H   H2146     1.0  0.67900  0.07394  0.23003  1.0000
  C   C2707     1.0  0.67500  0.25962  0.01529  1.0000
  C   C2708     1.0  0.74990  0.38448  0.11177  1.0000
  P   P95       1.0  0.68243  0.33824  0.99587  1.0000
  H   H2147     1.0  0.95193  0.46564  0.09137  1.0000
  C   C2709     1.0  0.73483  0.25943  0.08825  1.0000
  C   C2710     1.0  0.66817  0.18082  0.10702  1.0000
  H   H2148     1.0  0.69477  0.04581  0.17453  1.0000
  C   C2711     1.0  0.75350  0.47538  0.99622  1.0000
  C   C2712     1.0  0.76749  0.46202  0.11546  1.0000
  H   H2149     1.0  0.76114  0.42847  0.08713  1.0000
  C   C2713     1.0  0.70022  0.23856  0.09547  1.0000
  C   C2714     1.0  0.74980  0.40030  0.09812  1.0000
  H   H2150     1.0  0.68357  0.26697  0.10353  1.0000
  H   H2151     1.0  0.76157  0.37249  0.13564  1.0000
  H   H2152     1.0  0.80396  0.45225  0.02513  1.0000
  S   S363      1.0  0.65725  0.04266  0.15446  1.0000
  C   C2715     1.0  0.93089  0.36621  0.22072  1.0000
  C   C2716     1.0  0.70124  0.99743  0.22110  1.0000
  H   H2153     1.0  0.77388  0.04097  0.20219  1.0000
  C   C2717     1.0  0.82076  0.45238  0.05733  1.0000
  C   C2718     1.0  0.86896  0.44915  0.07467  1.0000
  H   H2154     1.0  0.80594  0.43059  0.16953  1.0000
  C   C2719     1.0  0.76115  0.38501  0.12527  1.0000
  H   H2155     1.0  0.98001  0.33543  0.23365  1.0000
  H   H2156     1.0  0.66482  0.15558  0.12708  1.0000
  C   C2720     1.0  0.83902  0.42074  0.13388  1.0000
  H   H2157     1.0  0.74130  0.39984  0.08752  1.0000
  C   C2721     1.0  0.77204  0.40154  0.12526  1.0000
  H   H2158     1.0  0.85522  0.41535  0.13000  1.0000
  C   C2722     1.0  0.72228  0.40355  0.00126  1.0000
  C   C2723     1.0  0.77994  0.01058  0.19430  1.0000
  H   H2159     1.0  0.75123  0.23196  0.07876  1.0000
  H   H2160     1.0  0.73262  0.98553  0.22676  1.0000
  C   C2724     1.0  0.74794  0.46553  0.10949  1.0000
  H   H2161     1.0  0.76573  0.40647  0.00149  1.0000
  H   H2162     1.0  0.97071  0.42920  0.22173  1.0000
  C   C2725     1.0  0.92139  0.42835  0.21367  1.0000
  C   C2726     1.0  0.69853  0.25896  0.09881  1.0000
  C   C2727     1.0  0.80728  0.42827  0.08044  1.0000
  C   C2728     1.0  0.70343  0.18790  0.09735  1.0000
  C   C2729     1.0  0.79416  0.33093  0.98891  1.0000
  H   H2163     1.0  0.68454  0.98660  0.14267  1.0000
  C   C2730     1.0  0.80280  0.46471  0.08339  1.0000
  H   H2164     1.0  0.88793  0.44068  0.11305  1.0000
  H   H2165     1.0  0.67607  0.20380  0.08629  1.0000
  C   C2731     1.0  0.80403  0.43290  0.12673  1.0000
  C   C2732     1.0  0.88353  0.41700  0.09869  1.0000
  C   C2733     1.0  0.77486  0.44179  0.02543  1.0000
  H   H2166     1.0  0.70244  0.14760  0.12941  1.0000
  H   H2167     1.0  0.70272  0.47272  0.99353  1.0000
  C   C2734     1.0  0.69678  0.16033  0.12031  1.0000
  H   H2168     1.0  0.71432  0.28542  0.09725  1.0000
  H   H2169     1.0  0.71573  0.39932  0.01432  1.0000
  H   H2170     1.0  0.71952  0.43534  0.00438  1.0000
  H   H2171     1.0  0.66343  0.31280  0.07100  1.0000
  C   C2735     1.0  0.92608  0.41836  0.19901  1.0000
  C   C2736     1.0  0.71584  0.26936  0.09527  1.0000
  C   C2737     1.0  0.82076  0.27484  0.18849  1.0000
  C   C2738     1.0  0.82668  0.25446  0.18510  1.0000
  C   C2739     1.0  0.83169  0.25015  0.16824  1.0000
  C   C2740     1.0  0.83090  0.26622  0.15475  1.0000
  C   C2741     1.0  0.82525  0.28676  0.15806  1.0000
  C   C2742     1.0  0.81995  0.29094  0.17504  1.0000
  P   P96       1.0  0.82373  0.30762  0.14075  1.0000
  C   C2743     1.0  0.83179  0.32968  0.14757  1.0000
  C   C2744     1.0  0.84096  0.29962  0.12235  1.0000
  C   C2745     1.0  0.83369  0.28944  0.11060  1.0000
  C   C2746     1.0  0.84699  0.28292  0.09648  1.0000
  C   C2747     1.0  0.86773  0.28623  0.09412  1.0000
  C   C2748     1.0  0.87517  0.29602  0.10588  1.0000
  C   C2749     1.0  0.86186  0.30277  0.11989  1.0000
  C   C2750     1.0  0.84899  0.32691  0.15670  1.0000
  C   C2751     1.0  0.85501  0.34368  0.16251  1.0000
  C   C2752     1.0  0.84384  0.36336  0.15945  1.0000
  C   C2753     1.0  0.82667  0.36630  0.15040  1.0000
  C   C2754     1.0  0.82067  0.34954  0.14444  1.0000
  C   C2755     1.0  0.79744  0.31386  0.13548  1.0000
  C   C2756     1.0  0.78061  0.30800  0.14712  1.0000
  C   C2757     1.0  0.76036  0.31287  0.14274  1.0000
  C   C2758     1.0  0.75680  0.32362  0.12676  1.0000
  C   C2759     1.0  0.77346  0.32959  0.11520  1.0000
  C   C2760     1.0  0.79368  0.32479  0.11955  1.0000
  H   H2172     1.0  0.81686  0.27819  0.20156  1.0000
  H   H2173     1.0  0.82737  0.24200  0.19554  1.0000
  H   H2174     1.0  0.83625  0.23434  0.16562  1.0000
  H   H2175     1.0  0.83482  0.26253  0.14180  1.0000
  H   H2176     1.0  0.81523  0.30664  0.17789  1.0000
  H   H2177     1.0  0.81773  0.28654  0.11228  1.0000
  H   H2178     1.0  0.84119  0.27543  0.08731  1.0000
  H   H2179     1.0  0.87801  0.28143  0.08310  1.0000
  H   H2180     1.0  0.89114  0.29903  0.10391  1.0000
  H   H2181     1.0  0.86803  0.31076  0.12848  1.0000
  H   H2182     1.0  0.85786  0.31178  0.15929  1.0000
  H   H2183     1.0  0.86843  0.34142  0.16939  1.0000
  H   H2184     1.0  0.84868  0.37626  0.16404  1.0000
  H   H2185     1.0  0.81821  0.38161  0.14779  1.0000
  H   H2186     1.0  0.80754  0.35226  0.13724  1.0000
  H   H2187     1.0  0.78300  0.29966  0.15954  1.0000
  H   H2188     1.0  0.74742  0.30825  0.15171  1.0000
  H   H2189     1.0  0.74115  0.32732  0.12330  1.0000
  H   H2190     1.0  0.77082  0.33801  0.10282  1.0000
  H   H2191     1.0  0.80641  0.32961  0.11044  1.0000
  H   H2192     1.0  0.74155  0.37167  0.11171  1.0000
  H   H2193     1.0  0.87717  0.39658  0.08205  1.0000
  C   C2761     1.0  0.71624  0.47641  0.99814  1.0000
  H   H2194     1.0  0.73588  0.04246  0.20581  1.0000
  H   H2195     1.0  0.88966  0.40454  0.10778  1.0000
  H   H2196     1.0  0.76911  0.47093  0.99028  1.0000
  C   C2762     1.0  0.84668  0.46588  0.00930  1.0000
  H   H2197     1.0  0.94087  0.46392  0.12601  1.0000
  C   C2763     1.0  0.87585  0.45374  0.08939  1.0000
  C   C2764     1.0  0.70153  0.00312  0.18291  1.0000
  H   H2198     1.0  0.91810  0.47074  0.21055  1.0000
  C   C2765     1.0  0.73656  0.23906  0.08481  1.0000
  C   C2766     1.0  0.65686  0.31177  0.98813  1.0000
  C   C2767     1.0  0.70045  0.46931  0.05981  1.0000
  H   H2199     1.0  0.67300  0.99266  0.19594  1.0000
  H   H2200     1.0  0.85596  0.45564  0.01799  1.0000
  H   H2201     1.0  0.97764  0.45341  0.12697  1.0000
  H   H2202     1.0  0.87471  0.35349  0.22647  1.0000
  C   C2768     1.0  0.66060  0.14742  0.08302  1.0000
  H   H2203     1.0  0.97521  0.35022  0.18005  1.0000
  H   H2204     1.0  0.87720  0.42543  0.00575  1.0000
  C   C2769     1.0  0.71623  0.98611  0.23109  1.0000
  H   H2205     1.0  0.79667  0.01002  0.19273  1.0000
  C   C2770     1.0  0.96728  0.32057  0.19150  1.0000
  C   C2771     1.0  0.97689  0.33090  0.22191  1.0000
  H   H2206     1.0  0.66283  0.98204  0.17044  1.0000
  H   H2207     1.0  0.96336  0.31674  0.17969  1.0000
  C   C2772     1.0  0.71838  0.47604  0.06325  1.0000
  H   H2208     1.0  0.78907  0.47602  0.12664  1.0000
  C   C2773     1.0  0.97398  0.33950  0.19168  1.0000
  C   C2774     1.0  0.97906  0.45650  0.16199  1.0000
  H   H2209     1.0  0.68601  0.47979  0.05999  1.0000
  C   C2775     1.0  0.67164  0.25126  0.98735  1.0000
  C   C2776     1.0  0.97066  0.31165  0.22175  1.0000
  C   C2777     1.0  0.77119  0.99387  0.19102  1.0000
  C   C2778     1.0  0.74961  0.99459  0.19304  1.0000
  H   H2210     1.0  0.71653  0.00271  0.14011  1.0000
  C   C2779     1.0  0.69986  0.26898  0.99113  1.0000
  C   C2780     1.0  0.68949  0.99090  0.15390  1.0000
  P   P97       1.0  0.87527  0.48012  0.09319  1.0000
  C   C2781     1.0  0.97732  0.26764  0.23516  1.0000
  C   C2782     1.0  0.93845  0.47743  0.09122  1.0000
  H   H2211     1.0  0.74301  0.98148  0.19055  1.0000
  H   H2212     1.0  0.96958  0.46226  0.23670  1.0000
  C   C2783     1.0  0.92347  0.47174  0.23667  1.0000
  C   C2784     1.0  0.82270  0.47210  0.98807  1.0000
  Fe  Fe185     1.0  0.80718  0.06573  0.40401  1.0000
  S   S364      1.0  0.77413  0.08176  0.40375  1.0000
  S   S365      1.0  0.83663  0.07838  0.40804  1.0000
  Fe  Fe186     1.0  0.79344  0.02233  0.40610  1.0000
  S   S366      1.0  0.75989  0.03546  0.40616  1.0000
  H   H2213     1.0  0.90189  0.99533  0.46074  1.0000
  Fe  Fe187     1.0  0.77086  0.05943  0.38553  1.0000
  S   S367      1.0  0.75588  0.06669  0.36072  1.0000
  Fe  Fe188     1.0  0.76590  0.05614  0.42428  1.0000
  S   S368      1.0  0.74391  0.05768  0.44871  1.0000
  S   S369      1.0  0.80472  0.04506  0.38430  1.0000
  S   S370      1.0  0.79866  0.04148  0.42570  1.0000
  H   H2214     1.0  0.89309  0.38587  0.26521  1.0000
  H   H2215     1.0  0.78073  0.07562  0.45115  1.0000
  Fe  Fe189     1.0  0.90620  0.37592  0.31294  1.0000
  S   S371      1.0  0.93651  0.37565  0.29621  1.0000
  S   S372      1.0  0.88824  0.40683  0.31895  1.0000
  Fe  Fe190     1.0  0.90817  0.32898  0.31622  1.0000
  S   S373      1.0  0.93834  0.32585  0.29916  1.0000
  S   S374      1.0  0.89813  0.29743  0.32540  1.0000
  Fe  Fe191     1.0  0.94742  0.34812  0.31414  1.0000
  S   S375      1.0  0.97861  0.33974  0.32366  1.0000
  Fe  Fe192     1.0  0.92483  0.35347  0.28250  1.0000
  S   S376      1.0  0.93609  0.35794  0.25425  1.0000
  S   S377      1.0  0.91806  0.34993  0.33234  1.0000
  S   S378      1.0  0.89347  0.35510  0.29811  1.0000
  Fe  Fe193     1.0  0.94650  0.18254  0.40215  1.0000
  S   S379      1.0  0.93966  0.20532  0.42110  1.0000
  S   S380      1.0  0.97930  0.17519  0.38897  1.0000
  Fe  Fe194     1.0  0.90041  0.17560  0.40509  1.0000
  S   S381      1.0  0.89099  0.19806  0.42442  1.0000
  S   S382      1.0  0.87319  0.16437  0.39571  1.0000
  Fe  Fe195     1.0  0.91205  0.21829  0.40731  1.0000
  S   S383      1.0  0.90403  0.25308  0.40138  1.0000
  Fe  Fe196     1.0  0.91962  0.18288  0.43598  1.0000
  S   S384      1.0  0.92142  0.17035  0.46363  1.0000
  S   S385      1.0  0.91997  0.19691  0.38736  1.0000
  S   S386      1.0  0.92791  0.15900  0.41780  1.0000
  H   H2216     1.0  0.88856  0.27295  0.45958  1.0000
  C   C2785     1.0  0.70758  0.02208  0.28413  1.0000
  H   H2217     1.0  0.87330  0.45016  0.31969  1.0000
  C   C2786     1.0  0.73825  0.00484  0.35569  1.0000
  S   S387      1.0  0.66232  0.04206  0.30343  1.0000
  C   C2787     1.0  0.92302  0.18751  0.47815  1.0000
  C   C2788     1.0  0.91721  0.20880  0.47448  1.0000
  H   H2218     1.0  0.91254  0.21522  0.46212  1.0000
  C   C2789     1.0  0.90188  0.28552  0.34636  1.0000
  C   C2790     1.0  0.89939  0.29700  0.36010  1.0000
  C   C2791     1.0  0.90038  0.28688  0.37685  1.0000
  C   C2792     1.0  0.90411  0.26523  0.38001  1.0000
  C   C2793     1.0  0.90728  0.25382  0.36618  1.0000
  C   C2794     1.0  0.90612  0.26393  0.34948  1.0000
  H   H2219     1.0  0.89608  0.31364  0.35790  1.0000
  H   H2220     1.0  0.89799  0.29588  0.38743  1.0000
  H   H2221     1.0  0.91032  0.23721  0.36833  1.0000
  H   H2222     1.0  0.90869  0.25500  0.33892  1.0000
  H   H2223     1.0  0.98147  0.18935  0.42152  1.0000
  C   C2795     1.0  0.82297  0.16242  0.34975  1.0000
  C   C2796     1.0  0.69588  0.05448  0.37055  1.0000
  H   H2224     1.0  0.70696  0.02327  0.44089  1.0000
  S   S388      1.0  0.80122  0.98758  0.41258  1.0000
  H   H2225     1.0  0.96707  0.21815  0.24598  1.0000
  C   C2797     1.0  0.92307  0.42677  0.31257  1.0000
  C   C2798     1.0  0.90141  0.42874  0.31582  1.0000
  C   C2799     1.0  0.69007  0.05496  0.35416  1.0000
  H   H2226     1.0  0.93205  0.41175  0.31186  1.0000
  C   C2800     1.0  0.87865  0.26102  0.46111  1.0000
  H   H2227     1.0  0.92716  0.47869  0.26174  1.0000
  C   C2801     1.0  0.98050  0.14775  0.45353  1.0000
  C   C2802     1.0  0.84650  0.10248  0.40413  1.0000
  C   C2803     1.0  0.86513  0.10385  0.41042  1.0000
  C   C2804     1.0  0.87344  0.12262  0.40813  1.0000
  C   C2805     1.0  0.86333  0.14029  0.39928  1.0000
  C   C2806     1.0  0.84475  0.13895  0.39290  1.0000
  C   C2807     1.0  0.83634  0.12021  0.39531  1.0000
  H   H2228     1.0  0.87322  0.09023  0.41711  1.0000
  H   H2229     1.0  0.88776  0.12333  0.41305  1.0000
  H   H2230     1.0  0.83679  0.15251  0.38604  1.0000
  H   H2231     1.0  0.82206  0.11947  0.39032  1.0000
  H   H2232     1.0  0.89284  0.31336  0.24399  1.0000
  H   H2233     1.0  0.95738  0.25489  0.41385  1.0000
  H   H2234     1.0  0.76188  0.02599  0.48192  1.0000
  H   H2235     1.0  0.96319  0.32192  0.26633  1.0000
  C   C2808     1.0  0.82612  0.05198  0.47219  1.0000
  C   C2809     1.0  0.73069  0.06133  0.35854  1.0000
  C   C2810     1.0  0.72504  0.06146  0.34214  1.0000
  C   C2811     1.0  0.70491  0.05811  0.33994  1.0000
  H   H2236     1.0  0.66355  0.00310  0.35482  1.0000
  H   H2237     1.0  0.70541  0.99333  0.30002  1.0000
  C   C2812     1.0  0.71605  0.05748  0.37275  1.0000
  H   H2238     1.0  0.73622  0.06441  0.33107  1.0000
  H   H2239     1.0  0.70073  0.05852  0.32726  1.0000
  H   H2240     1.0  0.97364  0.19811  0.46303  1.0000
  H   H2241     1.0  0.72009  0.05743  0.38543  1.0000
  P   P98       1.0  0.73438  0.99003  0.32519  1.0000
  C   C2813     1.0  0.75259  0.06687  0.46566  1.0000
  C   C2814     1.0  0.77123  0.07511  0.46342  1.0000
  H   H2242     1.0  0.94576  0.26930  0.32310  1.0000
  C   C2815     1.0  0.96987  0.45102  0.24802  1.0000
  C   C2816     1.0  0.89587  0.44378  0.26612  1.0000
  H   H2243     1.0  0.77672  0.01517  0.45379  1.0000
  C   C2817     1.0  0.71602  0.04053  0.28141  1.0000
  H   H2244     1.0  0.95144  0.28125  0.27621  1.0000
  C   C2818     1.0  0.73573  0.00272  0.43862  1.0000
  C   C2819     1.0  0.97788  0.25169  0.35362  1.0000
  H   H2245     1.0  0.87749  0.27442  0.30210  1.0000
  C   C2820     1.0  0.96171  0.25244  0.34379  1.0000
  C   C2821     1.0  0.90881  0.41173  0.25441  1.0000
  C   C2822     1.0  0.93327  0.44417  0.31113  1.0000
  H   H2246     1.0  0.68798  0.00176  0.42764  1.0000
  C   C2823     1.0  0.92592  0.30422  0.24252  1.0000
  H   H2247     1.0  0.69315  0.00484  0.39440  1.0000
  C   C2824     1.0  0.66146  0.00907  0.38943  1.0000
  S   S389      1.0  0.66394  0.05222  0.35235  1.0000
  P   P99       1.0  0.93102  0.44426  0.24168  1.0000
  C   C2825     1.0  0.77733  0.08324  0.47694  1.0000
  H   H2248     1.0  0.71112  0.05256  0.27148  1.0000
  H   H2249     1.0  0.97106  0.41167  0.28912  1.0000
  C   C2826     1.0  0.98794  0.43277  0.27143  1.0000
  H   H2250     1.0  0.97914  0.36988  0.29336  1.0000
  C   C2827     1.0  0.77680  0.00392  0.46511  1.0000
  C   C2828     1.0  0.74053  0.06603  0.48168  1.0000
  C   C2829     1.0  0.96625  0.22889  0.46921  1.0000
  C   C2830     1.0  0.73597  0.02847  0.30514  1.0000
  H   H2251     1.0  0.75666  0.13021  0.46275  1.0000
  H   H2252     1.0  0.91997  0.40259  0.24616  1.0000
  H   H2253     1.0  0.72227  0.00291  0.35993  1.0000
  C   C2831     1.0  0.90028  0.46597  0.31550  1.0000
  C   C2832     1.0  0.89006  0.44847  0.31712  1.0000
  C   C2833     1.0  0.88810  0.01487  0.47992  1.0000
  H   H2254     1.0  0.95360  0.38498  0.34007  1.0000
  C   C2834     1.0  0.76872  0.00352  0.33459  1.0000
  C   C2835     1.0  0.67414  0.98761  0.24353  1.0000
  C   C2836     1.0  0.98602  0.38535  0.24804  1.0000
  H   H2255     1.0  0.80544  0.18253  0.47238  1.0000
  C   C2837     1.0  0.94269  0.29527  0.25148  1.0000
  C   C2838     1.0  0.98845  0.24390  0.42008  1.0000
  C   C2839     1.0  0.86216  0.23765  0.44869  1.0000
  C   C2840     1.0  0.71304  0.00698  0.29752  1.0000
  C   C2841     1.0  0.74794  0.00034  0.33951  1.0000
  C   C2842     1.0  0.85764  0.23754  0.47950  1.0000
  C   C2843     1.0  0.97071  0.24362  0.47850  1.0000
  H   H2256     1.0  0.74653  0.03162  0.31333  1.0000
  C   C2844     1.0  0.95649  0.41607  0.34358  1.0000
  H   H2257     1.0  0.80256  0.18244  0.36581  1.0000
  C   C2845     1.0  0.78491  0.98328  0.46377  1.0000
  C   C2846     1.0  0.90198  0.29939  0.26840  1.0000
  C   C2847     1.0  0.91854  0.29031  0.27738  1.0000
  C   C2848     1.0  0.90081  0.35627  0.23928  1.0000
  C   C2849     1.0  0.87017  0.25327  0.47742  1.0000
  C   C2850     1.0  0.71038  0.98217  0.33609  1.0000
  C   C2851     1.0  0.95295  0.44020  0.25373  1.0000
  H   H2258     1.0  0.86836  0.40559  0.28556  1.0000
  C   C2852     1.0  0.95338  0.42624  0.26879  1.0000
  H   H2259     1.0  0.92225  0.08824  0.48589  1.0000
  H   H2260     1.0  0.95005  0.44232  0.30916  1.0000
  C   C2853     1.0  0.93879  0.28811  0.26896  1.0000
  H   H2261     1.0  0.80188  0.21774  0.45660  1.0000
  H   H2262     1.0  0.88638  0.30162  0.27505  1.0000
  C   C2854     1.0  0.98396  0.15805  0.46673  1.0000
  C   C2855     1.0  0.73013  0.04375  0.29196  1.0000
  C   C2856     1.0  0.90991  0.43273  0.25456  1.0000
  H   H2263     1.0  0.81295  0.15052  0.35200  1.0000
  H   H2264     1.0  0.68455  0.05222  0.38165  1.0000
  C   C2857     1.0  0.87635  0.09709  0.45233  1.0000
  C   C2858     1.0  0.89383  0.10720  0.45011  1.0000
  C   C2859     1.0  0.89158  0.12808  0.45215  1.0000
  C   C2860     1.0  0.87183  0.13896  0.45607  1.0000
  C   C2861     1.0  0.85411  0.12910  0.45765  1.0000
  C   C2862     1.0  0.85655  0.10792  0.45629  1.0000
  P   P100      1.0  0.82870  0.14316  0.46306  1.0000
  C   C2863     1.0  0.82753  0.16933  0.45267  1.0000
  C   C2864     1.0  0.80856  0.13339  0.45478  1.0000
  C   C2865     1.0  0.78810  0.13566  0.46303  1.0000
  C   C2866     1.0  0.77229  0.12911  0.45606  1.0000
  C   C2867     1.0  0.77674  0.12037  0.44080  1.0000
  C   C2868     1.0  0.79698  0.11835  0.43240  1.0000
  C   C2869     1.0  0.81277  0.12512  0.43921  1.0000
  C   C2870     1.0  0.83810  0.17333  0.43622  1.0000
  C   C2871     1.0  0.83606  0.19326  0.42743  1.0000
  C   C2872     1.0  0.82316  0.20930  0.43485  1.0000
  C   C2873     1.0  0.81223  0.20538  0.45108  1.0000
  C   C2874     1.0  0.81438  0.18545  0.46000  1.0000
  H   H2265     1.0  0.82423  0.06053  0.45970  1.0000
  H   H2266     1.0  0.76460  0.11477  0.43564  1.0000
  H   H2267     1.0  0.79568  0.01308  0.34199  1.0000
  H   H2268     1.0  0.91575  0.28546  0.29100  1.0000
  H   H2269     1.0  0.90913  0.09889  0.44679  1.0000
  H   H2270     1.0  0.90515  0.13590  0.45062  1.0000
  H   H2271     1.0  0.87047  0.15512  0.45766  1.0000
  H   H2272     1.0  0.84317  0.09982  0.45800  1.0000
  H   H2273     1.0  0.79735  0.03968  0.47439  1.0000
  H   H2274     1.0  0.95123  0.24098  0.34688  1.0000
  C   C2875     1.0  0.96414  0.39558  0.34135  1.0000
  H   H2275     1.0  0.80047  0.11139  0.42064  1.0000
  H   H2276     1.0  0.82823  0.12394  0.43228  1.0000
  H   H2277     1.0  0.84766  0.16099  0.42998  1.0000
  H   H2278     1.0  0.84452  0.21736  0.46624  1.0000
  H   H2279     1.0  0.82142  0.22468  0.42787  1.0000
  C   C2876     1.0  0.98539  0.38868  0.34094  1.0000
  H   H2280     1.0  0.94394  0.20569  0.33266  1.0000
  C   C2877     1.0  0.72762  0.00982  0.30792  1.0000
  H   H2281     1.0  0.97040  0.39318  0.25094  1.0000
  C   C2878     1.0  0.93070  0.19807  0.33822  1.0000
  C   C2879     1.0  0.93381  0.17866  0.34781  1.0000
  C   C2880     1.0  0.91674  0.16900  0.35533  1.0000
  C   C2881     1.0  0.89659  0.17881  0.35341  1.0000
  C   C2882     1.0  0.89328  0.19825  0.34368  1.0000
  C   C2883     1.0  0.91054  0.20784  0.33616  1.0000
  P   P101      1.0  0.86716  0.21156  0.34227  1.0000
  C   C2884     1.0  0.84942  0.19276  0.34463  1.0000
  C   C2885     1.0  0.86009  0.22750  0.35936  1.0000
  C   C2886     1.0  0.86765  0.22104  0.37513  1.0000
  C   C2887     1.0  0.86307  0.23376  0.38809  1.0000
  C   C2888     1.0  0.85090  0.25298  0.38546  1.0000
  C   C2889     1.0  0.84259  0.25918  0.37006  1.0000
  C   C2890     1.0  0.84688  0.24636  0.35714  1.0000
  C   C2891     1.0  0.83029  0.19553  0.35502  1.0000
  H   H2282     1.0  0.94040  0.41802  0.27381  1.0000
  C   C2892     1.0  0.97012  0.42982  0.34491  1.0000
  C   C2893     1.0  0.84188  0.15962  0.33928  1.0000
  C   C2894     1.0  0.85504  0.17474  0.33667  1.0000
  C   C2895     1.0  0.86668  0.22730  0.32171  1.0000
  C   C2896     1.0  0.87273  0.24705  0.31942  1.0000
  C   C2897     1.0  0.87288  0.25917  0.30355  1.0000
  C   C2898     1.0  0.86707  0.25166  0.28973  1.0000
  C   C2899     1.0  0.86104  0.23203  0.29182  1.0000
  C   C2900     1.0  0.86085  0.21987  0.30774  1.0000
  C   C2901     1.0  0.97226  0.28303  0.32643  1.0000
  H   H2283     1.0  0.94940  0.17132  0.34981  1.0000
  H   H2284     1.0  0.91906  0.15421  0.36320  1.0000
  H   H2285     1.0  0.88364  0.17132  0.35988  1.0000
  H   H2286     1.0  0.90853  0.22294  0.32887  1.0000
  H   H2287     1.0  0.87732  0.20632  0.37736  1.0000
  H   H2288     1.0  0.86963  0.22904  0.39996  1.0000
  H   H2289     1.0  0.84822  0.26317  0.39526  1.0000
  H   H2290     1.0  0.83317  0.27411  0.36800  1.0000
  H   H2291     1.0  0.84021  0.25141  0.34534  1.0000
  H   H2292     1.0  0.82560  0.20914  0.36145  1.0000
  H   H2293     1.0  0.84650  0.14553  0.33344  1.0000
  H   H2294     1.0  0.86981  0.17216  0.32875  1.0000
  H   H2295     1.0  0.87729  0.25325  0.32991  1.0000
  H   H2296     1.0  0.97931  0.46608  0.29358  1.0000
  H   H2297     1.0  0.86721  0.26109  0.27742  1.0000
  H   H2298     1.0  0.85651  0.22622  0.28111  1.0000
  H   H2299     1.0  0.85618  0.20474  0.30903  1.0000
  H   H2300     1.0  0.87497  0.02109  0.47306  1.0000
  H   H2301     1.0  0.74392  0.01247  0.44425  1.0000
  C   C2902     1.0  0.77003  0.01461  0.36194  1.0000
  C   C2903     1.0  0.77971  0.01056  0.34580  1.0000
  H   H2302     1.0  0.84430  0.19608  0.41470  1.0000
  H   H2303     1.0  0.96494  0.14484  0.45260  1.0000
  H   H2304     1.0  0.85553  0.06148  0.47328  1.0000
  H   H2305     1.0  0.87811  0.08093  0.45067  1.0000
  H   H2306     1.0  0.98340  0.23778  0.43307  1.0000
  C   C2904     1.0  0.97451  0.23102  0.23930  1.0000
  H   H2307     1.0  0.77841  0.02035  0.37054  1.0000
  C   C2905     1.0  0.82497  0.14117  0.48604  1.0000
  C   C2906     1.0  0.97084  0.42255  0.27756  1.0000
  H   H2308     1.0  0.89675  0.45971  0.26710  1.0000
  H   H2309     1.0  0.73621  0.05830  0.29020  1.0000
  C   C2907     1.0  0.74933  0.01184  0.36685  1.0000
  H   H2310     1.0  0.98607  0.46623  0.32219  1.0000
  C   C2908     1.0  0.67573  0.99135  0.35044  1.0000
  H   H2311     1.0  0.65783  0.98835  0.24838  1.0000
  H   H2312     1.0  0.74175  0.01557  0.37922  1.0000
  C   C2909     1.0  0.67911  0.99776  0.39586  1.0000
  C   C2910     1.0  0.69409  0.99719  0.34140  1.0000
  H   H2313     1.0  0.69603  0.01982  0.27640  1.0000
  C   C2911     1.0  0.71482  0.00888  0.43662  1.0000
  P   P102      1.0  0.96908  0.29336  0.24093  1.0000
  S   S390      1.0  0.66345  0.98354  0.30396  1.0000
  H   H2314     1.0  0.96369  0.44555  0.34680  1.0000
  C   C2912     1.0  0.97741  0.20901  0.47053  1.0000
  H   H2315     1.0  0.97816  0.35597  0.25985  1.0000
  C   C2913     1.0  0.95871  0.26828  0.33035  1.0000
  C   C2914     1.0  0.97829  0.31276  0.26707  1.0000
  H   H2316     1.0  0.78434  0.14232  0.47490  1.0000
  H   H2317     1.0  0.93993  0.42133  0.34427  1.0000
  C   C2915     1.0  0.90564  0.30607  0.25094  1.0000
  H   H2318     1.0  0.95510  0.25304  0.25389  1.0000
  H   H2319     1.0  0.81310  0.24784  0.48103  1.0000
  C   C2916     1.0  0.88075  0.43405  0.27705  1.0000
  H   H2320     1.0  0.86950  0.19296  0.48219  1.0000
  H   H2321     1.0  0.95398  0.23278  0.46106  1.0000
  H   H2322     1.0  0.69566  0.01345  0.33880  1.0000
  H   H2323     1.0  0.88138  0.25916  0.43414  1.0000
  H   H2324     1.0  0.89316  0.35209  0.25196  1.0000
  C   C2917     1.0  0.81713  0.18041  0.35754  1.0000
  H   H2325     1.0  0.85929  0.23153  0.43751  1.0000
  H   H2326     1.0  0.80699  0.98821  0.37547  1.0000
  C   C2918     1.0  0.87464  0.25323  0.44676  1.0000
  C   C2919     1.0  0.70424  0.99676  0.42888  1.0000
  C   C2920     1.0  0.76841  0.01006  0.48098  1.0000
  H   H2327     1.0  0.87034  0.44243  0.28630  1.0000
  C   C2921     1.0  0.87964  0.41324  0.27665  1.0000
  C   C2922     1.0  0.98737  0.44717  0.25675  1.0000
  C   C2923     1.0  0.89363  0.40211  0.26529  1.0000
  C   C2924     1.0  0.92198  0.46378  0.31282  1.0000
  C   C2925     1.0  0.85377  0.22974  0.46498  1.0000
  C   C2926     1.0  0.90338  0.00019  0.47286  1.0000
  H   H2328     1.0  0.77644  0.00048  0.32210  1.0000
  H   H2329     1.0  0.97000  0.29534  0.31605  1.0000
  H   H2330     1.0  0.72610  0.05964  0.48348  1.0000
  C   C2927     1.0  0.92127  0.36047  0.23715  1.0000
  C   C2928     1.0  0.81093  0.04020  0.48046  1.0000
  H   H2331     1.0  0.77740  0.24067  0.48071  1.0000
  H   H2332     1.0  0.96191  0.25895  0.47755  1.0000
  C   C2929     1.0  0.98768  0.47548  0.33191  1.0000
  H   H2333     1.0  0.98305  0.30743  0.36280  1.0000
  H   H2334     1.0  0.97098  0.16266  0.47606  1.0000
  H   H2335     1.0  0.89143  0.48101  0.31691  1.0000
  H   H2336     1.0  0.96882  0.26856  0.38423  1.0000
  H   H2337     1.0  0.98658  0.43893  0.38146  1.0000
  C   C2930     1.0  0.98038  0.26089  0.39233  1.0000
  C   C2931     1.0  0.96774  0.25089  0.24375  1.0000
  H   H2338     1.0  0.97991  0.23934  0.36404  1.0000
  C   C2932     1.0  0.74607  0.98428  0.43309  1.0000
  H   H2339     1.0  0.66186  0.02474  0.38328  1.0000
  C   C2933     1.0  0.97384  0.25344  0.40924  1.0000
  C   C2934     1.0  0.84374  0.05258  0.47997  1.0000
  C   C2935     1.0  0.98716  0.47795  0.28565  1.0000
  C   C2936     1.0  0.98565  0.29808  0.25581  1.0000
  C   C2937     1.0  0.92052  0.99178  0.48139  1.0000
  H   H2340     1.0  0.79142  0.09021  0.47496  1.0000
  H   H2341     1.0  0.91223  0.23817  0.48430  1.0000
  H   H2342     1.0  0.98426  0.32670  0.28836  1.0000
  C   C2938     1.0  0.98837  0.28238  0.33627  1.0000
  Fe  Fe197     1.0  0.76733  0.06834  0.57217  1.0000
  S   S391      1.0  0.80017  0.05308  0.57503  1.0000
  S   S392      1.0  0.74545  0.06520  0.59707  1.0000
  Fe  Fe198     1.0  0.77774  0.07871  0.53391  1.0000
  S   S393      1.0  0.81064  0.06373  0.53428  1.0000
  S   S394      1.0  0.77087  0.09644  0.50849  1.0000
  Fe  Fe199     1.0  0.79743  0.03824  0.55201  1.0000
  S   S395      1.0  0.81144  0.00475  0.55040  1.0000
  Fe  Fe200     1.0  0.81052  0.08013  0.55708  1.0000
  S   S396      1.0  0.84038  0.09459  0.55539  1.0000
  S   S397      1.0  0.76421  0.05198  0.54997  1.0000
  S   S398      1.0  0.77798  0.09655  0.55587  1.0000
  H   H2343     1.0  0.71805  0.10022  0.58170  1.0000
  Fe  Fe201     1.0  0.95645  0.36414  0.63283  1.0000
  S   S399      1.0  0.93460  0.37684  0.61353  1.0000
  Fe  Fe202     1.0  0.92350  0.36832  0.66313  1.0000
  S   S400      1.0  0.89894  0.38028  0.64579  1.0000
  S   S401      1.0  0.91137  0.36997  0.69115  1.0000
  Fe  Fe203     1.0  0.91398  0.35550  0.62955  1.0000
  S   S402      1.0  0.89634  0.33703  0.61588  1.0000
  Fe  Fe204     1.0  0.92192  0.40033  0.63153  1.0000
  S   S403      1.0  0.90981  0.43446  0.62588  1.0000
  S   S404      1.0  0.93656  0.34174  0.64815  1.0000
  S   S405      1.0  0.94581  0.38936  0.64938  1.0000
  Fe  Fe205     1.0  0.89617  0.18768  0.57505  1.0000
  S   S406      1.0  0.89276  0.22223  0.56710  1.0000
  S   S407      1.0  0.86626  0.17278  0.58167  1.0000
  Fe  Fe206     1.0  0.94387  0.18449  0.57128  1.0000
  S   S408      1.0  0.94331  0.21814  0.56258  1.0000
  S   S409      1.0  0.97511  0.16531  0.57512  1.0000
  Fe  Fe207     1.0  0.91753  0.22308  0.58389  1.0000
  S   S410      1.0  0.92387  0.24275  0.60353  1.0000
  Fe  Fe208     1.0  0.91912  0.21417  0.54670  1.0000
  S   S411      1.0  0.92011  0.22970  0.51938  1.0000
  S   S412      1.0  0.91898  0.18912  0.59339  1.0000
  S   S413      1.0  0.92129  0.17986  0.55386  1.0000
  C   C2939     1.0  0.97523  0.16171  0.53063  1.0000
  C   C2940     1.0  0.92857  0.19227  0.50674  1.0000
  C   C2941     1.0  0.94685  0.28534  0.73464  1.0000
  H   H2344     1.0  0.96156  0.23335  0.62741  1.0000
  H   H2345     1.0  0.93320  0.18576  0.51901  1.0000
  H   H2346     1.0  0.65929  0.07102  0.58011  1.0000
  H   H2347     1.0  0.98601  0.21027  0.64521  1.0000
  C   C2942     1.0  0.86027  0.02036  0.56313  1.0000
  H   H2348     1.0  0.66125  0.98341  0.72248  1.0000
  H   H2349     1.0  0.82275  0.19580  0.51979  1.0000
  C   C2943     1.0  0.90456  0.31098  0.61219  1.0000
  C   C2944     1.0  0.89577  0.30283  0.60000  1.0000
  C   C2945     1.0  0.90177  0.28212  0.59689  1.0000
  C   C2946     1.0  0.91631  0.26921  0.60622  1.0000
  C   C2947     1.0  0.92499  0.27735  0.61847  1.0000
  C   C2948     1.0  0.91938  0.29816  0.62128  1.0000
  H   H2350     1.0  0.88429  0.31263  0.59291  1.0000
  H   H2351     1.0  0.89489  0.27607  0.58749  1.0000
  H   H2352     1.0  0.93600  0.26746  0.62592  1.0000
  H   H2353     1.0  0.92621  0.30428  0.63065  1.0000
  H   H2354     1.0  0.95217  0.34613  0.69608  1.0000
  C   C2949     1.0  0.92461  0.45433  0.62677  1.0000
  C   C2950     1.0  0.91430  0.47389  0.63018  1.0000
  H   H2355     1.0  0.85710  0.01577  0.57673  1.0000
  H   H2356     1.0  0.66190  0.04670  0.71196  1.0000
  C   C2951     1.0  0.95743  0.46791  0.62311  1.0000
  C   C2952     1.0  0.94628  0.45136  0.62338  1.0000
  C   C2953     1.0  0.66007  0.04000  0.59290  1.0000
  H   H2357     1.0  0.87797  0.26217  0.53898  1.0000
  H   H2358     1.0  0.97405  0.46565  0.61984  1.0000
  H   H2359     1.0  0.95435  0.43646  0.62050  1.0000
  H   H2360     1.0  0.70180  0.00817  0.63231  1.0000
  C   C2954     1.0  0.84727  0.11611  0.56323  1.0000
  C   C2955     1.0  0.83331  0.12829  0.57389  1.0000
  C   C2956     1.0  0.83959  0.14524  0.57969  1.0000
  C   C2957     1.0  0.85974  0.15042  0.57475  1.0000
  C   C2958     1.0  0.87374  0.13810  0.56420  1.0000
  C   C2959     1.0  0.86749  0.12113  0.55844  1.0000
  H   H2361     1.0  0.81778  0.12454  0.57772  1.0000
  H   H2362     1.0  0.82874  0.15450  0.58802  1.0000
  H   H2363     1.0  0.88941  0.14159  0.56051  1.0000
  H   H2364     1.0  0.87847  0.11175  0.55026  1.0000
  C   C2960     1.0  0.88987  0.02124  0.49564  1.0000
  C   C2961     1.0  0.89969  0.06731  0.49388  1.0000
  C   C2962     1.0  0.92357  0.35952  0.70944  1.0000
  H   H2365     1.0  0.92868  0.45123  0.70662  1.0000
  H   H2366     1.0  0.76901  0.00730  0.54262  1.0000
  C   C2963     1.0  0.71824  0.07294  0.60002  1.0000
  C   C2964     1.0  0.70607  0.06146  0.61266  1.0000
  C   C2965     1.0  0.68470  0.06805  0.61667  1.0000
  C   C2966     1.0  0.67537  0.08656  0.60836  1.0000
  C   C2967     1.0  0.68753  0.09802  0.59564  1.0000
  C   C2968     1.0  0.70882  0.09113  0.59133  1.0000
  H   H2367     1.0  0.71328  0.04747  0.61948  1.0000
  C   C2969     1.0  0.82305  0.13553  0.52178  1.0000
  H   H2368     1.0  0.68042  0.11232  0.58913  1.0000
  H   H2369     1.0  0.70488  0.06957  0.64690  1.0000
  H   H2370     1.0  0.97935  0.13315  0.54726  1.0000
  H   H2371     1.0  0.86645  0.00044  0.52556  1.0000
  H   H2372     1.0  0.98129  0.19734  0.54661  1.0000
  H   H2373     1.0  0.73714  0.07363  0.50746  1.0000
  C   C2970     1.0  0.86477  0.08313  0.50305  1.0000
  C   C2971     1.0  0.83208  0.15194  0.51224  1.0000
  C   C2972     1.0  0.92755  0.42178  0.72152  1.0000
  H   H2374     1.0  0.80117  0.02045  0.50317  1.0000
  C   C2973     1.0  0.82744  0.25805  0.52053  1.0000
  C   C2974     1.0  0.92208  0.21343  0.50338  1.0000
  C   C2975     1.0  0.98606  0.29092  0.57439  1.0000
  H   H2375     1.0  0.97467  0.18866  0.51221  1.0000
  C   C2976     1.0  0.71080  0.02056  0.70528  1.0000
  P   P103      1.0  0.84687  0.22715  0.50054  1.0000
  H   H2376     1.0  0.91095  0.05395  0.49145  1.0000
  H   H2377     1.0  0.85899  0.20768  0.53406  1.0000
  H   H2378     1.0  0.66491  0.00884  0.60437  1.0000
  H   H2379     1.0  0.71311  0.03102  0.64964  1.0000
  H   H2380     1.0  0.94487  0.39872  0.68745  1.0000
  C   C2977     1.0  0.68866  0.05237  0.57376  1.0000
  H   H2381     1.0  0.78762  0.18819  0.51870  1.0000
  C   C2978     1.0  0.81528  0.12175  0.51352  1.0000
  C   C2979     1.0  0.98047  0.21979  0.59107  1.0000
  H   H2382     1.0  0.77900  0.10609  0.61351  1.0000
  H   H2383     1.0  0.84869  0.08197  0.50802  1.0000
  C   C2980     1.0  0.82002  0.19421  0.55663  1.0000
  C   C2981     1.0  0.81616  0.21573  0.55394  1.0000
  C   C2982     1.0  0.79576  0.22574  0.55394  1.0000
  C   C2983     1.0  0.77918  0.21425  0.55731  1.0000
  C   C2984     1.0  0.78294  0.19268  0.56103  1.0000
  C   C2985     1.0  0.80350  0.18270  0.55978  1.0000
  P   P104      1.0  0.76168  0.17773  0.56597  1.0000
  C   C2986     1.0  0.76767  0.15491  0.58079  1.0000
  C   C2987     1.0  0.73888  0.19147  0.57689  1.0000
  C   C2988     1.0  0.71909  0.18683  0.57559  1.0000
  C   C2989     1.0  0.70146  0.19673  0.58470  1.0000
  C   C2990     1.0  0.70347  0.21105  0.59540  1.0000
  C   C2991     1.0  0.72316  0.21531  0.59715  1.0000
  C   C2992     1.0  0.74084  0.20540  0.58808  1.0000
  C   C2993     1.0  0.75742  0.13775  0.58120  1.0000
  C   C2994     1.0  0.76146  0.12029  0.59304  1.0000
  P   P105      1.0  0.70716  0.99116  0.58921  1.0000
  C   C2995     1.0  0.78546  0.13707  0.60460  1.0000
  C   C2996     1.0  0.78130  0.15466  0.59290  1.0000
  C   C2997     1.0  0.75687  0.17121  0.54588  1.0000
  C   C2998     1.0  0.76795  0.15344  0.53951  1.0000
  C   C2999     1.0  0.76425  0.14834  0.52393  1.0000
  C   C3000     1.0  0.74975  0.16104  0.51449  1.0000
  C   C3001     1.0  0.73911  0.17911  0.52050  1.0000
  C   C3002     1.0  0.74279  0.18432  0.53608  1.0000
  H   H2384     1.0  0.83584  0.18641  0.55658  1.0000
  H   H2385     1.0  0.82899  0.22463  0.55192  1.0000
  H   H2386     1.0  0.79281  0.24242  0.55160  1.0000
  H   H2387     1.0  0.76346  0.22223  0.55728  1.0000
  H   H2388     1.0  0.80680  0.16602  0.56161  1.0000
  H   H2389     1.0  0.71727  0.17530  0.56778  1.0000
  H   H2390     1.0  0.72475  0.22607  0.60575  1.0000
  H   H2391     1.0  0.75601  0.20837  0.59004  1.0000
  H   H2392     1.0  0.74628  0.13778  0.57242  1.0000
  H   H2393     1.0  0.75366  0.10701  0.59318  1.0000
  H   H2394     1.0  0.81324  0.25725  0.51545  1.0000
  C   C3003     1.0  0.69219  0.01673  0.58719  1.0000
  H   H2395     1.0  0.78877  0.16798  0.59334  1.0000
  H   H2396     1.0  0.77934  0.14339  0.54659  1.0000
  H   H2397     1.0  0.77241  0.13433  0.51928  1.0000
  C   C3004     1.0  0.77590  0.99129  0.54394  1.0000
  H   H2398     1.0  0.96224  0.30855  0.69272  1.0000
  H   H2399     1.0  0.73455  0.19845  0.54050  1.0000
  C   C3005     1.0  0.98191  0.17290  0.51514  1.0000
  C   C3006     1.0  0.97900  0.43193  0.66948  1.0000
  H   H2400     1.0  0.96017  0.27354  0.71119  1.0000
  C   C3007     1.0  0.93120  0.44233  0.71878  1.0000
  C   C3008     1.0  0.82085  0.22188  0.50002  1.0000
  H   H2401     1.0  0.80870  0.10873  0.52091  1.0000
  H   H2402     1.0  0.76634  0.02338  0.60003  1.0000
  C   C3009     1.0  0.96465  0.44896  0.66431  1.0000
  H   H2403     1.0  0.86579  0.06323  0.53495  1.0000
  C   C3010     1.0  0.98645  0.23851  0.48908  1.0000
  H   H2404     1.0  0.96624  0.21338  0.59584  1.0000
  C   C3011     1.0  0.76156  0.01000  0.59617  1.0000
  H   H2405     1.0  0.83219  0.02097  0.51676  1.0000
  H   H2406     1.0  0.92219  0.41502  0.71166  1.0000
  C   C3012     1.0  0.88163  0.16981  0.50119  1.0000
  H   H2407     1.0  0.95971  0.25005  0.67716  1.0000
  H   H2408     1.0  0.96459  0.24766  0.57888  1.0000
  H   H2409     1.0  0.65737  0.02672  0.68501  1.0000
  C   C3013     1.0  0.74967  0.06825  0.67393  1.0000
  C   C3014     1.0  0.75176  0.07619  0.65664  1.0000
  C   C3015     1.0  0.73559  0.07655  0.64695  1.0000
  C   C3016     1.0  0.71746  0.06871  0.65450  1.0000
  C   C3017     1.0  0.71566  0.05965  0.67160  1.0000
  C   C3018     1.0  0.73160  0.06018  0.68146  1.0000
  P   P106      1.0  0.69210  0.04940  0.68087  1.0000
  C   C3019     1.0  0.68564  0.03121  0.66837  1.0000
  C   C3020     1.0  0.80774  0.23469  0.48921  1.0000
  S   S414      1.0  0.98914  0.35328  0.62239  1.0000
  C   C3021     1.0  0.96991  0.32089  0.59618  1.0000
  C   C3022     1.0  0.79317  0.20120  0.51047  1.0000
  C   C3023     1.0  0.69849  0.02528  0.65374  1.0000
  C   C3024     1.0  0.67210  0.07153  0.68077  1.0000
  C   C3025     1.0  0.66818  0.08352  0.69435  1.0000
  C   C3026     1.0  0.97169  0.41392  0.67806  1.0000
  C   C3027     1.0  0.86556  0.01186  0.53417  1.0000
  C   C3028     1.0  0.67383  0.00359  0.64924  1.0000
  C   C3029     1.0  0.92907  0.17936  0.49419  1.0000
  H   H2410     1.0  0.76203  0.06843  0.68152  1.0000
  H   H2411     1.0  0.76581  0.08229  0.65077  1.0000
  H   H2412     1.0  0.73704  0.08286  0.63355  1.0000
  C   C3030     1.0  0.92414  0.21680  0.68640  1.0000
  H   H2413     1.0  0.73010  0.05463  0.69494  1.0000
  H   H2414     1.0  0.79642  0.13675  0.61361  1.0000
  H   H2415     1.0  0.82259  0.13309  0.53556  1.0000
  C   C3031     1.0  0.86242  0.20301  0.50736  1.0000
  C   C3032     1.0  0.70051  0.03293  0.57634  1.0000
  C   C3033     1.0  0.95266  0.34076  0.72350  1.0000
  C   C3034     1.0  0.90622  0.08676  0.49073  1.0000
  C   C3035     1.0  0.78749  0.23070  0.48904  1.0000
  C   C3036     1.0  0.94652  0.28173  0.71783  1.0000
  H   H2416     1.0  0.90891  0.01753  0.51620  1.0000
  H   H2417     1.0  0.87854  0.23788  0.51824  1.0000
  H   H2418     1.0  0.95376  0.29003  0.57182  1.0000
  C   C3037     1.0  0.86502  0.04711  0.53933  1.0000
  C   C3038     1.0  0.86686  0.03260  0.52779  1.0000
  H   H2419     1.0  0.98748  0.36998  0.70110  1.0000
  H   H2420     1.0  0.72924  0.02202  0.59958  1.0000
  H   H2421     1.0  0.89221  0.22453  0.69685  1.0000
  H   H2422     1.0  0.72390  0.01831  0.69549  1.0000
  H   H2423     1.0  0.89724  0.11940  0.49148  1.0000
  C   C3039     1.0  0.95198  0.29268  0.67417  1.0000
  C   C3040     1.0  0.95565  0.28850  0.65716  1.0000
  C   C3041     1.0  0.87090  0.18907  0.49564  1.0000
  C   C3042     1.0  0.77566  0.11982  0.60458  1.0000
  H   H2424     1.0  0.98483  0.23763  0.54564  1.0000
  C   C3043     1.0  0.66730  0.02258  0.67363  1.0000
  H   H2425     1.0  0.96331  0.16895  0.53954  1.0000
  C   C3044     1.0  0.97261  0.29509  0.64632  1.0000
  H   H2426     1.0  0.66878  0.99355  0.64158  1.0000
  C   C3045     1.0  0.84527  0.27341  0.53899  1.0000
  C   C3046     1.0  0.87145  0.10251  0.50003  1.0000
  C   C3047     1.0  0.74050  0.00923  0.59571  1.0000
  H   H2427     1.0  0.89753  0.47636  0.63264  1.0000
  H   H2428     1.0  0.67670  0.07940  0.70529  1.0000
  C   C3048     1.0  0.94312  0.22408  0.68089  1.0000
  H   H2429     1.0  0.91975  0.42863  0.67757  1.0000
  C   C3049     1.0  0.98632  0.30545  0.65247  1.0000
  H   H2430     1.0  0.81082  0.11312  0.48960  1.0000
  C   C3050     1.0  0.84638  0.04122  0.49600  1.0000
  C   C3051     1.0  0.94364  0.34852  0.70843  1.0000
  C   C3052     1.0  0.67603  0.03656  0.71449  1.0000
  C   C3053     1.0  0.86522  0.19742  0.52464  1.0000
  C   C3054     1.0  0.86378  0.26108  0.53389  1.0000
  C   C3055     1.0  0.66147  0.07790  0.66642  1.0000
  C   C3056     1.0  0.96534  0.30391  0.68006  1.0000
  H   H2431     1.0  0.92274  0.20082  0.68582  1.0000
  C   C3057     1.0  0.76832  0.99565  0.49560  1.0000
  C   C3058     1.0  0.69434  0.01084  0.73390  1.0000
  H   H2432     1.0  0.93369  0.16293  0.49707  1.0000
  H   H2433     1.0  0.68979  0.21857  0.60256  1.0000
  H   H2434     1.0  0.68623  0.19303  0.58367  1.0000
  C   C3059     1.0  0.69334  0.03507  0.70192  1.0000
  C   C3060     1.0  0.87891  0.06532  0.50018  1.0000
  H   H2435     1.0  0.96813  0.33224  0.72269  1.0000
  H   H2436     1.0  0.98434  0.36245  0.65736  1.0000
  C   C3061     1.0  0.88446  0.16450  0.51837  1.0000
  C   C3062     1.0  0.87637  0.17840  0.53004  1.0000
  H   H2437     1.0  0.74670  0.15668  0.50259  1.0000
  H   H2438     1.0  0.89326  0.14981  0.52262  1.0000
  H   H2439     1.0  0.87890  0.17460  0.54331  1.0000
  H   H2440     1.0  0.93234  0.46073  0.66284  1.0000
  C   C3063     1.0  0.92886  0.28917  0.70950  1.0000
  P   P107      1.0  0.92910  0.28526  0.68747  1.0000
  H   H2441     1.0  0.84506  0.28415  0.54808  1.0000
  C   C3064     1.0  0.92750  0.25835  0.68731  1.0000
  H   H2442     1.0  0.98526  0.41119  0.64239  1.0000
  C   C3065     1.0  0.67190  0.02057  0.59565  1.0000
  C   C3066     1.0  0.97675  0.23741  0.62815  1.0000
  C   C3067     1.0  0.90693  0.23016  0.69260  1.0000
  C   C3068     1.0  0.90861  0.25085  0.69314  1.0000
  H   H2443     1.0  0.67555  0.05899  0.62636  1.0000
  H   H2444     1.0  0.85991  0.05236  0.56571  1.0000
  C   C3069     1.0  0.93623  0.42978  0.67581  1.0000
  H   H2445     1.0  0.72784  0.18894  0.51316  1.0000
  C   C3070     1.0  0.86175  0.04097  0.55692  1.0000
  C   C3071     1.0  0.90791  0.30093  0.67752  1.0000
  C   C3072     1.0  0.90192  0.32146  0.68068  1.0000
  C   C3073     1.0  0.88640  0.33409  0.67225  1.0000
  C   C3074     1.0  0.87731  0.32656  0.66009  1.0000
  C   C3075     1.0  0.88348  0.30626  0.65658  1.0000
  C   C3076     1.0  0.89875  0.29347  0.66521  1.0000
  C   C3077     1.0  0.84595  0.24535  0.51559  1.0000
  H   H2446     1.0  0.89677  0.30377  0.71304  1.0000
  C   C3078     1.0  0.91100  0.29880  0.71872  1.0000
  C   C3079     1.0  0.73430  0.99232  0.59000  1.0000
  H   H2447     1.0  0.93571  0.99154  0.50364  1.0000
  H   H2448     1.0  0.89511  0.26109  0.69785  1.0000
  H   H2449     1.0  0.94505  0.28064  0.65214  1.0000
  H   H2450     1.0  0.95644  0.21369  0.67610  1.0000
  H   H2451     1.0  0.90958  0.32792  0.68935  1.0000
  H   H2452     1.0  0.88196  0.34997  0.67474  1.0000
  H   H2453     1.0  0.86601  0.33666  0.65293  1.0000
  H   H2454     1.0  0.87699  0.30075  0.64663  1.0000
  H   H2455     1.0  0.90383  0.27809  0.66175  1.0000
  C   C3080     1.0  0.70245  0.99058  0.55494  1.0000
  H   H2456     1.0  0.96887  0.39451  0.72053  1.0000
  P   P108      1.0  0.87032  0.04024  0.50496  1.0000
  C   C3081     1.0  0.86412  0.24725  0.52216  1.0000
  H   H2457     1.0  0.96973  0.46290  0.65738  1.0000
  C   C3082     1.0  0.71136  0.00864  0.72127  1.0000
  H   H2458     1.0  0.71614  0.03054  0.56975  1.0000
  C   C3083     1.0  0.96342  0.25151  0.52804  1.0000
  C   C3084     1.0  0.95277  0.26984  0.52063  1.0000
  C   C3085     1.0  0.95584  0.28875  0.52497  1.0000
  C   C3086     1.0  0.96924  0.28929  0.53699  1.0000
  C   C3087     1.0  0.97926  0.27085  0.54503  1.0000
  C   C3088     1.0  0.97677  0.25201  0.54005  1.0000
  C   C3089     1.0  0.81326  0.20538  0.51088  1.0000
  H   H2459     1.0  0.97154  0.30405  0.54020  1.0000
  C   C3090     1.0  0.95040  0.41293  0.68136  1.0000
  H   H2460     1.0  0.97472  0.29285  0.63299  1.0000
  C   C3091     1.0  0.86232  0.00579  0.55177  1.0000
  H   H2461     1.0  0.69530  0.06486  0.56560  1.0000
  C   C3092     1.0  0.95657  0.31221  0.58808  1.0000
  C   C3093     1.0  0.96452  0.29700  0.57749  1.0000
  H   H2462     1.0  0.96364  0.33264  0.60444  1.0000
  C   C3094     1.0  0.94334  0.44784  0.66746  1.0000
  C   C3095     1.0  0.83299  0.15483  0.49441  1.0000
  H   H2463     1.0  0.83900  0.16192  0.51869  1.0000
  C   C3096     1.0  0.76509  0.08273  0.49287  1.0000
  C   C3097     1.0  0.77651  0.99371  0.59138  1.0000
  C   C3098     1.0  0.97961  0.23918  0.58134  1.0000
  H   H2464     1.0  0.81283  0.28174  0.53607  1.0000
  C   C3099     1.0  0.92243  0.99806  0.49701  1.0000
  H   H2465     1.0  0.70074  0.00722  0.55348  1.0000
  H   H2466     1.0  0.97208  0.26539  0.61080  1.0000
  H   H2467     1.0  0.96112  0.23684  0.52462  1.0000
  H   H2468     1.0  0.94209  0.26926  0.51159  1.0000
  H   H2469     1.0  0.94770  0.30298  0.51912  1.0000
  H   H2470     1.0  0.88842  0.15930  0.49201  1.0000
  H   H2471     1.0  0.66458  0.06932  0.65556  1.0000
  C   C3100     1.0  0.94486  0.24476  0.68143  1.0000
  C   C3101     1.0  0.91264  0.36260  0.72552  1.0000
  C   C3102     1.0  0.98270  0.25546  0.61872  1.0000
  H   H2472     1.0  0.93999  0.31732  0.59004  1.0000
  H   H2473     1.0  0.89706  0.37100  0.72638  1.0000
  C   C3103     1.0  0.82712  0.27197  0.53224  1.0000
  H   H2474     1.0  0.76176  0.00042  0.50790  1.0000
  C   C3104     1.0  0.98264  0.30992  0.66932  1.0000
  C   C3105     1.0  0.90718  0.01275  0.50411  1.0000
  H   H2475     1.0  0.87377  0.25942  0.48831  1.0000
  C   C3106     1.0  0.89213  0.10435  0.49387  1.0000
  C   C3107     1.0  0.78029  0.21383  0.49953  1.0000
  H   H2476     1.0  0.86064  0.11610  0.50265  1.0000
  C   C3108     1.0  0.98435  0.14144  0.53499  1.0000
  H   H2477     1.0  0.98248  0.40033  0.68154  1.0000
  C   C3109     1.0  0.66838  0.05585  0.58191  1.0000
  C   C3110     1.0  0.93719  0.45131  0.73190  1.0000
  C   C3111     1.0  0.66154  0.00866  0.66424  1.0000
  H   H2478     1.0  0.72497  0.99765  0.72388  1.0000
  C   C3112     1.0  0.69234  0.01186  0.64402  1.0000
  C   C3113     1.0  0.67663  0.02469  0.73045  1.0000
  C   C3114     1.0  0.79640  0.98592  0.54754  1.0000
  C   C3115     1.0  0.83085  0.02968  0.50432  1.0000
  C   C3116     1.0  0.81635  0.12442  0.49573  1.0000
  P   P109      1.0  0.93890  0.47864  0.72920  1.0000
  H   H2479     1.0  0.68627  0.99014  0.69709  1.0000
  H   H2480     1.0  0.76468  0.21062  0.49927  1.0000
  C   C3117     1.0  0.98137  0.38304  0.72474  1.0000
  H   H2481     1.0  0.86046  0.98993  0.55657  1.0000
  H   H2482     1.0  0.70131  0.99002  0.52816  1.0000
  H   H2483     1.0  0.79286  0.99459  0.59125  1.0000
  C   C3118     1.0  0.81315  0.02928  0.49660  1.0000
  C   C3119     1.0  0.74686  0.07376  0.49530  1.0000
  C   C3120     1.0  0.91143  0.30247  0.73549  1.0000
  C   C3121     1.0  0.91685  0.22175  0.48709  1.0000
  H   H2484     1.0  0.84054  0.16727  0.48713  1.0000
  C   C3122     1.0  0.71617  0.45847  0.94477  1.0000
  C   C3123     1.0  0.73786  0.39394  0.97369  1.0000
  H   H2485     1.0  0.84804  0.37514  0.96370  1.0000
  C   C3124     1.0  0.93042  0.47681  0.79625  1.0000
  H   H2486     1.0  0.83089  0.21051  0.85436  1.0000
  S   S415      1.0  0.68401  0.24296  0.88410  1.0000
  H   H2487     1.0  0.75982  0.48042  0.91332  1.0000
  Fe  Fe209     1.0  0.77370  0.33575  0.91998  1.0000
  S   S416      1.0  0.74097  0.35092  0.92502  1.0000
  S   S417      1.0  0.78719  0.31643  0.94252  1.0000
  Fe  Fe210     1.0  0.77827  0.35442  0.88269  1.0000
  S   S418      1.0  0.74533  0.37099  0.88517  1.0000
  S   S419      1.0  0.79773  0.36165  0.85707  1.0000
  Fe  Fe211     1.0  0.75266  0.37901  0.90983  1.0000
  S   S420      1.0  0.74720  0.40860  0.92201  1.0000
  Fe  Fe212     1.0  0.73664  0.34109  0.90006  1.0000
  S   S421      1.0  0.70598  0.32922  0.89878  1.0000
  S   S422      1.0  0.78587  0.36426  0.90646  1.0000
  S   S423      1.0  0.76898  0.32397  0.89585  1.0000
  Fe  Fe213     1.0  0.92703  0.39002  0.79757  1.0000
  S   S424      1.0  0.93236  0.37622  0.82417  1.0000
  S   S425      1.0  0.91260  0.42285  0.79104  1.0000
  Fe  Fe214     1.0  0.94230  0.35013  0.78249  1.0000
  S   S426      1.0  0.94798  0.33281  0.80828  1.0000
  S   S427      1.0  0.95360  0.33492  0.75832  1.0000
  Fe  Fe215     1.0  0.91733  0.35028  0.81838  1.0000
  S   S428      1.0  0.89525  0.33591  0.83988  1.0000
  Fe  Fe216     1.0  0.96238  0.36019  0.81198  1.0000
  S   S429      1.0  0.91031  0.36503  0.79221  1.0000
  S   S430      1.0  0.95839  0.37658  0.78575  1.0000
  C   C3125     1.0  0.81048  0.28199  0.90877  1.0000
  H   H2488     1.0  0.98612  0.44628  0.86985  1.0000
  C   C3126     1.0  0.92579  0.44102  0.79719  1.0000
  C   C3127     1.0  0.94048  0.43517  0.80870  1.0000
  C   C3128     1.0  0.94968  0.45028  0.81435  1.0000
  C   C3129     1.0  0.74480  0.47382  0.89289  1.0000
  H   H2489     1.0  0.94433  0.41911  0.81362  1.0000
  H   H2490     1.0  0.96049  0.44582  0.82372  1.0000
  H   H2491     1.0  0.71979  0.44191  0.94532  1.0000
  C   C3130     1.0  0.70298  0.14135  0.91388  1.0000
  C   C3131     1.0  0.80406  0.25865  0.84591  1.0000
  C   C3132     1.0  0.76587  0.45600  0.96136  1.0000
  C   C3133     1.0  0.69352  0.37794  0.95217  1.0000
  C   C3134     1.0  0.81890  0.29786  0.83811  1.0000
  C   C3135     1.0  0.82819  0.43707  0.80563  1.0000
  H   H2492     1.0  0.91316  0.35768  0.75283  1.0000
  C   C3136     1.0  0.67300  0.13251  0.90365  1.0000
  C   C3137     1.0  0.78809  0.33052  0.95951  1.0000
  C   C3138     1.0  0.78495  0.35211  0.95723  1.0000
  C   C3139     1.0  0.84802  0.31822  0.81541  1.0000
  C   C3140     1.0  0.68453  0.08898  0.86395  1.0000
  H   H2493     1.0  0.70028  0.30482  0.94967  1.0000
  H   H2494     1.0  0.78132  0.36040  0.94507  1.0000
  H   H2495     1.0  0.76048  0.26834  0.85385  1.0000
  H   H2496     1.0  0.82190  0.30901  0.86995  1.0000
  C   C3141     1.0  0.74780  0.43303  0.90977  1.0000
  C   C3142     1.0  0.75557  0.44841  0.91633  1.0000
  H   H2497     1.0  0.78586  0.37971  0.96841  1.0000
  H   H2498     1.0  0.98444  0.42449  0.77679  1.0000
  C   C3143     1.0  0.73715  0.45838  0.88627  1.0000
  C   C3144     1.0  0.73882  0.43800  0.89457  1.0000
  H   H2499     1.0  0.76235  0.44471  0.92815  1.0000
  C   C3145     1.0  0.83058  0.45480  0.81236  1.0000
  C   C3146     1.0  0.87979  0.40284  0.83631  1.0000
  H   H2500     1.0  0.73257  0.42632  0.88951  1.0000
  C   C3147     1.0  0.82520  0.35636  0.85313  1.0000
  C   C3148     1.0  0.83517  0.36229  0.83676  1.0000
  C   C3149     1.0  0.85682  0.35711  0.83277  1.0000
  C   C3150     1.0  0.86862  0.34553  0.84503  1.0000
  C   C3151     1.0  0.85870  0.34004  0.86152  1.0000
  C   C3152     1.0  0.83717  0.34578  0.86566  1.0000
  H   H2501     1.0  0.82606  0.37057  0.82701  1.0000
  H   H2502     1.0  0.86423  0.36133  0.82002  1.0000
  H   H2503     1.0  0.86771  0.33110  0.87109  1.0000
  H   H2504     1.0  0.82974  0.34150  0.87839  1.0000
  C   C3153     1.0  0.68967  0.26635  0.88986  1.0000
  C   C3154     1.0  0.71051  0.26883  0.89022  1.0000
  C   C3155     1.0  0.71581  0.28768  0.89343  1.0000
  C   C3156     1.0  0.70034  0.30455  0.89580  1.0000
  C   C3157     1.0  0.67955  0.30201  0.89549  1.0000
  C   C3158     1.0  0.67418  0.28299  0.89284  1.0000
  H   H2505     1.0  0.72267  0.25613  0.88783  1.0000
  H   H2506     1.0  0.73189  0.28935  0.89354  1.0000
  H   H2507     1.0  0.67309  0.39102  0.93337  1.0000
  H   H2508     1.0  0.74870  0.30647  0.96604  1.0000
  H   H2509     1.0  0.68897  0.18603  0.93403  1.0000
  C   C3159     1.0  0.77404  0.29651  0.85213  1.0000
  C   C3160     1.0  0.79894  0.23614  0.82583  1.0000
  H   H2510     1.0  0.96069  0.28028  0.74089  1.0000
  H   H2511     1.0  0.74330  0.38225  0.96522  1.0000
  H   H2512     1.0  0.90118  0.40305  0.85426  1.0000
  C   C3161     1.0  0.75761  0.28497  0.85322  1.0000
  H   H2513     1.0  0.89167  0.39767  0.82639  1.0000
  H   H2514     1.0  0.74735  0.41836  0.95505  1.0000
  C   C3162     1.0  0.79922  0.26792  0.90407  1.0000
  C   C3163     1.0  0.81885  0.29657  0.89636  1.0000
  H   H2515     1.0  0.84545  0.28275  0.85066  1.0000
  H   H2516     1.0  0.85514  0.40318  0.82135  1.0000
  C   C3164     1.0  0.81602  0.29710  0.87926  1.0000
  S   S431      1.0  0.66248  0.19250  0.90219  1.0000
  H   H2517     1.0  0.77676  0.42364  0.96887  1.0000
  S   S432      1.0  0.65915  0.01106  0.79548  1.0000
  C   C3165     1.0  0.82237  0.46203  0.89493  1.0000
  C   C3166     1.0  0.83488  0.45149  0.88221  1.0000
  H   H2518     1.0  0.69363  0.21731  0.91369  1.0000
  P   P110      1.0  0.82864  0.42736  0.87745  1.0000
  C   C3167     1.0  0.84857  0.41664  0.86168  1.0000
  C   C3168     1.0  0.82595  0.40974  0.89703  1.0000
  C   C3169     1.0  0.84077  0.39226  0.90025  1.0000
  C   C3170     1.0  0.83835  0.37894  0.91549  1.0000
  C   C3171     1.0  0.82109  0.38283  0.92760  1.0000
  C   C3172     1.0  0.80598  0.39980  0.92432  1.0000
  C   C3173     1.0  0.80829  0.41307  0.90906  1.0000
  C   C3174     1.0  0.84349  0.41296  0.84597  1.0000
  C   C3175     1.0  0.88505  0.40601  0.85198  1.0000
  C   C3176     1.0  0.86953  0.41298  0.86460  1.0000
  C   C3177     1.0  0.80402  0.43171  0.86910  1.0000
  C   C3178     1.0  0.79523  0.45159  0.86274  1.0000
  C   C3179     1.0  0.77658  0.45444  0.85562  1.0000
  C   C3180     1.0  0.76681  0.43747  0.85457  1.0000
  C   C3181     1.0  0.77550  0.41765  0.86089  1.0000
  C   C3182     1.0  0.79395  0.41478  0.86824  1.0000
  H   H2519     1.0  0.66333  0.02626  0.74018  1.0000
  C   C3183     1.0  0.69846  0.12593  0.84884  1.0000
  H   H2520     1.0  0.66177  0.14164  0.94509  1.0000
  H   H2521     1.0  0.80862  0.45627  0.90175  1.0000
  H   H2522     1.0  0.86098  0.45353  0.86227  1.0000
  H   H2523     1.0  0.85392  0.38842  0.89094  1.0000
  H   H2524     1.0  0.84963  0.36530  0.91774  1.0000
  H   H2525     1.0  0.81904  0.37225  0.93923  1.0000
  H   H2526     1.0  0.79200  0.40224  0.93326  1.0000
  H   H2527     1.0  0.79588  0.42551  0.90644  1.0000
  H   H2528     1.0  0.82759  0.41528  0.84326  1.0000
  H   H2529     1.0  0.87389  0.41578  0.87655  1.0000
  H   H2530     1.0  0.80261  0.46492  0.86331  1.0000
  H   H2531     1.0  0.86847  0.43689  0.77370  1.0000
  H   H2532     1.0  0.75225  0.43972  0.84921  1.0000
  H   H2533     1.0  0.76794  0.40445  0.86017  1.0000
  H   H2534     1.0  0.80055  0.39928  0.87298  1.0000
  C   C3184     1.0  0.68168  0.28116  0.94790  1.0000
  C   C3185     1.0  0.67083  0.13962  0.93282  1.0000
  C   C3186     1.0  0.79540  0.25554  0.83156  1.0000
  C   C3187     1.0  0.69154  0.10151  0.87397  1.0000
  C   C3188     1.0  0.85954  0.46025  0.79059  1.0000
  C   C3189     1.0  0.84219  0.42059  0.98049  1.0000
  H   H2535     1.0  0.90619  0.44275  0.83952  1.0000
  C   C3190     1.0  0.82723  0.48059  0.89866  1.0000
  C   C3191     1.0  0.65781  0.37205  0.95419  1.0000
  C   C3192     1.0  0.76762  0.26953  0.94718  1.0000
  C   C3193     1.0  0.76237  0.10325  0.89275  1.0000
  C   C3194     1.0  0.98683  0.38187  0.74118  1.0000
  C   C3195     1.0  0.78738  0.36305  0.97050  1.0000
  C   C3196     1.0  0.72281  0.46916  0.95649  1.0000
  C   C3197     1.0  0.68626  0.30146  0.94571  1.0000
  H   H2536     1.0  0.66747  0.31500  0.89702  1.0000
  C   C3198     1.0  0.69142  0.11338  0.83888  1.0000
  C   C3199     1.0  0.93908  0.43940  0.74784  1.0000
  H   H2537     1.0  0.97849  0.39243  0.74980  1.0000
  H   H2538     1.0  0.91013  0.46625  0.78154  1.0000
  H   H2539     1.0  0.69099  0.11808  0.82531  1.0000
  H   H2540     1.0  0.77152  0.24879  0.97025  1.0000
  C   C3200     1.0  0.73942  0.30820  0.97828  1.0000
  H   H2541     1.0  0.87077  0.30147  0.83106  1.0000
  C   C3201     1.0  0.85173  0.46042  0.87281  1.0000
  H   H2542     1.0  0.72977  0.46224  0.87472  1.0000
  C   C3202     1.0  0.85908  0.40619  0.83337  1.0000
  H   H2543     1.0  0.94209  0.44609  0.75867  1.0000
  C   C3203     1.0  0.85020  0.43295  0.96597  1.0000
  C   C3204     1.0  0.76074  0.25638  0.96146  1.0000
  H   H2544     1.0  0.69595  0.21789  0.97543  1.0000
  C   C3205     1.0  0.81251  0.31192  0.82426  1.0000
  H   H2545     1.0  0.79637  0.31508  0.82211  1.0000
  C   C3206     1.0  0.73481  0.12643  0.87972  1.0000
  C   C3207     1.0  0.84009  0.29373  0.84022  1.0000
  H   H2546     1.0  0.81624  0.42788  0.81162  1.0000
  H   H2547     1.0  0.85122  0.44902  0.96636  1.0000
  C   C3208     1.0  0.79637  0.26842  0.88696  1.0000
  H   H2548     1.0  0.86334  0.43412  0.93952  1.0000
  C   C3209     1.0  0.93623  0.41868  0.75024  1.0000
  H   H2549     1.0  0.65813  0.28149  0.89238  1.0000
  C   C3210     1.0  0.73994  0.25322  0.96447  1.0000
  C   C3211     1.0  0.73708  0.29485  0.85401  1.0000
  C   C3212     1.0  0.76953  0.31789  0.85245  1.0000
  H   H2550     1.0  0.78191  0.32692  0.85224  1.0000
  C   C3213     1.0  0.90800  0.47458  0.84109  1.0000
  C   C3214     1.0  0.92108  0.46178  0.79075  1.0000
  C   C3215     1.0  0.85746  0.44223  0.78417  1.0000
  H   H2551     1.0  0.79525  0.30330  0.97719  1.0000
  C   C3216     1.0  0.78055  0.43804  0.96188  1.0000
  H   H2552     1.0  0.70404  0.14001  0.84267  1.0000
  C   C3217     1.0  0.89893  0.45857  0.83691  1.0000
  C   C3218     1.0  0.69642  0.23583  0.93309  1.0000
  H   H2553     1.0  0.66536  0.12900  0.89351  1.0000
  C   C3219     1.0  0.77693  0.11002  0.87942  1.0000
  C   C3220     1.0  0.77046  0.12475  0.86611  1.0000
  C   C3221     1.0  0.74944  0.13284  0.86619  1.0000
  H   H2554     1.0  0.82707  0.30784  0.90007  1.0000
  C   C3222     1.0  0.85453  0.30406  0.82901  1.0000
  H   H2555     1.0  0.79208  0.23381  0.81481  1.0000
  H   H2556     1.0  0.85924  0.32645  0.80694  1.0000
  C   C3223     1.0  0.82076  0.22301  0.84812  1.0000
  C   C3224     1.0  0.74134  0.11131  0.89285  1.0000
  C   C3225     1.0  0.69795  0.12041  0.86657  1.0000
  C   C3226     1.0  0.68288  0.19213  0.85618  1.0000
  C   C3227     1.0  0.69673  0.20520  0.85835  1.0000
  C   C3228     1.0  0.71388  0.19742  0.86705  1.0000
  H   H2557     1.0  0.69375  0.22153  0.85381  1.0000
  H   H2558     1.0  0.71679  0.32367  0.85572  1.0000
  H   H2559     1.0  0.67513  0.16143  0.86126  1.0000
  H   H2560     1.0  0.73020  0.10557  0.90307  1.0000
  H   H2561     1.0  0.86164  0.39729  0.93798  1.0000
  H   H2562     1.0  0.72439  0.28592  0.85501  1.0000
  C   C3229     1.0  0.69567  0.36514  0.96756  1.0000
  H   H2563     1.0  0.70655  0.38524  0.94542  1.0000
  H   H2564     1.0  0.79320  0.10366  0.87930  1.0000
  H   H2565     1.0  0.78169  0.12974  0.85563  1.0000
  H   H2566     1.0  0.74458  0.14394  0.85563  1.0000
  C   C3230     1.0  0.81721  0.24239  0.85389  1.0000
  H   H2567     1.0  0.87220  0.46850  0.78488  1.0000
  C   C3231     1.0  0.93029  0.40994  0.73718  1.0000
  H   H2568     1.0  0.66917  0.19830  0.84999  1.0000
  C   C3232     1.0  0.71746  0.17644  0.87326  1.0000
  C   C3233     1.0  0.68634  0.17122  0.86249  1.0000
  H   H2569     1.0  0.69177  0.09653  0.88748  1.0000
  C   C3234     1.0  0.84164  0.43077  0.79154  1.0000
  H   H2570     1.0  0.72400  0.20787  0.86936  1.0000
  C   C3235     1.0  0.77197  0.47450  0.95265  1.0000
  H   H2571     1.0  0.81148  0.42431  0.95329  1.0000
  H   H2572     1.0  0.69778  0.24958  0.92406  1.0000
  C   C3236     1.0  0.69180  0.19982  0.93860  1.0000
  C   C3237     1.0  0.70390  0.16310  0.87068  1.0000
  H   H2573     1.0  0.69038  0.18629  0.96485  1.0000
  C   C3238     1.0  0.79261  0.31998  0.97540  1.0000
  H   H2574     1.0  0.82199  0.33332  0.80258  1.0000
  C   C3239     1.0  0.66310  0.27741  0.94294  1.0000
  C   C3240     1.0  0.69642  0.23639  0.95059  1.0000
  P   P111      1.0  0.73955  0.45587  0.97198  1.0000
  P   P112      1.0  0.69872  0.26029  0.95802  1.0000
  C   C3241     1.0  0.79196  0.35249  0.98638  1.0000
  C   C3242     1.0  0.72578  0.26358  0.95340  1.0000
  H   H2575     1.0  0.92986  0.29926  0.75623  1.0000
  C   C3243     1.0  0.73276  0.31616  0.85436  1.0000
  C   C3244     1.0  0.80054  0.43840  0.95319  1.0000
  C   C3245     1.0  0.75383  0.27915  0.93568  1.0000
  C   C3246     1.0  0.73304  0.27595  0.93861  1.0000
  H   H2576     1.0  0.89794  0.31075  0.74228  1.0000
  H   H2577     1.0  0.79241  0.25685  0.91373  1.0000
  H   H2578     1.0  0.78716  0.25780  0.88356  1.0000
  C   C3247     1.0  0.74900  0.32768  0.85354  1.0000
  C   C3248     1.0  0.80508  0.28280  0.87439  1.0000
  H   H2579     1.0  0.78362  0.27239  0.94507  1.0000
  H   H2580     1.0  0.81441  0.20487  0.82963  1.0000
  C   C3249     1.0  0.98445  0.41834  0.85953  1.0000
  C   C3250     1.0  0.70571  0.46926  0.93137  1.0000
  H   H2581     1.0  0.73051  0.17076  0.88035  1.0000
  H   H2582     1.0  0.67907  0.07468  0.86976  1.0000
  C   C3251     1.0  0.75416  0.46870  0.90792  1.0000
  H   H2583     1.0  0.71874  0.14487  0.91167  1.0000
  H   H2584     1.0  0.84015  0.41674  0.78659  1.0000
  H   H2585     1.0  0.98664  0.39160  0.84640  1.0000
  C   C3252     1.0  0.81154  0.21985  0.83416  1.0000
  H   H2586     1.0  0.93784  0.40952  0.76247  1.0000
  C   C3253     1.0  0.80634  0.45682  0.94437  1.0000
  H   H2587     1.0  0.75923  0.28934  0.92459  1.0000
  H   H2588     1.0  0.72271  0.28332  0.92938  1.0000
  H   H2589     1.0  0.82495  0.24470  0.86442  1.0000
  C   C3254     1.0  0.69410  0.21759  0.92715  1.0000
  C   C3255     1.0  0.69379  0.13593  0.90063  1.0000
  C   C3256     1.0  0.84868  0.39130  0.96429  1.0000
  H   H2590     1.0  0.78600  0.26816  0.82473  1.0000
  C   C3257     1.0  0.74005  0.41452  0.96791  1.0000
  H   H2591     1.0  0.67846  0.08559  0.83868  1.0000
  P   P113      1.0  0.70767  0.13624  0.87940  1.0000
  C   C3258     1.0  0.92174  0.35510  0.74053  1.0000
  C   C3259     1.0  0.68435  0.09499  0.84644  1.0000
  P   P114      1.0  0.80051  0.28404  0.85247  1.0000
  H   H2592     1.0  0.69862  0.14722  0.94017  1.0000
  H   H2593     1.0  0.74567  0.34416  0.85413  1.0000
  H   H2594     1.0  0.76735  0.09160  0.90293  1.0000
  H   H2595     1.0  0.81237  0.28197  0.92205  1.0000
  C   C3260     1.0  0.82703  0.32214  0.81302  1.0000
  H   H2596     1.0  0.71368  0.32612  0.96708  1.0000
  C   C3261     1.0  0.85719  0.42455  0.95070  1.0000
  C   C3262     1.0  0.69524  0.21815  0.96195  1.0000
  C   C3263     1.0  0.92939  0.29591  0.74338  1.0000
  H   H2597     1.0  0.87452  0.45030  0.82537  1.0000
  C   C3264     1.0  0.69252  0.20004  0.95598  1.0000
  H   H2598     1.0  0.70162  0.46094  0.92188  1.0000
  C   C3265     1.0  0.85629  0.40377  0.94983  1.0000
  C   C3266     1.0  0.69160  0.14289  0.92999  1.0000
  H   H2599     1.0  0.69479  0.00175  0.74635  1.0000
  H   H2600     1.0  0.73484  0.24292  0.97556  1.0000
  H   H2601     1.0  0.97364  0.41270  0.87007  1.0000
  H   H2602     1.0  0.97603  0.45706  0.74430  1.0000
  C   C3267     1.0  0.84593  0.46691  0.80459  1.0000
  H   H2603     1.0  0.92750  0.39408  0.73933  1.0000
  C   C3268     1.0  0.88105  0.46299  0.82868  1.0000
  H   H2604     1.0  0.82182  0.45710  0.93760  1.0000
  H   H2605     1.0  0.82064  0.45868  0.82380  1.0000
  C   C3269     1.0  0.97112  0.47139  0.74971  1.0000
  H   H2606     1.0  0.90100  0.46792  0.75068  1.0000
  C   C3270     1.0  0.67286  0.31763  0.93810  1.0000
  H   H2607     1.0  0.71041  0.36278  0.97258  1.0000
  H   H2608     1.0  0.65900  0.26194  0.94472  1.0000
  C   C3271     1.0  0.94443  0.47117  0.80831  1.0000
  C   C3272     1.0  0.94187  0.34438  0.73958  1.0000
  H   H2609     1.0  0.67701  0.33310  0.93569  1.0000
  H   H2610     1.0  0.92228  0.47120  0.84692  1.0000
  H   H2611     1.0  0.66291  0.24491  0.97931  1.0000
  H   H2612     1.0  0.76940  0.46986  0.85131  1.0000
  C   C3273     1.0  0.79214  0.47492  0.94434  1.0000
  C   C3274     1.0  0.66154  0.13446  0.91964  1.0000
  C   C3275     1.0  0.85673  0.47877  0.87679  1.0000
  C   C3276     1.0  0.67464  0.38124  0.94540  1.0000
  C   C3277     1.0  0.98237  0.47631  0.76180  1.0000
  C   C3278     1.0  0.65994  0.35922  0.96960  1.0000
  C   C3279     1.0  0.67912  0.35514  0.97615  1.0000
  C   C3280     1.0  0.73393  0.42978  0.97887  1.0000
  H   H2613     1.0  0.66337  0.31511  0.97499  1.0000
  C   C3281     1.0  0.84193  0.39958  0.97961  1.0000
  C   C3282     1.0  0.68970  0.25983  0.98050  1.0000
  C   C3283     1.0  0.71958  0.31966  0.97897  1.0000
  H   H2614     1.0  0.81323  0.46650  0.98017  1.0000
  H   H2615     1.0  0.71323  0.27653  0.98605  1.0000
  H   H2616     1.0  0.79171  0.55032  0.21167  1.0000
  C   C3284     1.0  0.66044  0.79768  0.12464  1.0000
  C   C3285     1.0  0.86304  0.48963  0.14359  1.0000
  H   H2617     1.0  0.66919  0.94589  0.18759  1.0000
  C   C3286     1.0  0.69360  0.63771  0.06187  1.0000
  C   C3287     1.0  0.79258  0.54448  0.16722  1.0000
  Fe  Fe217     1.0  0.74013  0.57088  0.06350  1.0000
  S   S433      1.0  0.77527  0.56627  0.06017  1.0000
  S   S434      1.0  0.72456  0.60455  0.06031  1.0000
  Fe  Fe218     1.0  0.73932  0.52406  0.06590  1.0000
  S   S435      1.0  0.77397  0.51629  0.06266  1.0000
  Fe  Fe219     1.0  0.77336  0.53955  0.08093  1.0000
  S   S436      1.0  0.79202  0.53042  0.10372  1.0000
  Fe  Fe220     1.0  0.77305  0.54364  0.04227  1.0000
  S   S437      1.0  0.79339  0.54354  0.01679  1.0000
  S   S438      1.0  0.73829  0.54556  0.08565  1.0000
  S   S439      1.0  0.73834  0.54994  0.04421  1.0000
  Fe  Fe221     1.0  0.90676  0.51954  0.16465  1.0000
  S   S440      1.0  0.91679  0.52654  0.13661  1.0000
  S   S441      1.0  0.90074  0.48798  0.17732  1.0000
  Fe  Fe222     1.0  0.90688  0.56345  0.17114  1.0000
  S   S442      1.0  0.91685  0.57386  0.14342  1.0000
  S   S443      1.0  0.90597  0.58497  0.19084  1.0000
  Fe  Fe223     1.0  0.89325  0.55487  0.13803  1.0000
  S   S444      1.0  0.87307  0.56544  0.11639  1.0000
  Fe  Fe224     1.0  0.93934  0.54448  0.14468  1.0000
  S   S445      1.0  0.97348  0.53797  0.13434  1.0000
  S   S446      1.0  0.88171  0.54681  0.16579  1.0000
  S   S447      1.0  0.93074  0.53534  0.17262  1.0000
  H   H2618     1.0  0.74347  0.64029  0.01160  1.0000
  H   H2619     1.0  0.68731  0.90467  0.14954  1.0000
  H   H2620     1.0  0.76593  0.56657  0.23315  1.0000
  C   C3288     1.0  0.66372  0.70103  0.11872  1.0000
  C   C3289     1.0  0.68862  0.64748  0.02089  1.0000
  H   H2621     1.0  0.86572  0.49631  0.21090  1.0000
  C   C3290     1.0  0.87958  0.56902  0.21757  1.0000
  C   C3291     1.0  0.89899  0.57547  0.21234  1.0000
  C   C3292     1.0  0.91202  0.57633  0.22463  1.0000
  H   H2622     1.0  0.68108  0.74577  0.16959  1.0000
  H   H2623     1.0  0.86948  0.56849  0.20814  1.0000
  H   H2624     1.0  0.92705  0.58130  0.22068  1.0000
  C   C3293     1.0  0.69456  0.56249  0.99744  1.0000
  C   C3294     1.0  0.81423  0.54077  0.10723  1.0000
  C   C3295     1.0  0.82245  0.55637  0.09577  1.0000
  C   C3296     1.0  0.84044  0.56369  0.09879  1.0000
  C   C3297     1.0  0.85041  0.55560  0.11329  1.0000
  C   C3298     1.0  0.84208  0.54014  0.12485  1.0000
  C   C3299     1.0  0.82413  0.53275  0.12180  1.0000
  H   H2625     1.0  0.81503  0.56274  0.08453  1.0000
  H   H2626     1.0  0.84671  0.57570  0.08980  1.0000
  H   H2627     1.0  0.84950  0.53390  0.13611  1.0000
  H   H2628     1.0  0.81788  0.52076  0.13078  1.0000
  H   H2629     1.0  0.94672  0.48957  0.18614  1.0000
  C   C3300     1.0  0.76100  0.53473  0.00217  1.0000
  H   H2630     1.0  0.73822  0.57707  0.00930  1.0000
  H   H2631     1.0  0.75384  0.53088  0.01502  1.0000
  C   C3301     1.0  0.66158  0.61450  0.07412  1.0000
  C   C3302     1.0  0.66308  0.89637  0.16929  1.0000
  C   C3303     1.0  0.66714  0.93222  0.18242  1.0000
  H   H2632     1.0  0.71998  0.48690  0.10618  1.0000
  C   C3304     1.0  0.71361  0.48673  0.01260  1.0000
  H   H2633     1.0  0.70422  0.64564  0.02432  1.0000
  H   H2634     1.0  0.87138  0.51896  0.03571  1.0000
  C   C3305     1.0  0.86217  0.49763  0.07723  1.0000
  C   C3306     1.0  0.78587  0.57380  0.13885  1.0000
  C   C3307     1.0  0.90111  0.48690  0.09169  1.0000
  C   C3308     1.0  0.87288  0.50214  0.06088  1.0000
  C   C3309     1.0  0.67970  0.58015  0.99595  1.0000
  C   C3310     1.0  0.69830  0.61608  0.06472  1.0000
  C   C3311     1.0  0.68213  0.60449  0.07082  1.0000
  H   H2635     1.0  0.93177  0.48742  0.14802  1.0000
  H   H2636     1.0  0.81563  0.52677  0.07074  1.0000
  H   H2637     1.0  0.68550  0.58786  0.07316  1.0000
  H   H2638     1.0  0.87086  0.49515  0.15272  1.0000
  C   C3312     1.0  0.67593  0.66648  0.02153  1.0000
  H   H2639     1.0  0.81555  0.48423  0.06173  1.0000
  C   C3313     1.0  0.68094  0.63061  0.01664  1.0000
  C   C3314     1.0  0.85566  0.50954  0.20550  1.0000
  H   H2640     1.0  0.83638  0.48351  0.16153  1.0000
  C   C3315     1.0  0.76783  0.59755  0.22088  1.0000
  C   C3316     1.0  0.84924  0.52658  0.21439  1.0000
  C   C3317     1.0  0.75106  0.53226  0.98835  1.0000
  C   C3318     1.0  0.75078  0.48588  0.01055  1.0000
  H   H2641     1.0  0.88897  0.49554  0.05798  1.0000
  H   H2642     1.0  0.83725  0.59380  0.19746  1.0000
  H   H2643     1.0  0.83255  0.55718  0.21403  1.0000
  H   H2644     1.0  0.90785  0.50821  0.20440  1.0000
  H   H2645     1.0  0.66864  0.71969  0.22186  1.0000
  C   C3319     1.0  0.86295  0.51528  0.04820  1.0000
  C   C3320     1.0  0.66484  0.81031  0.13584  1.0000
  H   H2646     1.0  0.85371  0.49314  0.01793  1.0000
  H   H2647     1.0  0.79468  0.53314  0.17829  1.0000
  H   H2648     1.0  0.70599  0.64684  0.05728  1.0000
  C   C3321     1.0  0.67387  0.70013  0.13311  1.0000
  H   H2649     1.0  0.68178  0.67944  0.02514  1.0000
  H   H2650     1.0  0.77286  0.62646  0.20576  1.0000
  C   C3322     1.0  0.73262  0.63419  0.98877  1.0000
  C   C3323     1.0  0.77316  0.57611  0.22247  1.0000
  H   H2651     1.0  0.66967  0.82517  0.13091  1.0000
  H   H2652     1.0  0.79873  0.61048  0.18418  1.0000
  C   C3324     1.0  0.73952  0.62867  0.00484  1.0000
  C   C3325     1.0  0.69867  0.55265  0.01358  1.0000
  C   C3326     1.0  0.73647  0.59305  0.00361  1.0000
  H   H2653     1.0  0.80382  0.59206  0.14932  1.0000
  H   H2654     1.0  0.76832  0.55254  0.13137  1.0000
  H   H2655     1.0  0.95575  0.50224  0.09219  1.0000
  H   H2656     1.0  0.66174  0.80286  0.11105  1.0000
  H   H2657     1.0  0.77389  0.52668  0.15668  1.0000
  C   C3327     1.0  0.67303  0.64769  0.06488  1.0000
  C   C3328     1.0  0.77731  0.55547  0.14092  1.0000
  H   H2658     1.0  0.66530  0.81411  0.16212  1.0000
  C   C3329     1.0  0.65689  0.63615  0.07111  1.0000
  C   C3330     1.0  0.78048  0.54132  0.99937  1.0000
  H   H2659     1.0  0.74651  0.60388  0.02482  1.0000
  H   H2660     1.0  0.69108  0.61602  0.01657  1.0000
  C   C3331     1.0  0.66234  0.80407  0.15341  1.0000
  C   C3332     1.0  0.78057  0.54086  0.15513  1.0000
  H   H2661     1.0  0.97178  0.57861  0.14554  1.0000
  H   H2662     1.0  0.76541  0.50822  0.13032  1.0000
  H   H2663     1.0  0.83436  0.52765  0.16891  1.0000
  H   H2664     1.0  0.88004  0.61776  0.15660  1.0000
  C   C3333     1.0  0.97759  0.59242  0.19151  1.0000
  C   C3334     1.0  0.68794  0.56043  0.02823  1.0000
  H   H2665     1.0  0.83448  0.53435  0.04198  1.0000
  H   H2666     1.0  0.66971  0.66433  0.06258  1.0000
  C   C3335     1.0  0.98652  0.60252  0.20231  1.0000
  C   C3336     1.0  0.66032  0.63264  0.01312  1.0000
  C   C3337     1.0  0.80171  0.56264  0.16501  1.0000
  H   H2667     1.0  0.83098  0.51739  0.99951  1.0000
  H   H2668     1.0  0.71036  0.53915  0.01478  1.0000
  C   C3338     1.0  0.96003  0.48386  0.17757  1.0000
  H   H2669     1.0  0.97299  0.51241  0.17325  1.0000
  S   S448      1.0  0.71584  0.50173  0.06816  1.0000
  H   H2670     1.0  0.75650  0.60462  0.23035  1.0000
  C   C3339     1.0  0.91209  0.50159  0.21687  1.0000
  H   H2671     1.0  0.69136  0.55294  0.04075  1.0000
  C   C3340     1.0  0.95680  0.59830  0.18890  1.0000
  C   C3341     1.0  0.94482  0.61444  0.19687  1.0000
  C   C3342     1.0  0.95371  0.62492  0.20730  1.0000
  C   C3343     1.0  0.72977  0.59845  0.98749  1.0000
  C   C3344     1.0  0.67761  0.90891  0.16101  1.0000
  C   C3345     1.0  0.84367  0.48309  0.14851  1.0000
  C   C3346     1.0  0.98786  0.57173  0.14341  1.0000
  H   H2672     1.0  0.69114  0.93642  0.16132  1.0000
  C   C3347     1.0  0.87289  0.56423  0.23503  1.0000
  C   C3348     1.0  0.83155  0.51967  0.06795  1.0000
  H   H2673     1.0  0.86718  0.59890  0.13655  1.0000
  C   C3349     1.0  0.67975  0.92677  0.16764  1.0000
  C   C3350     1.0  0.79775  0.57754  0.15098  1.0000
  C   C3351     1.0  0.91148  0.51445  0.22937  1.0000
  C   C3352     1.0  0.67032  0.73967  0.17997  1.0000
  C   C3353     1.0  0.86268  0.48204  0.11471  1.0000
  H   H2674     1.0  0.66416  0.85225  0.21721  1.0000
  H   H2675     1.0  0.69294  0.73354  0.19779  1.0000
  H   H2676     1.0  0.76416  0.48968  0.01533  1.0000
  H   H2677     1.0  0.86508  0.61503  0.18701  1.0000
  C   C3354     1.0  0.74093  0.49933  0.11901  1.0000
  C   C3355     1.0  0.97455  0.61915  0.20988  1.0000
  H   H2678     1.0  0.78346  0.58501  0.12773  1.0000
  C   C3356     1.0  0.78788  0.56697  0.21032  1.0000
  C   C3357     1.0  0.84224  0.52401  0.05172  1.0000
  H   H2679     1.0  0.94990  0.59027  0.18071  1.0000
  H   H2680     1.0  0.92862  0.61874  0.19492  1.0000
  H   H2681     1.0  0.94442  0.63753  0.21334  1.0000
  C   C3358     1.0  0.66859  0.58786  0.01063  1.0000
  H   H2682     1.0  0.92467  0.52902  0.09264  1.0000
  C   C3359     1.0  0.77708  0.60985  0.20706  1.0000
  C   C3360     1.0  0.84977  0.50984  0.18932  1.0000
  H   H2683     1.0  0.73090  0.51390  0.12003  1.0000
  C   C3361     1.0  0.90346  0.50763  0.09181  1.0000
  C   C3362     1.0  0.74128  0.60814  0.01231  1.0000
  H   H2684     1.0  0.66172  0.88228  0.16439  1.0000
  C   C3363     1.0  0.84142  0.50654  0.08068  1.0000
  H   H2685     1.0  0.84027  0.57661  0.14686  1.0000
  C   C3364     1.0  0.67302  0.57799  0.02679  1.0000
  C   C3365     1.0  0.79182  0.60075  0.19490  1.0000
  C   C3366     1.0  0.92311  0.51310  0.09193  1.0000
  H   H2686     1.0  0.72887  0.49940  0.03002  1.0000
  H   H2687     1.0  0.88999  0.51948  0.09250  1.0000
  H   H2688     1.0  0.85540  0.49683  0.18232  1.0000
  C   C3367     1.0  0.66709  0.71445  0.14475  1.0000
  C   C3368     1.0  0.83686  0.54390  0.20713  1.0000
  C   C3369     1.0  0.83073  0.54428  0.19090  1.0000
  C   C3370     1.0  0.83765  0.52725  0.18188  1.0000
  P   P115      1.0  0.81662  0.56757  0.18096  1.0000
  C   C3371     1.0  0.79759  0.57927  0.19663  1.0000
  C   C3372     1.0  0.83576  0.58446  0.17277  1.0000
  C   C3373     1.0  0.84316  0.59524  0.18402  1.0000
  C   C3374     1.0  0.85887  0.60740  0.17814  1.0000
  C   C3375     1.0  0.86738  0.60887  0.16101  1.0000
  C   C3376     1.0  0.86018  0.59816  0.14975  1.0000
  C   C3377     1.0  0.84465  0.58573  0.15562  1.0000
  H   H2689     1.0  0.73617  0.52675  0.99067  1.0000
  H   H2690     1.0  0.66894  0.68996  0.10969  1.0000
  C   C3378     1.0  0.67710  0.73272  0.19591  1.0000
  H   H2691     1.0  0.85428  0.52653  0.22676  1.0000
  C   C3379     1.0  0.73477  0.48410  0.11127  1.0000
  H   H2692     1.0  0.65980  0.94830  0.22874  1.0000
  H   H2693     1.0  0.67522  0.71340  0.15575  1.0000
  H   H2694     1.0  0.90681  0.53090  0.22656  1.0000
  H   H2695     1.0  0.68702  0.68833  0.13521  1.0000
  C   C3380     1.0  0.84530  0.48719  0.00944  1.0000
  H   H2696     1.0  0.78114  0.98033  0.18691  1.0000
  H   H2697     1.0  0.98130  0.62768  0.21773  1.0000
  H   H2698     1.0  0.83281  0.50368  0.09316  1.0000
  H   H2699     1.0  0.69823  0.49087  0.01916  1.0000
  C   C3381     1.0  0.83255  0.50090  0.99902  1.0000
  H   H2700     1.0  0.66525  0.58399  0.03834  1.0000
  C   C3382     1.0  0.76034  0.49607  0.12490  1.0000
  C   C3383     1.0  0.73089  0.49144  0.01880  1.0000
  C   C3384     1.0  0.94060  0.49801  0.09170  1.0000
  H   H2701     1.0  0.88780  0.49377  0.12369  1.0000
  C   C3385     1.0  0.97472  0.49672  0.17028  1.0000
  H   H2702     1.0  0.98660  0.58005  0.18498  1.0000
  C   C3386     1.0  0.66134  0.93205  0.23348  1.0000
  C   C3387     1.0  0.66341  0.72492  0.20947  1.0000
  C   C3388     1.0  0.87259  0.48901  0.12684  1.0000
  C   C3389     1.0  0.82133  0.49335  0.98829  1.0000
  Fe  Fe225     1.0  0.77230  0.86866  0.41462  1.0000
  S   S449      1.0  0.80043  0.86574  0.39502  1.0000
  S   S450      1.0  0.78367  0.87059  0.43970  1.0000
  Fe  Fe226     1.0  0.74206  0.87168  0.38758  1.0000
  S   S451      1.0  0.76856  0.86925  0.36652  1.0000
  S   S452      1.0  0.70794  0.87985  0.38235  1.0000
  Fe  Fe227     1.0  0.78432  0.84396  0.38451  1.0000
  S   S453      1.0  0.79848  0.81185  0.37793  1.0000
  Fe  Fe228     1.0  0.78224  0.89120  0.37929  1.0000
  S   S454      1.0  0.79564  0.91942  0.36531  1.0000
  S   S455      1.0  0.75695  0.84514  0.40513  1.0000
  S   S456      1.0  0.75500  0.89530  0.39933  1.0000
  H   H2703     1.0  0.91975  0.65591  0.29970  1.0000
  C   C3390     1.0  0.77657  0.81654  0.29820  1.0000
  H   H2704     1.0  0.98328  0.74833  0.45357  1.0000
  H   H2705     1.0  0.88596  0.64143  0.47207  1.0000
  Fe  Fe229     1.0  0.91007  0.69312  0.36757  1.0000
  S   S457      1.0  0.92759  0.71967  0.35665  1.0000
  S   S458      1.0  0.90065  0.67484  0.34840  1.0000
  Fe  Fe230     1.0  0.91168  0.70080  0.40461  1.0000
  S   S459      1.0  0.92940  0.72746  0.39579  1.0000
  S   S460      1.0  0.90415  0.68887  0.43289  1.0000
  Fe  Fe231     1.0  0.90667  0.73704  0.37653  1.0000
  S   S461      1.0  0.89383  0.77139  0.37344  1.0000
  Fe  Fe232     1.0  0.94833  0.70777  0.37715  1.0000
  S   S462      1.0  0.88783  0.71131  0.38626  1.0000
  S   S463      1.0  0.93186  0.68045  0.38676  1.0000
  Fe  Fe233     1.0  0.91231  0.56199  0.32165  1.0000
  S   S464      1.0  0.91693  0.57895  0.29520  1.0000
  S   S465      1.0  0.90967  0.57778  0.34564  1.0000
  Fe  Fe234     1.0  0.92343  0.51875  0.30859  1.0000
  S   S466      1.0  0.92924  0.53335  0.28155  1.0000
  C   C3391     1.0  0.92767  0.61835  0.25106  1.0000
  Fe  Fe235     1.0  0.94530  0.55542  0.29163  1.0000
  H   H2706     1.0  0.97523  0.52488  0.34108  1.0000
  Fe  Fe236     1.0  0.90029  0.55498  0.28778  1.0000
  S   S467      1.0  0.87656  0.56020  0.26917  1.0000
  S   S468      1.0  0.94157  0.53957  0.31825  1.0000
  S   S469      1.0  0.89326  0.53937  0.31470  1.0000
  C   C3392     1.0  0.67908  0.94489  0.44132  1.0000
  C   C3393     1.0  0.98326  0.73462  0.44763  1.0000
  H   H2707     1.0  0.97628  0.69745  0.31299  1.0000
  C   C3394     1.0  0.73881  0.85960  0.47939  1.0000
  H   H2708     1.0  0.72168  0.90366  0.48581  1.0000
  H   H2709     1.0  0.89685  0.68519  0.31129  1.0000
  H   H2710     1.0  0.72187  0.92023  0.41927  1.0000
  C   C3395     1.0  0.70848  0.92272  0.42871  1.0000
  C   C3396     1.0  0.98169  0.68515  0.32248  1.0000
  H   H2711     1.0  0.97590  0.52332  0.26055  1.0000
  C   C3397     1.0  0.90485  0.64781  0.34716  1.0000
  C   C3398     1.0  0.91559  0.63365  0.35876  1.0000
  C   C3399     1.0  0.91709  0.61227  0.35804  1.0000
  C   C3400     1.0  0.90887  0.60482  0.34519  1.0000
  C   C3401     1.0  0.89911  0.61901  0.33303  1.0000
  C   C3402     1.0  0.89683  0.64034  0.33420  1.0000
  H   H2712     1.0  0.92260  0.63913  0.36833  1.0000
  H   H2713     1.0  0.92484  0.60136  0.36733  1.0000
  H   H2714     1.0  0.89253  0.61351  0.32316  1.0000
  H   H2715     1.0  0.88841  0.65105  0.32517  1.0000
  C   C3403     1.0  0.91018  0.69538  0.46532  1.0000
  C   C3404     1.0  0.91284  0.70212  0.44767  1.0000
  C   C3405     1.0  0.92239  0.71961  0.44195  1.0000
  C   C3406     1.0  0.92983  0.72991  0.45334  1.0000
  H   H2716     1.0  0.90236  0.68212  0.47001  1.0000
  H   H2717     1.0  0.92366  0.72568  0.42878  1.0000
  C   C3407     1.0  0.76128  0.92906  0.46598  1.0000
  H   H2718     1.0  0.97082  0.75139  0.42527  1.0000
  C   C3408     1.0  0.70509  0.88138  0.30810  1.0000
  H   H2719     1.0  0.84180  0.92356  0.41422  1.0000
  C   C3409     1.0  0.67308  0.97057  0.35369  1.0000
  C   C3410     1.0  0.72234  0.86597  0.30848  1.0000
  C   C3411     1.0  0.97972  0.49641  0.33008  1.0000
  C   C3412     1.0  0.82497  0.80072  0.37783  1.0000
  C   C3413     1.0  0.84066  0.81249  0.37850  1.0000
  C   C3414     1.0  0.86163  0.80325  0.37726  1.0000
  C   C3415     1.0  0.86713  0.78211  0.37562  1.0000
  C   C3416     1.0  0.85137  0.77023  0.37550  1.0000
  C   C3417     1.0  0.83044  0.77954  0.37645  1.0000
  H   H2720     1.0  0.83670  0.82879  0.37955  1.0000
  H   H2721     1.0  0.87368  0.81256  0.37746  1.0000
  H   H2722     1.0  0.85534  0.75399  0.37421  1.0000
  H   H2723     1.0  0.81844  0.77031  0.37590  1.0000
  C   C3418     1.0  0.69521  0.87264  0.36622  1.0000
  C   C3419     1.0  0.70251  0.85476  0.35853  1.0000
  C   C3420     1.0  0.69139  0.84895  0.34653  1.0000
  C   C3421     1.0  0.67298  0.86104  0.34178  1.0000
  H   H2724     1.0  0.78694  0.81861  0.25499  1.0000
  C   C3422     1.0  0.67672  0.88475  0.36155  1.0000
  H   H2725     1.0  0.71646  0.84515  0.36213  1.0000
  H   H2726     1.0  0.69704  0.83491  0.34092  1.0000
  C   C3423     1.0  0.67346  0.92471  0.24673  1.0000
  C   C3424     1.0  0.71756  0.95361  0.39399  1.0000
  C   C3425     1.0  0.80191  0.95800  0.37099  1.0000
  C   C3426     1.0  0.79669  0.93861  0.37841  1.0000
  C   C3427     1.0  0.77160  0.92967  0.48010  1.0000
  H   H2727     1.0  0.93233  0.98038  0.47590  1.0000
  H   H2728     1.0  0.78827  0.91998  0.40210  1.0000
  C   C3428     1.0  0.74911  0.86272  0.46267  1.0000
  C   C3429     1.0  0.76981  0.86627  0.46012  1.0000
  C   C3430     1.0  0.78028  0.86606  0.47425  1.0000
  H   H2729     1.0  0.74108  0.86251  0.45179  1.0000
  H   H2730     1.0  0.79638  0.86844  0.47239  1.0000
  C   C3431     1.0  0.83641  0.83904  0.46749  1.0000
  C   C3432     1.0  0.86883  0.75101  0.42138  1.0000
  H   H2731     1.0  0.72330  0.85339  0.30099  1.0000
  C   C3433     1.0  0.98469  0.65898  0.26857  1.0000
  C   C3434     1.0  0.88419  0.76027  0.44987  1.0000
  C   C3435     1.0  0.88561  0.77377  0.43458  1.0000
  C   C3436     1.0  0.87735  0.76922  0.42051  1.0000
  P   P116      1.0  0.89870  0.79627  0.43235  1.0000
  C   C3437     1.0  0.88293  0.81728  0.42103  1.0000
  C   C3438     1.0  0.90188  0.80281  0.45298  1.0000
  C   C3439     1.0  0.89120  0.82105  0.45892  1.0000
  H   H2732     1.0  0.95876  0.49485  0.27761  1.0000
  C   C3440     1.0  0.91910  0.79515  0.47866  1.0000
  H   H2733     1.0  0.98464  0.64914  0.39596  1.0000
  C   C3441     1.0  0.91600  0.79002  0.46293  1.0000
  C   C3442     1.0  0.89207  0.83114  0.40824  1.0000
  C   C3443     1.0  0.87964  0.84732  0.39958  1.0000
  C   C3444     1.0  0.85806  0.84981  0.40366  1.0000
  C   C3445     1.0  0.84886  0.83609  0.41637  1.0000
  C   C3446     1.0  0.86124  0.81986  0.42501  1.0000
  C   C3447     1.0  0.92411  0.79155  0.42020  1.0000
  C   C3448     1.0  0.92730  0.77965  0.40660  1.0000
  C   C3449     1.0  0.94665  0.77695  0.39669  1.0000
  C   C3450     1.0  0.96304  0.78603  0.40027  1.0000
  C   C3451     1.0  0.96007  0.79790  0.41376  1.0000
  C   C3452     1.0  0.94066  0.80081  0.42361  1.0000
  H   H2734     1.0  0.86335  0.74729  0.41017  1.0000
  H   H2735     1.0  0.96200  0.60721  0.28028  1.0000
  H   H2736     1.0  0.79018  0.79398  0.28139  1.0000
  H   H2737     1.0  0.89046  0.76310  0.46094  1.0000
  H   H2738     1.0  0.87799  0.77953  0.40867  1.0000
  H   H2739     1.0  0.88051  0.83143  0.45144  1.0000
  C   C3453     1.0  0.79821  0.96961  0.39902  1.0000
  C   C3454     1.0  0.81049  0.93566  0.45768  1.0000
  H   H2740     1.0  0.73241  0.81584  0.31660  1.0000
  H   H2741     1.0  0.83597  0.77005  0.45734  1.0000
  H   H2742     1.0  0.90873  0.82942  0.40479  1.0000
  H   H2743     1.0  0.88672  0.85784  0.38957  1.0000
  H   H2744     1.0  0.84843  0.86225  0.39684  1.0000
  H   H2745     1.0  0.83210  0.83795  0.41938  1.0000
  H   H2746     1.0  0.85389  0.80927  0.43472  1.0000
  H   H2747     1.0  0.91488  0.77267  0.40334  1.0000
  H   H2748     1.0  0.94881  0.76795  0.38608  1.0000
  C   C3455     1.0  0.77925  0.93982  0.31967  1.0000
  C   C3456     1.0  0.83365  0.92655  0.42660  1.0000
  H   H2749     1.0  0.93859  0.81051  0.43371  1.0000
  C   C3457     1.0  0.96552  0.62749  0.39113  1.0000
  C   C3458     1.0  0.97056  0.64224  0.40012  1.0000
  C   C3459     1.0  0.95693  0.64880  0.41400  1.0000
  C   C3460     1.0  0.93820  0.64079  0.41882  1.0000
  C   C3461     1.0  0.93321  0.62559  0.41017  1.0000
  C   C3462     1.0  0.94691  0.61929  0.39606  1.0000
  P   P117      1.0  0.90945  0.61437  0.41700  1.0000
  C   C3463     1.0  0.91279  0.58968  0.40895  1.0000
  C   C3464     1.0  0.90450  0.61177  0.44008  1.0000
  C   C3465     1.0  0.89614  0.62929  0.44819  1.0000
  C   C3466     1.0  0.89228  0.62777  0.46598  1.0000
  H   H2750     1.0  0.73853  0.97647  0.39087  1.0000
  C   C3467     1.0  0.90437  0.59112  0.46792  1.0000
  C   C3468     1.0  0.90834  0.59260  0.45010  1.0000
  C   C3469     1.0  0.89921  0.58564  0.39813  1.0000
  C   C3470     1.0  0.90298  0.56728  0.39076  1.0000
  C   C3471     1.0  0.92035  0.55284  0.39400  1.0000
  C   C3472     1.0  0.93399  0.55670  0.40469  1.0000
  C   C3473     1.0  0.93031  0.57509  0.41206  1.0000
  C   C3474     1.0  0.88694  0.63054  0.40947  1.0000
  C   C3475     1.0  0.88896  0.64746  0.39691  1.0000
  C   C3476     1.0  0.87138  0.65922  0.39067  1.0000
  C   C3477     1.0  0.85162  0.65438  0.39715  1.0000
  C   C3478     1.0  0.84941  0.63774  0.40991  1.0000
  C   C3479     1.0  0.86701  0.62584  0.41605  1.0000
  C   C3480     1.0  0.98517  0.51012  0.26685  1.0000
  H   H2751     1.0  0.97885  0.60399  0.45591  1.0000
  H   H2752     1.0  0.96034  0.66086  0.42054  1.0000
  H   H2753     1.0  0.92752  0.64692  0.42902  1.0000
  H   H2754     1.0  0.94327  0.60813  0.38872  1.0000
  H   H2755     1.0  0.89259  0.64423  0.44076  1.0000
  C   C3481     1.0  0.90560  0.57088  0.24209  1.0000
  C   C3482     1.0  0.70423  0.90656  0.44146  1.0000
  H   H2756     1.0  0.82537  0.96323  0.45347  1.0000
  H   H2757     1.0  0.91413  0.57870  0.44433  1.0000
  H   H2758     1.0  0.88616  0.59687  0.39467  1.0000
  H   H2759     1.0  0.89284  0.56460  0.38195  1.0000
  H   H2760     1.0  0.92343  0.53891  0.38785  1.0000
  H   H2761     1.0  0.94765  0.54563  0.40693  1.0000
  H   H2762     1.0  0.94142  0.57819  0.41981  1.0000
  H   H2763     1.0  0.90405  0.65147  0.39180  1.0000
  H   H2764     1.0  0.87310  0.67196  0.38063  1.0000
  H   H2765     1.0  0.83806  0.66349  0.39219  1.0000
  H   H2766     1.0  0.83409  0.63395  0.41490  1.0000
  H   H2767     1.0  0.86510  0.61279  0.42576  1.0000
  H   H2768     1.0  0.94335  0.72449  0.29310  1.0000
  C   C3483     1.0  0.82533  0.78258  0.45187  1.0000
  H   H2769     1.0  0.68922  0.90879  0.31839  1.0000
  C   C3484     1.0  0.66725  0.88997  0.24544  1.0000
  C   C3485     1.0  0.73770  0.86643  0.31894  1.0000
  H   H2770     1.0  0.74580  0.88216  0.33848  1.0000
  H   H2771     1.0  0.80550  0.96106  0.35729  1.0000
  H   H2772     1.0  0.77056  0.96202  0.33716  1.0000
  P   P118      1.0  0.79474  0.94179  0.47729  1.0000
  C   C3486     1.0  0.80358  0.81563  0.45273  1.0000
  C   C3487     1.0  0.79884  0.81492  0.43632  1.0000
  C   C3488     1.0  0.80733  0.79809  0.42765  1.0000
  C   C3489     1.0  0.82052  0.78192  0.43543  1.0000
  C   C3490     1.0  0.82109  0.91260  0.43588  1.0000
  C   C3491     1.0  0.70763  0.96127  0.33929  1.0000
  C   C3492     1.0  0.91871  0.70662  0.30301  1.0000
  C   C3493     1.0  0.95225  0.62751  0.45814  1.0000
  C   C3494     1.0  0.89644  0.60870  0.47586  1.0000
  H   H2773     1.0  0.94283  0.63718  0.31768  1.0000
  C   C3495     1.0  0.73464  0.96322  0.38618  1.0000
  H   H2774     1.0  0.76363  0.83066  0.35632  1.0000
  H   H2775     1.0  0.75010  0.80265  0.37600  1.0000
  H   H2776     1.0  0.85758  0.55994  0.23907  1.0000
  H   H2777     1.0  0.84458  0.95574  0.42571  1.0000
  H   H2778     1.0  0.90730  0.57627  0.47559  1.0000
  H   H2779     1.0  0.71981  0.94939  0.33516  1.0000
  H   H2780     1.0  0.90862  0.71929  0.30843  1.0000
  H   H2781     1.0  0.86183  0.72304  0.43706  1.0000
  C   C3496     1.0  0.74719  0.95558  0.37222  1.0000
  C   C3497     1.0  0.77515  0.93286  0.30497  1.0000
  H   H2782     1.0  0.79730  0.82912  0.45896  1.0000
  H   H2783     1.0  0.78878  0.82761  0.43024  1.0000
  H   H2784     1.0  0.80377  0.79767  0.41484  1.0000
  H   H2785     1.0  0.82713  0.76896  0.42859  1.0000
  H   H2786     1.0  0.97277  0.80504  0.41646  1.0000
  S   S470      1.0  0.98314  0.69762  0.37493  1.0000
  C   C3498     1.0  0.78340  0.80990  0.28223  1.0000
  H   H2787     1.0  0.76016  0.86716  0.28510  1.0000
  C   C3499     1.0  0.81812  0.86367  0.33614  1.0000
  H   H2788     1.0  0.78981  0.94703  0.42013  1.0000
  C   C3500     1.0  0.97618  0.73637  0.43172  1.0000
  C   C3501     1.0  0.98141  0.50861  0.34256  1.0000
  H   H2789     1.0  0.75282  0.93216  0.35534  1.0000
  C   C3502     1.0  0.97204  0.63433  0.30097  1.0000
  C   C3503     1.0  0.89444  0.82620  0.47465  1.0000
  C   C3504     1.0  0.87516  0.74230  0.45085  1.0000
  H   H2790     1.0  0.83489  0.83513  0.45511  1.0000
  H   H2791     1.0  0.95395  0.67821  0.45979  1.0000
  C   C3505     1.0  0.75422  0.82125  0.35166  1.0000
  C   C3506     1.0  0.94527  0.67323  0.29011  1.0000
  C   C3507     1.0  0.76767  0.83710  0.29940  1.0000
  C   C3508     1.0  0.74634  0.80539  0.36298  1.0000
  H   H2792     1.0  0.72172  0.96744  0.25497  1.0000
  C   C3509     1.0  0.67858  0.97755  0.40406  1.0000
  C   C3510     1.0  0.73354  0.79331  0.35760  1.0000
  H   H2793     1.0  0.94117  0.61705  0.45814  1.0000
  C   C3511     1.0  0.72864  0.79710  0.34084  1.0000
  C   C3512     1.0  0.79727  0.83762  0.33330  1.0000
  H   H2794     1.0  0.93699  0.74353  0.44854  1.0000
  H   H2795     1.0  0.98130  0.68573  0.42680  1.0000
  C   C3513     1.0  0.71240  0.93718  0.38687  1.0000
  P   P119      1.0  0.82345  0.80103  0.48184  1.0000
  H   H2796     1.0  0.72724  0.78119  0.36647  1.0000
  H   H2797     1.0  0.78462  0.91938  0.30034  1.0000
  C   C3514     1.0  0.79297  0.95025  0.40640  1.0000
  C   C3515     1.0  0.81489  0.84306  0.33848  1.0000
  C   C3516     1.0  0.88582  0.56527  0.24734  1.0000
  C   C3517     1.0  0.66058  0.96838  0.40473  1.0000
  C   C3518     1.0  0.70295  0.89728  0.31825  1.0000
  C   C3519     1.0  0.78520  0.96874  0.47846  1.0000
  P   P120      1.0  0.96250  0.65115  0.28285  1.0000
  H   H2798     1.0  0.92891  0.65420  0.45981  1.0000
  C   C3520     1.0  0.97431  0.66044  0.34719  1.0000
  H   H2799     1.0  0.79507  0.82153  0.33538  1.0000
  H   H2800     1.0  0.77200  0.85519  0.25694  1.0000
  C   C3521     1.0  0.71014  0.97581  0.24719  1.0000
  C   C3522     1.0  0.95152  0.69289  0.28794  1.0000
  C   C3523     1.0  0.79211  0.93487  0.39617  1.0000
  H   H2801     1.0  0.97742  0.64729  0.24637  1.0000
  P   P121      1.0  0.70146  0.96301  0.41226  1.0000
  C   C3524     1.0  0.81680  0.79946  0.46076  1.0000
  C   C3525     1.0  0.75874  0.94326  0.29631  1.0000
  C   C3526     1.0  0.93833  0.70945  0.29448  1.0000
  C   C3527     1.0  0.83520  0.94469  0.43308  1.0000
  H   H2802     1.0  0.76728  0.93552  0.45330  1.0000
  H   H2803     1.0  0.77834  0.80564  0.30962  1.0000
  C   C3528     1.0  0.78640  0.87341  0.32293  1.0000
  H   H2804     1.0  0.68686  0.93942  0.35044  1.0000
  P   P122      1.0  0.75932  0.84575  0.32001  1.0000
  C   C3529     1.0  0.71791  0.89763  0.32895  1.0000
  C   C3530     1.0  0.68749  0.90955  0.45419  1.0000
  H   H2805     1.0  0.79174  0.93169  0.32666  1.0000
  C   C3531     1.0  0.91208  0.68735  0.30464  1.0000
  H   H2806     1.0  0.71573  0.90936  0.33744  1.0000
  C   C3532     1.0  0.73669  0.81285  0.32943  1.0000
  C   C3533     1.0  0.92523  0.67074  0.29820  1.0000
  C   C3534     1.0  0.76637  0.85109  0.28444  1.0000
  C   C3535     1.0  0.90828  0.81319  0.48457  1.0000
  H   H2807     1.0  0.69287  0.88049  0.30054  1.0000
  C   C3536     1.0  0.78246  0.85286  0.32606  1.0000
  H   H2808     1.0  0.77574  0.88531  0.31671  1.0000
  C   C3537     1.0  0.80401  0.87881  0.32820  1.0000
  H   H2809     1.0  0.71835  0.78803  0.33675  1.0000
  H   H2810     1.0  0.75533  0.93770  0.28505  1.0000
  C   C3538     1.0  0.97546  0.49426  0.27661  1.0000
  C   C3539     1.0  0.91788  0.70568  0.47689  1.0000
  H   H2811     1.0  0.68044  0.93534  0.25244  1.0000
  H   H2812     1.0  0.96309  0.65347  0.35664  1.0000
  C   C3540     1.0  0.95961  0.66203  0.45898  1.0000
  C   C3541     1.0  0.94534  0.64843  0.45916  1.0000
  C   C3542     1.0  0.74983  0.82485  0.33468  1.0000
  H   H2813     1.0  0.69892  0.92987  0.39232  1.0000
  H   H2814     1.0  0.67080  0.89855  0.36748  1.0000
  C   C3543     1.0  0.72504  0.92963  0.37286  1.0000
  C   C3544     1.0  0.92304  0.48486  0.24912  1.0000
  H   H2815     1.0  0.96650  0.69564  0.28133  1.0000
  S   S471      1.0  0.97646  0.56227  0.27837  1.0000
  C   C3545     1.0  0.92801  0.72288  0.47075  1.0000
  H   H2816     1.0  0.97221  0.56269  0.31520  1.0000
  C   C3546     1.0  0.73523  0.91144  0.48430  1.0000
  C   C3547     1.0  0.86782  0.73748  0.43654  1.0000
  H   H2817     1.0  0.80659  0.89477  0.32649  1.0000
  H   H2818     1.0  0.80002  0.90599  0.45833  1.0000
  C   C3548     1.0  0.97532  0.71866  0.42441  1.0000
  H   H2819     1.0  0.84487  0.86881  0.45678  1.0000
  H   H2820     1.0  0.73599  0.91854  0.45702  1.0000
  C   C3549     1.0  0.77318  0.84439  0.26847  1.0000
  H   H2821     1.0  0.83151  0.86792  0.34057  1.0000
  C   C3550     1.0  0.95159  0.61653  0.27189  1.0000
  C   C3551     1.0  0.74264  0.93856  0.36576  1.0000
  H   H2822     1.0  0.65864  0.96619  0.36046  1.0000
  H   H2823     1.0  0.66530  0.93994  0.30581  1.0000
  H   H2824     1.0  0.87479  0.73160  0.46249  1.0000
  S   S472      1.0  0.93591  0.48453  0.31285  1.0000
  C   C3552     1.0  0.94171  0.60678  0.26157  1.0000
  C   C3553     1.0  0.78163  0.82379  0.26736  1.0000
  C   C3554     1.0  0.73506  0.88214  0.32947  1.0000
  H   H2825     1.0  0.91583  0.51612  0.25523  1.0000
  H   H2826     1.0  0.82579  0.83127  0.34466  1.0000
  H   H2827     1.0  0.97800  0.78391  0.39253  1.0000
  C   C3555     1.0  0.82394  0.94909  0.44870  1.0000
  H   H2828     1.0  0.68550  0.89803  0.26317  1.0000
  C   C3556     1.0  0.98205  0.69922  0.43276  1.0000
  H   H2829     1.0  0.92462  0.77600  0.45856  1.0000
  C   C3557     1.0  0.66577  0.87913  0.34930  1.0000
  C   C3558     1.0  0.67632  0.90369  0.25278  1.0000
  C   C3559     1.0  0.94796  0.63807  0.27131  1.0000
  C   C3560     1.0  0.95903  0.63068  0.31636  1.0000
  C   C3561     1.0  0.84234  0.85821  0.46834  1.0000
  H   H2830     1.0  0.95079  0.68025  0.33399  1.0000
  C   C3562     1.0  0.93396  0.64964  0.26059  1.0000
  C   C3563     1.0  0.96734  0.67563  0.33441  1.0000
  C   C3564     1.0  0.96689  0.61832  0.33042  1.0000
  C   C3565     1.0  0.69566  0.94187  0.42834  1.0000
  C   C3566     1.0  0.68898  0.95552  0.34801  1.0000
  H   H2831     1.0  0.71410  0.89177  0.44150  1.0000
  C   C3567     1.0  0.73556  0.97208  0.42538  1.0000
  C   C3568     1.0  0.97348  0.62018  0.45687  1.0000
  C   C3569     1.0  0.74335  0.91968  0.46806  1.0000
  H   H2832     1.0  0.95675  0.61542  0.34217  1.0000
  C   C3570     1.0  0.76715  0.95729  0.32559  1.0000
  H   H2833     1.0  0.81961  0.89864  0.43079  1.0000
  H   H2834     1.0  0.91973  0.61067  0.24336  1.0000
  H   H2835     1.0  0.96933  0.71996  0.41229  1.0000
  C   C3571     1.0  0.91680  0.50608  0.24550  1.0000
  C   C3572     1.0  0.80973  0.91700  0.45144  1.0000
  H   H2836     1.0  0.66015  0.95248  0.41021  1.0000
  C   C3573     1.0  0.92372  0.63977  0.25063  1.0000
  S   S473      1.0  0.65970  0.85245  0.32665  1.0000
  H   H2837     1.0  0.94466  0.59015  0.26193  1.0000
  H   H2838     1.0  0.93101  0.66630  0.25986  1.0000
  H   H2839     1.0  0.66944  0.95976  0.44155  1.0000
  H   H2840     1.0  0.72139  0.91664  0.36766  1.0000
  H   H2841     1.0  0.76065  0.96276  0.36663  1.0000
  H   H2842     1.0  0.97218  0.50311  0.31893  1.0000
  C   C3574     1.0  0.74659  0.96077  0.30222  1.0000
  C   C3575     1.0  0.98096  0.65474  0.45794  1.0000
  H   H2843     1.0  0.68437  0.96900  0.26604  1.0000
  C   C3576     1.0  0.83227  0.82548  0.48246  1.0000
  H   H2844     1.0  0.73378  0.96830  0.29548  1.0000
  H   H2845     1.0  0.88614  0.84023  0.47921  1.0000
  H   H2846     1.0  0.98288  0.74058  0.38016  1.0000
  H   H2847     1.0  0.66971  0.87363  0.24994  1.0000
  C   C3577     1.0  0.67496  0.92874  0.45417  1.0000
  H   H2848     1.0  0.68433  0.89701  0.46411  1.0000
  C   C3578     1.0  0.68910  0.97664  0.25344  1.0000
  H   H2849     1.0  0.91567  0.57159  0.25151  1.0000
  H   H2850     1.0  0.74388  0.95786  0.42113  1.0000
  C   C3579     1.0  0.80251  0.97350  0.38125  1.0000
  C   C3580     1.0  0.75087  0.96817  0.31680  1.0000
  H   H2851     1.0  0.77786  0.81391  0.48174  1.0000
  H   H2852     1.0  0.66209  0.93112  0.46412  1.0000
  H   H2853     1.0  0.97590  0.62262  0.38018  1.0000
  H   H2854     1.0  0.91269  0.64869  0.24257  1.0000
  C   C3581     1.0  0.98781  0.63371  0.45683  1.0000
  C   C3582     1.0  0.98776  0.60964  0.32933  1.0000
  C   C3583     1.0  0.71472  0.97856  0.42274  1.0000
  H   H2855     1.0  0.84930  0.87867  0.48476  1.0000
  H   H2856     1.0  0.72271  0.85717  0.48138  1.0000
  C   C3584     1.0  0.84475  0.86380  0.48408  1.0000
  C   C3585     1.0  0.98834  0.56191  0.31020  1.0000
  S   S474      1.0  0.93916  0.73622  0.48381  1.0000
  H   H2857     1.0  0.79060  0.97881  0.45124  1.0000
  H   H2858     1.0  0.92975  0.78494  0.48633  1.0000
  H   H2859     1.0  0.76238  0.97966  0.43441  1.0000
  C   C3586     1.0  0.98817  0.65478  0.25153  1.0000
  Fe  Fe237     1.0  0.76457  0.90157  0.54841  1.0000
  S   S475      1.0  0.73604  0.88585  0.55306  1.0000
  S   S476      1.0  0.75722  0.93629  0.54204  1.0000
  Fe  Fe238     1.0  0.79358  0.86013  0.55058  1.0000
  S   S477      1.0  0.76715  0.84130  0.55535  1.0000
  S   S478      1.0  0.82850  0.84911  0.54726  1.0000
  Fe  Fe239     1.0  0.75335  0.86439  0.53485  1.0000
  S   S479      1.0  0.73604  0.85700  0.51441  1.0000
  Fe  Fe240     1.0  0.75173  0.86442  0.57316  1.0000
  S   S480      1.0  0.73601  0.85699  0.60022  1.0000
  S   S481      1.0  0.78072  0.88157  0.52882  1.0000
  S   S482      1.0  0.77931  0.88169  0.56996  1.0000
  H   H2860     1.0  0.82099  0.96074  0.55202  1.0000
  C   C3587     1.0  0.97747  0.77045  0.49276  1.0000
  Fe  Fe241     1.0  0.95288  0.75036  0.53973  1.0000
  S   S483      1.0  0.96289  0.72185  0.52713  1.0000
  Fe  Fe242     1.0  0.90684  0.74486  0.54336  1.0000
  S   S484      1.0  0.91402  0.71507  0.53156  1.0000
  S   S485      1.0  0.87226  0.75565  0.54969  1.0000
  Fe  Fe243     1.0  0.94050  0.70740  0.54758  1.0000
  S   S486      1.0  0.95548  0.67744  0.56132  1.0000
  Fe  Fe244     1.0  0.93567  0.73215  0.51250  1.0000
  H   H2861     1.0  0.83950  0.94814  0.52054  1.0000
  S   S487      1.0  0.93167  0.73572  0.56112  1.0000
  S   S488      1.0  0.92724  0.76218  0.52337  1.0000
  Fe  Fe245     1.0  0.92662  0.58355  0.62380  1.0000
  S   S489      1.0  0.93412  0.59514  0.64690  1.0000
  S   S490      1.0  0.90932  0.60563  0.60438  1.0000
  Fe  Fe246     1.0  0.94796  0.53955  0.63361  1.0000
  S   S491      1.0  0.95736  0.54807  0.65732  1.0000
  C   C3588     1.0  0.67601  0.89169  0.55422  1.0000
  Fe  Fe247     1.0  0.92533  0.56545  0.66134  1.0000
  S   S492      1.0  0.90625  0.56564  0.68741  1.0000
  H   H2862     1.0  0.66543  0.84929  0.58977  1.0000
  S   S493      1.0  0.91491  0.55499  0.63864  1.0000
  H   H2863     1.0  0.67340  0.85320  0.64161  1.0000
  C   C3589     1.0  0.91975  0.56347  0.70535  1.0000
  C   C3590     1.0  0.94144  0.55998  0.70371  1.0000
  C   C3591     1.0  0.95189  0.55941  0.71796  1.0000
  C   C3592     1.0  0.76419  0.97585  0.54223  1.0000
  H   H2864     1.0  0.95024  0.55831  0.69138  1.0000
  H   H2865     1.0  0.96868  0.55733  0.71645  1.0000
  C   C3593     1.0  0.66677  0.85124  0.61632  1.0000
  C   C3594     1.0  0.66425  0.97271  0.71309  1.0000
  H   H2866     1.0  0.80008  0.93345  0.54922  1.0000
  H   H2867     1.0  0.97492  0.63179  0.62610  1.0000
  H   H2868     1.0  0.93715  0.64019  0.63244  1.0000
  C   C3595     1.0  0.94196  0.65806  0.57344  1.0000
  C   C3596     1.0  0.95222  0.64372  0.58530  1.0000
  C   C3597     1.0  0.94231  0.62769  0.59490  1.0000
  C   C3598     1.0  0.92204  0.62580  0.59265  1.0000
  C   C3599     1.0  0.91176  0.64010  0.58073  1.0000
  C   C3600     1.0  0.92172  0.65612  0.57108  1.0000
  H   H2869     1.0  0.96803  0.64485  0.58693  1.0000
  H   H2870     1.0  0.95045  0.61668  0.60393  1.0000
  H   H2871     1.0  0.89610  0.63866  0.57886  1.0000
  H   H2872     1.0  0.91384  0.66676  0.56168  1.0000
  C   C3601     1.0  0.84041  0.82314  0.54702  1.0000
  C   C3602     1.0  0.86220  0.81870  0.54441  1.0000
  C   C3603     1.0  0.87221  0.79816  0.54467  1.0000
  C   C3604     1.0  0.86047  0.78185  0.54762  1.0000
  C   C3605     1.0  0.83867  0.78641  0.54971  1.0000
  C   C3606     1.0  0.82868  0.80690  0.54946  1.0000
  H   H2873     1.0  0.87141  0.83120  0.54244  1.0000
  H   H2874     1.0  0.88898  0.79494  0.54304  1.0000
  H   H2875     1.0  0.82939  0.77408  0.55154  1.0000
  H   H2876     1.0  0.81193  0.81017  0.55127  1.0000
  C   C3607     1.0  0.94716  0.48736  0.62684  1.0000
  C   C3608     1.0  0.80441  0.79203  0.51514  1.0000
  H   H2877     1.0  0.76991  0.92350  0.50765  1.0000
  C   C3609     1.0  0.69254  0.90448  0.60630  1.0000
  H   H2878     1.0  0.77867  0.86175  0.50153  1.0000
  C   C3610     1.0  0.70923  0.85495  0.60592  1.0000
  C   C3611     1.0  0.69627  0.85331  0.59385  1.0000
  C   C3612     1.0  0.67521  0.85115  0.59909  1.0000
  H   H2879     1.0  0.97778  0.50462  0.66266  1.0000
  C   C3613     1.0  0.67963  0.85333  0.62830  1.0000
  C   C3614     1.0  0.70081  0.85484  0.62315  1.0000
  H   H2880     1.0  0.70260  0.85324  0.58057  1.0000
  C   C3615     1.0  0.74927  0.85984  0.49352  1.0000
  H   H2881     1.0  0.88256  0.53553  0.71639  1.0000
  H   H2882     1.0  0.71070  0.85608  0.63258  1.0000
  H   H2883     1.0  0.67388  0.87989  0.56501  1.0000
  H   H2884     1.0  0.67472  0.94062  0.64781  1.0000
  C   C3616     1.0  0.65877  0.94152  0.70286  1.0000
  C   C3617     1.0  0.77277  0.95493  0.54425  1.0000
  C   C3618     1.0  0.79332  0.94952  0.54773  1.0000
  C   C3619     1.0  0.80514  0.96500  0.54923  1.0000
  C   C3620     1.0  0.98060  0.59588  0.57131  1.0000
  H   H2885     1.0  0.88371  0.73383  0.50345  1.0000
  C   C3621     1.0  0.86267  0.78320  0.49100  1.0000
  C   C3622     1.0  0.82067  0.94524  0.50127  1.0000
  H   H2886     1.0  0.73866  0.90650  0.51116  1.0000
  C   C3623     1.0  0.88664  0.52087  0.72402  1.0000
  H   H2887     1.0  0.71074  0.94768  0.58388  1.0000
  C   C3624     1.0  0.67854  0.97660  0.69866  1.0000
  H   H2888     1.0  0.84350  0.85426  0.51118  1.0000
  C   C3625     1.0  0.84299  0.77979  0.48812  1.0000
  C   C3626     1.0  0.83808  0.75957  0.49102  1.0000
  S   S494      1.0  0.97829  0.76932  0.54099  1.0000
  C   C3627     1.0  0.76432  0.80760  0.50747  1.0000
  C   C3628     1.0  0.83444  0.91669  0.52101  1.0000
  H   H2889     1.0  0.96639  0.72309  0.71025  1.0000
  C   C3629     1.0  0.68169  0.92159  0.52605  1.0000
  C   C3630     1.0  0.69186  0.90141  0.52551  1.0000
  C   C3631     1.0  0.68896  0.88648  0.53956  1.0000
  H   H2890     1.0  0.67604  0.93507  0.67881  1.0000
  C   C3632     1.0  0.91265  0.49194  0.73200  1.0000
  C   C3633     1.0  0.76763  0.80014  0.52429  1.0000
  H   H2891     1.0  0.81986  0.78631  0.51851  1.0000
  H   H2892     1.0  0.68397  0.93311  0.51509  1.0000
  C   C3634     1.0  0.97445  0.62408  0.54887  1.0000
  C   C3635     1.0  0.84135  0.85015  0.49896  1.0000
  H   H2893     1.0  0.97180  0.60993  0.67089  1.0000
  H   H2894     1.0  0.97002  0.67421  0.51956  1.0000
  H   H2895     1.0  0.70206  0.89720  0.51426  1.0000
  H   H2896     1.0  0.69698  0.87087  0.53911  1.0000
  C   C3636     1.0  0.96143  0.67210  0.71448  1.0000
  H   H2897     1.0  0.91057  0.81703  0.49686  1.0000
  C   C3637     1.0  0.98156  0.66346  0.71800  1.0000
  H   H2898     1.0  0.80605  0.90015  0.49461  1.0000
  H   H2899     1.0  0.81921  0.96156  0.49668  1.0000
  C   C3638     1.0  0.70795  0.95719  0.57196  1.0000
  C   C3639     1.0  0.68269  0.96319  0.68621  1.0000
  C   C3640     1.0  0.77039  0.97645  0.58641  1.0000
  H   H2900     1.0  0.92447  0.48637  0.69524  1.0000
  H   H2901     1.0  0.71148  0.93090  0.55816  1.0000
  C   C3641     1.0  0.66954  0.95686  0.62313  1.0000
  H   H2902     1.0  0.77605  0.96397  0.50581  1.0000
  C   C3642     1.0  0.97938  0.62069  0.69320  1.0000
  C   C3643     1.0  0.66865  0.92688  0.54072  1.0000
  H   H2903     1.0  0.82286  0.75665  0.48914  1.0000
  H   H2904     1.0  0.66555  0.95566  0.57114  1.0000
  C   C3644     1.0  0.94049  0.48907  0.69380  1.0000
  S   S495      1.0  0.95875  0.56737  0.61700  1.0000
  C   C3645     1.0  0.78628  0.74668  0.56610  1.0000
  C   C3646     1.0  0.80119  0.73619  0.55490  1.0000
  C   C3647     1.0  0.82187  0.73196  0.55815  1.0000
  C   C3648     1.0  0.82769  0.73842  0.57247  1.0000
  C   C3649     1.0  0.81300  0.74965  0.58342  1.0000
  C   C3650     1.0  0.79210  0.75325  0.58039  1.0000
  P   P123      1.0  0.82067  0.75785  0.60194  1.0000
  C   C3651     1.0  0.82185  0.73641  0.61879  1.0000
  C   C3652     1.0  0.84643  0.76528  0.59669  1.0000
  C   C3653     1.0  0.86397  0.75005  0.59727  1.0000
  C   C3654     1.0  0.88396  0.75542  0.59302  1.0000
  C   C3655     1.0  0.88665  0.77604  0.58811  1.0000
  C   C3656     1.0  0.86935  0.79132  0.58764  1.0000
  C   C3657     1.0  0.84933  0.78601  0.59188  1.0000
  C   C3658     1.0  0.83263  0.73694  0.63266  1.0000
  C   C3659     1.0  0.83436  0.72010  0.64545  1.0000
  C   C3660     1.0  0.82532  0.70264  0.64448  1.0000
  C   C3661     1.0  0.81442  0.70207  0.63079  1.0000
  C   C3662     1.0  0.81263  0.71890  0.61799  1.0000
  C   C3663     1.0  0.80214  0.77946  0.60848  1.0000
  C   C3664     1.0  0.79343  0.77975  0.62561  1.0000
  C   C3665     1.0  0.77874  0.79632  0.63040  1.0000
  C   C3666     1.0  0.77265  0.81269  0.61818  1.0000
  C   C3667     1.0  0.78121  0.81253  0.60114  1.0000
  C   C3668     1.0  0.79581  0.79597  0.59626  1.0000
  H   H2905     1.0  0.77020  0.74982  0.56366  1.0000
  H   H2906     1.0  0.79674  0.73137  0.54369  1.0000
  H   H2907     1.0  0.83357  0.72409  0.54938  1.0000
  H   H2908     1.0  0.84380  0.73528  0.57459  1.0000
  H   H2909     1.0  0.78026  0.76118  0.58898  1.0000
  H   H2910     1.0  0.86222  0.73395  0.60059  1.0000
  H   H2911     1.0  0.89736  0.74353  0.59299  1.0000
  H   H2912     1.0  0.90211  0.78015  0.58427  1.0000
  H   H2913     1.0  0.87140  0.80728  0.58343  1.0000
  H   H2914     1.0  0.83633  0.79818  0.59098  1.0000
  H   H2915     1.0  0.83967  0.75041  0.63355  1.0000
  H   H2916     1.0  0.84269  0.72059  0.65613  1.0000
  H   H2917     1.0  0.82665  0.68959  0.65439  1.0000
  H   H2918     1.0  0.80729  0.68857  0.63011  1.0000
  H   H2919     1.0  0.80409  0.71811  0.60752  1.0000
  H   H2920     1.0  0.79772  0.76722  0.63530  1.0000
  H   H2921     1.0  0.77195  0.79649  0.64359  1.0000
  H   H2922     1.0  0.76120  0.82553  0.62185  1.0000
  H   H2923     1.0  0.77640  0.82531  0.59174  1.0000
  H   H2924     1.0  0.80217  0.79607  0.58295  1.0000
  H   H2925     1.0  0.86677  0.79858  0.48922  1.0000
  C   C3669     1.0  0.67755  0.96905  0.60873  1.0000
  H   H2926     1.0  0.84306  0.91087  0.53173  1.0000
  C   C3670     1.0  0.96751  0.60767  0.56011  1.0000
  H   H2927     1.0  0.91891  0.51902  0.71427  1.0000
  C   C3671     1.0  0.80129  0.79979  0.49817  1.0000
  C   C3672     1.0  0.83240  0.93766  0.51473  1.0000
  H   H2928     1.0  0.96822  0.67091  0.48949  1.0000
  C   C3673     1.0  0.68113  0.95022  0.63675  1.0000
  H   H2929     1.0  0.95170  0.60456  0.56063  1.0000
  Fe  Fe248     1.0  0.96536  0.57698  0.64120  1.0000
  H   H2930     1.0  0.74832  0.98012  0.53951  1.0000
  H   H2931     1.0  0.70732  0.95186  0.53031  1.0000
  P   P124      1.0  0.98860  0.63579  0.72190  1.0000
  C   C3674     1.0  0.95310  0.61954  0.71780  1.0000
  C   C3675     1.0  0.97050  0.49956  0.67532  1.0000
  H   H2932     1.0  0.70930  0.90056  0.60541  1.0000
  C   C3676     1.0  0.88697  0.62473  0.64579  1.0000
  C   C3677     1.0  0.88637  0.62298  0.66350  1.0000
  C   C3678     1.0  0.89187  0.63882  0.67100  1.0000
  C   C3679     1.0  0.89800  0.65642  0.66079  1.0000
  C   C3680     1.0  0.89865  0.65827  0.64296  1.0000
  C   C3681     1.0  0.89331  0.64216  0.63555  1.0000
  P   P125      1.0  0.90874  0.67969  0.62936  1.0000
  C   C3682     1.0  0.89493  0.68615  0.61080  1.0000
  C   C3683     1.0  0.90524  0.70223  0.64041  1.0000
  C   C3684     1.0  0.91883  0.70358  0.65215  1.0000
  C   C3685     1.0  0.91697  0.72137  0.66013  1.0000
  C   C3686     1.0  0.90165  0.73800  0.65635  1.0000
  C   C3687     1.0  0.88812  0.73682  0.64464  1.0000
  C   C3688     1.0  0.88983  0.71900  0.63673  1.0000
  C   C3689     1.0  0.87369  0.68431  0.61234  1.0000
  C   C3690     1.0  0.86276  0.68963  0.59816  1.0000
  C   C3691     1.0  0.87283  0.69719  0.58242  1.0000
  C   C3692     1.0  0.89373  0.69959  0.58091  1.0000
  C   C3693     1.0  0.90484  0.69396  0.59496  1.0000
  C   C3694     1.0  0.93640  0.67291  0.62367  1.0000
  C   C3695     1.0  0.94867  0.68834  0.61665  1.0000
  C   C3696     1.0  0.97968  0.66304  0.61648  1.0000
  H   H2933     1.0  0.93720  0.60198  0.68449  1.0000
  C   C3697     1.0  0.96763  0.64764  0.62361  1.0000
  C   C3698     1.0  0.94609  0.65251  0.62718  1.0000
  H   H2934     1.0  0.88333  0.61218  0.63987  1.0000
  H   H2935     1.0  0.88217  0.60907  0.67136  1.0000
  H   H2936     1.0  0.89173  0.63721  0.68473  1.0000
  H   H2937     1.0  0.90255  0.66826  0.66686  1.0000
  H   H2938     1.0  0.89455  0.64275  0.62180  1.0000
  H   H2939     1.0  0.93104  0.69096  0.65498  1.0000
  H   H2940     1.0  0.92762  0.72238  0.66907  1.0000
  H   H2941     1.0  0.90040  0.75189  0.66237  1.0000
  H   H2942     1.0  0.87649  0.74987  0.64150  1.0000
  H   H2943     1.0  0.87932  0.71856  0.62758  1.0000
  H   H2944     1.0  0.86559  0.67863  0.62447  1.0000
  H   H2945     1.0  0.84653  0.68775  0.59933  1.0000
  H   H2946     1.0  0.86454  0.70112  0.57132  1.0000
  H   H2947     1.0  0.90152  0.70532  0.56869  1.0000
  H   H2948     1.0  0.92118  0.69539  0.59320  1.0000
  H   H2949     1.0  0.94161  0.70422  0.61396  1.0000
  C   C3699     1.0  0.90727  0.51132  0.72272  1.0000
  C   C3700     1.0  0.83498  0.83119  0.49820  1.0000
  H   H2950     1.0  0.83222  0.82104  0.50997  1.0000
  C   C3701     1.0  0.96656  0.61277  0.68397  1.0000
  H   H2951     1.0  0.94046  0.70007  0.70900  1.0000
  C   C3702     1.0  0.78766  0.79221  0.52810  1.0000
  H   H2952     1.0  0.91622  0.70024  0.49040  1.0000
  H   H2953     1.0  0.84894  0.72747  0.49855  1.0000
  C   C3703     1.0  0.68072  0.90478  0.62230  1.0000
  H   H2954     1.0  0.89226  0.76931  0.49907  1.0000
  H   H2955     1.0  0.82640  0.88708  0.51876  1.0000
  C   C3704     1.0  0.95000  0.49559  0.67753  1.0000
  H   H2956     1.0  0.74881  0.81410  0.50457  1.0000
  H   H2957     1.0  0.91740  0.50518  0.63322  1.0000
  C   C3705     1.0  0.68276  0.90815  0.59150  1.0000
  H   H2958     1.0  0.66075  0.94251  0.54083  1.0000
  H   H2959     1.0  0.69229  0.90725  0.57934  1.0000
  H   H2960     1.0  0.97495  0.58352  0.58033  1.0000
  H   H2961     1.0  0.98245  0.73919  0.57093  1.0000
  C   C3706     1.0  0.76283  0.92223  0.49647  1.0000
  C   C3707     1.0  0.94703  0.60836  0.69158  1.0000
  C   C3708     1.0  0.92553  0.49026  0.63046  1.0000
  H   H2962     1.0  0.69354  0.96643  0.67493  1.0000
  C   C3709     1.0  0.87232  0.74658  0.49919  1.0000
  S   S496      1.0  0.96200  0.50748  0.62695  1.0000
  C   C3710     1.0  0.90858  0.56564  0.72154  1.0000
  H   H2963     1.0  0.96336  0.76490  0.49117  1.0000
  H   H2964     1.0  0.75469  0.80091  0.53437  1.0000
  C   C3711     1.0  0.82507  0.90325  0.51363  1.0000
  C   C3712     1.0  0.70092  0.95578  0.63592  1.0000
  C   C3713     1.0  0.94034  0.61168  0.70850  1.0000
  H   H2965     1.0  0.94149  0.49774  0.66656  1.0000
  C   C3714     1.0  0.70581  0.95938  0.54169  1.0000
  H   H2966     1.0  0.96397  0.63376  0.54071  1.0000
  C   C3715     1.0  0.98377  0.67490  0.51029  1.0000
  C   C3716     1.0  0.97279  0.62412  0.71024  1.0000
  H   H2967     1.0  0.92539  0.60772  0.71453  1.0000
  H   H2968     1.0  0.89333  0.60752  0.48966  1.0000
  H   H2969     1.0  0.71009  0.95038  0.64636  1.0000
  C   C3717     1.0  0.70891  0.96830  0.62159  1.0000
  C   C3718     1.0  0.85275  0.74303  0.49641  1.0000
  H   H2970     1.0  0.79029  0.78666  0.54117  1.0000
  H   H2971     1.0  0.68831  0.90114  0.63377  1.0000
  H   H2972     1.0  0.89180  0.56845  0.72292  1.0000
  C   C3719     1.0  0.87720  0.76665  0.49660  1.0000
  C   C3720     1.0  0.70818  0.94756  0.55744  1.0000
  C   C3721     1.0  0.67284  0.94562  0.68834  1.0000
  H   H2973     1.0  0.66833  0.97386  0.59829  1.0000
  H   H2974     1.0  0.74525  0.96246  0.58120  1.0000
  H   H2975     1.0  0.94982  0.66238  0.71401  1.0000
  C   C3722     1.0  0.97194  0.49098  0.70571  1.0000
  C   C3723     1.0  0.97020  0.68339  0.61301  1.0000
  H   H2976     1.0  0.66936  0.91487  0.73225  1.0000
  C   C3724     1.0  0.81340  0.91075  0.50009  1.0000
  C   C3725     1.0  0.66102  0.91253  0.59259  1.0000
  C   C3726     1.0  0.74484  0.91291  0.49853  1.0000
  H   H2977     1.0  0.97951  0.69535  0.60741  1.0000
  C   C3727     1.0  0.95603  0.69352  0.71165  1.0000
  H   H2978     1.0  0.98066  0.48980  0.71639  1.0000
  C   C3728     1.0  0.97062  0.70648  0.71239  1.0000
  C   C3729     1.0  0.77655  0.97504  0.49435  1.0000
  C   C3730     1.0  0.95143  0.48653  0.70805  1.0000
  H   H2979     1.0  0.94749  0.62205  0.73088  1.0000
  C   C3731     1.0  0.98133  0.49757  0.68942  1.0000
  C   C3732     1.0  0.66587  0.91195  0.55496  1.0000
  C   C3733     1.0  0.78102  0.80750  0.49447  1.0000
  C   C3734     1.0  0.70512  0.97883  0.57083  1.0000
  C   C3735     1.0  0.97659  0.78986  0.49794  1.0000
  C   C3736     1.0  0.69711  0.97525  0.60796  1.0000
  C   C3737     1.0  0.98287  0.67294  0.49320  1.0000
  H   H2980     1.0  0.78200  0.96383  0.58265  1.0000
  C   C3738     1.0  0.65912  0.90943  0.62349  1.0000
  C   C3739     1.0  0.74943  0.97580  0.58556  1.0000
  C   C3740     1.0  0.81070  0.93190  0.49411  1.0000
  C   C3741     1.0  0.77016  0.86256  0.49085  1.0000
  H   H2981     1.0  0.96173  0.79932  0.50052  1.0000
  H   H2982     1.0  0.72424  0.97249  0.62123  1.0000
  C   C3742     1.0  0.70270  0.98087  0.54047  1.0000
  C   C3743     1.0  0.94075  0.56193  0.73405  1.0000
  H   H2983     1.0  0.85536  0.51888  0.73589  1.0000
  C   C3744     1.0  0.87133  0.51143  0.73490  1.0000
  C   C3745     1.0  0.91904  0.56464  0.73591  1.0000
  Fe  Fe249     1.0  0.74604  0.57154  0.89623  1.0000
  S   S497      1.0  0.77100  0.56784  0.91357  1.0000
  S   S498      1.0  0.73139  0.60462  0.88843  1.0000
  Fe  Fe250     1.0  0.75212  0.52493  0.89367  1.0000
  S   S499      1.0  0.77705  0.51816  0.91081  1.0000
  C   C3746     1.0  0.80564  0.60167  0.87709  1.0000
  Fe  Fe251     1.0  0.75668  0.54034  0.92681  1.0000
  S   S500      1.0  0.74747  0.53183  0.95503  1.0000
  Fe  Fe252     1.0  0.78923  0.54605  0.89580  1.0000
  S   S501      1.0  0.82421  0.54275  0.88941  1.0000
  S   S502      1.0  0.73045  0.54531  0.91065  1.0000
  S   S503      1.0  0.76557  0.55164  0.87742  1.0000
  Fe  Fe253     1.0  0.94881  0.56637  0.81340  1.0000
  S   S504      1.0  0.96528  0.54430  0.79570  1.0000
  S   S505      1.0  0.96487  0.58649  0.82629  1.0000
  Fe  Fe254     1.0  0.90599  0.55703  0.80894  1.0000
  S   S506      1.0  0.91932  0.53454  0.79034  1.0000
  S   S507      1.0  0.87081  0.56225  0.81455  1.0000
  Fe  Fe255     1.0  0.94277  0.52318  0.80857  1.0000
  H   H2984     1.0  0.84225  0.60415  0.85107  1.0000
  Fe  Fe256     1.0  0.94064  0.55747  0.77875  1.0000
  H   H2985     1.0  0.65728  0.73785  0.90902  1.0000
  S   S508      1.0  0.92815  0.54415  0.82806  1.0000
  S   S509      1.0  0.92540  0.58132  0.79568  1.0000
  C   C3747     1.0  0.70762  0.50150  0.94152  1.0000
  C   C3748     1.0  0.68498  0.67866  0.93856  1.0000
  H   H2986     1.0  0.72307  0.49941  0.96370  1.0000
  H   H2987     1.0  0.77746  0.59471  0.86973  1.0000
  C   C3749     1.0  0.89941  0.60164  0.85936  1.0000
  H   H2988     1.0  0.97273  0.58574  0.77264  1.0000
  C   C3750     1.0  0.76049  0.53631  0.97159  1.0000
  C   C3751     1.0  0.77994  0.54306  0.96862  1.0000
  H   H2989     1.0  0.77368  0.50602  0.82990  1.0000
  C   C3752     1.0  0.78899  0.50517  0.83375  1.0000
  H   H2990     1.0  0.78732  0.54603  0.95569  1.0000
  C   C3753     1.0  0.86021  0.66456  0.89425  1.0000
  C   C3754     1.0  0.83679  0.54812  0.86846  1.0000
  C   C3755     1.0  0.85857  0.54472  0.86568  1.0000
  C   C3756     1.0  0.86917  0.54884  0.84922  1.0000
  C   C3757     1.0  0.85806  0.55642  0.83539  1.0000
  C   C3758     1.0  0.83626  0.55975  0.83817  1.0000
  C   C3759     1.0  0.82564  0.55567  0.85465  1.0000
  H   H2991     1.0  0.86731  0.53899  0.87631  1.0000
  H   H2992     1.0  0.88594  0.54638  0.84729  1.0000
  H   H2993     1.0  0.82755  0.56559  0.82753  1.0000
  H   H2994     1.0  0.80886  0.55834  0.85662  1.0000
  H   H2995     1.0  0.84156  0.64991  0.93549  1.0000
  H   H2996     1.0  0.81799  0.65019  0.87473  1.0000
  C   C3760     1.0  0.70562  0.61552  0.89543  1.0000
  C   C3761     1.0  0.69019  0.60322  0.90198  1.0000
  C   C3762     1.0  0.66979  0.61244  0.90697  1.0000
  H   H2997     1.0  0.86996  0.54314  0.91744  1.0000
  H   H2998     1.0  0.69392  0.58661  0.90294  1.0000
  H   H2999     1.0  0.98785  0.65679  0.75225  1.0000
  C   C3763     1.0  0.69968  0.66095  0.94036  1.0000
  C   C3764     1.0  0.77765  0.63804  0.93598  1.0000
  C   C3765     1.0  0.77789  0.63373  0.91933  1.0000
  C   C3766     1.0  0.76080  0.62673  0.91472  1.0000
  C   C3767     1.0  0.74337  0.62415  0.92668  1.0000
  C   C3768     1.0  0.74296  0.62836  0.94349  1.0000
  C   C3769     1.0  0.76024  0.63547  0.94800  1.0000
  P   P126      1.0  0.71988  0.62624  0.95864  1.0000
  C   C3770     1.0  0.70641  0.60685  0.95301  1.0000
  H   H3000     1.0  0.84827  0.50319  0.89262  1.0000
  C   C3771     1.0  0.86301  0.54141  0.76944  1.0000
  C   C3772     1.0  0.85696  0.55543  0.91690  1.0000
  H   H3001     1.0  0.92659  0.49272  0.79129  1.0000
  C   C3773     1.0  0.87421  0.50925  0.78644  1.0000
  C   C3774     1.0  0.85454  0.50996  0.79611  1.0000
  C   C3775     1.0  0.84086  0.58807  0.90309  1.0000
  H   H3002     1.0  0.81739  0.48887  0.90824  1.0000
  C   C3776     1.0  0.97688  0.61475  0.77980  1.0000
  C   C3777     1.0  0.70667  0.57246  0.94568  1.0000
  C   C3778     1.0  0.71714  0.58730  0.95014  1.0000
  C   C3779     1.0  0.70288  0.65062  0.95666  1.0000
  H   H3003     1.0  0.67784  0.89592  0.78475  1.0000
  H   H3004     1.0  0.68692  0.89122  0.75420  1.0000
  H   H3005     1.0  0.67661  0.75042  0.95520  1.0000
  H   H3006     1.0  0.97992  0.59649  0.74175  1.0000
  H   H3007     1.0  0.98522  0.49863  0.77818  1.0000
  H   H3008     1.0  0.79090  0.64350  0.93957  1.0000
  H   H3009     1.0  0.79127  0.63588  0.90996  1.0000
  H   H3010     1.0  0.76094  0.62336  0.90182  1.0000
  H   H3011     1.0  0.73020  0.61897  0.92269  1.0000
  H   H3012     1.0  0.76040  0.63910  0.96074  1.0000
  C   C3780     1.0  0.84353  0.54252  0.77920  1.0000
  H   H3013     1.0  0.83445  0.62060  0.92267  1.0000
  C   C3781     1.0  0.84158  0.63271  0.91452  1.0000
  H   H3014     1.0  0.87167  0.57267  0.89505  1.0000
  C   C3782     1.0  0.81057  0.50909  0.85485  1.0000
  C   C3783     1.0  0.82207  0.56963  0.92755  1.0000
  H   H3015     1.0  0.73361  0.58350  0.95122  1.0000
  C   C3784     1.0  0.85786  0.57231  0.90417  1.0000
  C   C3785     1.0  0.95989  0.50869  0.76321  1.0000
  P   P127      1.0  0.84191  0.61042  0.88709  1.0000
  H   H3016     1.0  0.83827  0.54086  0.93827  1.0000
  C   C3786     1.0  0.88150  0.49956  0.82861  1.0000
  C   C3787     1.0  0.70042  0.63712  0.89403  1.0000
  H   H3017     1.0  0.66199  0.69995  0.95156  1.0000
  C   C3788     1.0  0.72762  0.61912  0.97991  1.0000
  H   H3018     1.0  0.65792  0.60276  0.91178  1.0000
  H   H3019     1.0  0.78394  0.65891  0.86393  1.0000
  H   H3020     1.0  0.68229  0.68626  0.92591  1.0000
  H   H3021     1.0  0.91035  0.56669  0.74828  1.0000
  C   C3789     1.0  0.87416  0.60117  0.84023  1.0000
  C   C3790     1.0  0.79002  0.64293  0.86767  1.0000
  C   C3791     1.0  0.95362  0.48489  0.74475  1.0000
  H   H3022     1.0  0.80506  0.55063  0.98028  1.0000
  H   H3023     1.0  0.69444  0.49913  0.91877  1.0000
  C   C3792     1.0  0.79090  0.50985  0.84991  1.0000
  H   H3024     1.0  0.71221  0.64678  0.88885  1.0000
  H   H3025     1.0  0.86477  0.48518  0.75309  1.0000
  C   C3793     1.0  0.66867  0.74209  0.93209  1.0000
  H   H3026     1.0  0.89348  0.52400  0.76556  1.0000
  H   H3027     1.0  0.71485  0.55744  0.94354  1.0000
  C   C3794     1.0  0.89481  0.59985  0.84314  1.0000
  C   C3795     1.0  0.85807  0.60376  0.85359  1.0000
  C   C3796     1.0  0.67645  0.67610  0.96924  1.0000
  C   C3797     1.0  0.97667  0.49488  0.76866  1.0000
  H   H3028     1.0  0.70487  0.51820  0.94003  1.0000
  C   C3798     1.0  0.89926  0.49505  0.83697  1.0000
  S   S510      1.0  0.95457  0.56317  0.75112  1.0000
  C   C3799     1.0  0.66551  0.75328  0.94601  1.0000
  H   H3029     1.0  0.81201  0.51311  0.86729  1.0000
  H   H3030     1.0  0.83184  0.55573  0.77671  1.0000
  H   H3031     1.0  0.70801  0.65498  0.92897  1.0000
  C   C3800     1.0  0.85490  0.66529  0.91177  1.0000
  H   H3032     1.0  0.73147  0.65018  0.98317  1.0000
  H   H3033     1.0  0.65929  0.60062  0.94309  1.0000
  C   C3801     1.0  0.78641  0.60675  0.87088  1.0000
  H   H3034     1.0  0.86640  0.55364  0.75931  1.0000
  H   H3035     1.0  0.77712  0.51414  0.85857  1.0000
  C   C3802     1.0  0.87223  0.48357  0.82442  1.0000
  H   H3036     1.0  0.87062  0.59979  0.82763  1.0000
  H   H3037     1.0  0.80939  0.59812  0.91402  1.0000
  H   H3038     1.0  0.87515  0.51555  0.82519  1.0000
  C   C3803     1.0  0.66556  0.91758  0.74545  1.0000
  H   H3039     1.0  0.81151  0.58560  0.88052  1.0000
  C   C3804     1.0  0.68574  0.57710  0.94345  1.0000
  C   C3805     1.0  0.84557  0.64938  0.92188  1.0000
  C   C3806     1.0  0.84455  0.48879  0.88975  1.0000
  C   C3807     1.0  0.68530  0.61144  0.95065  1.0000
  S   S511      1.0  0.74215  0.49928  0.88213  1.0000
  H   H3040     1.0  0.84337  0.50354  0.84769  1.0000
  H   H3041     1.0  0.80499  0.49571  0.81016  1.0000
  C   C3808     1.0  0.82837  0.50348  0.84371  1.0000
  H   H3042     1.0  0.85807  0.67814  0.91751  1.0000
  C   C3809     1.0  0.89723  0.48271  0.74317  1.0000
  C   C3810     1.0  0.85625  0.64792  0.88684  1.0000
  C   C3811     1.0  0.67344  0.68629  0.95299  1.0000
  C   C3812     1.0  0.87664  0.49243  0.74457  1.0000
  C   C3813     1.0  0.94832  0.50379  0.75136  1.0000
  C   C3814     1.0  0.84696  0.63180  0.89692  1.0000
  H   H3043     1.0  0.82421  0.52839  0.79999  1.0000
  C   C3815     1.0  0.88335  0.60476  0.87268  1.0000
  C   C3816     1.0  0.82661  0.49814  0.82762  1.0000
  C   C3817     1.0  0.81709  0.61721  0.87895  1.0000
  H   H3044     1.0  0.95589  0.52326  0.76819  1.0000
  H   H3045     1.0  0.80809  0.56848  0.93641  1.0000
  H   H3046     1.0  0.90727  0.59734  0.83283  1.0000
  C   C3818     1.0  0.86254  0.60569  0.86992  1.0000
  C   C3819     1.0  0.67044  0.90667  0.77509  1.0000
  C   C3820     1.0  0.67514  0.59663  0.94582  1.0000
  P   P128      1.0  0.84946  0.48970  0.81339  1.0000
  H   H3047     1.0  0.76344  0.63117  0.86168  1.0000
  C   C3821     1.0  0.98003  0.60745  0.75058  1.0000
  H   H3048     1.0  0.81108  0.50398  0.98050  1.0000
  C   C3822     1.0  0.67562  0.90411  0.75786  1.0000
  H   H3049     1.0  0.91549  0.60057  0.86154  1.0000
  H   H3050     1.0  0.67633  0.66296  0.89834  1.0000
  C   C3823     1.0  0.80674  0.49934  0.82264  1.0000
  H   H3051     1.0  0.86041  0.64767  0.87321  1.0000
  C   C3824     1.0  0.82288  0.58645  0.91479  1.0000
  H   H3052     1.0  0.68226  0.73059  0.93038  1.0000
  H   H3053     1.0  0.67797  0.56579  0.93931  1.0000
  H   H3054     1.0  0.67665  0.62654  0.95204  1.0000
  C   C3825     1.0  0.77853  0.62736  0.86627  1.0000
  C   C3826     1.0  0.83926  0.52687  0.79245  1.0000
  C   C3827     1.0  0.80931  0.63790  0.87387  1.0000
  C   C3828     1.0  0.68006  0.64635  0.89932  1.0000
  H   H3055     1.0  0.76116  0.48866  0.95228  1.0000
  C   C3829     1.0  0.87830  0.52473  0.77302  1.0000
  H   H3056     1.0  0.97406  0.60976  0.79339  1.0000
  H   H3057     1.0  0.88717  0.60631  0.88515  1.0000
  H   H3058     1.0  0.67713  0.58779  0.98337  1.0000
  H   H3059     1.0  0.86747  0.67688  0.88640  1.0000
  H   H3060     1.0  0.90660  0.50744  0.83986  1.0000
  H   H3061     1.0  0.93542  0.51491  0.74733  1.0000
  H   H3062     1.0  0.86980  0.48550  0.86954  1.0000
  C   C3830     1.0  0.66122  0.97565  0.81795  1.0000
  H   H3063     1.0  0.67461  0.98080  0.82154  1.0000
  H   H3064     1.0  0.69234  0.65008  0.98369  1.0000
  S   S512      1.0  0.95485  0.48992  0.81659  1.0000
  H   H3065     1.0  0.79665  0.48934  0.93781  1.0000
  C   C3831     1.0  0.78995  0.54555  0.98253  1.0000
  C   C3832     1.0  0.83910  0.55411  0.92861  1.0000
  C   C3833     1.0  0.98363  0.62774  0.74458  1.0000
  C   C3834     1.0  0.97624  0.60118  0.76811  1.0000
  C   C3835     1.0  0.69089  0.65817  0.97107  1.0000
  C   C3836     1.0  0.66465  0.63400  0.90589  1.0000
  H   H3066     1.0  0.88657  0.49695  0.78946  1.0000
  H   H3067     1.0  0.66441  0.94725  0.83498  1.0000
  C   C3837     1.0  0.98118  0.63474  0.77397  1.0000
  H   H3068     1.0  0.72662  0.58627  0.98106  1.0000
  H   H3069     1.0  0.66737  0.68197  0.98042  1.0000
  H   H3070     1.0  0.98182  0.64516  0.78311  1.0000
  C   C3838     1.0  0.98455  0.64125  0.75643  1.0000
  C   C3839     1.0  0.71802  0.49075  0.95495  1.0000
  H   H3071     1.0  0.98855  0.61111  0.83955  1.0000
  C   C3840     1.0  0.70169  0.49078  0.92960  1.0000
  H   H3072     1.0  0.70315  0.55659  0.98609  1.0000
