data_image0
_chemical_formula_structural       CH3C2H3C2SH2C2H5C2H7PC17SHSCHC3HCHCHPHFeC4FeSCHSFeSFeS2FeCSHSH2SC9H4SFeCH2C5H2C2HPC7HCFeCHCHCHC3HC2H2CH5CSFeH6CSH3FeC3H3C5HC4HC3H2CHCH2CH2CH2C2H2C4H2C5FeSHFeS2FeHFeCS2CH3CHFeCSFeSCFeSFeCSC2HCH4SFeSFeC2HCH2CHFeCSCH2CHC3HCHC3HC2H2CHCH3FeC3HC3H2SH2C5H4SCH3CHCFeC3SCH2CSC3HC6PC4HC3H2C7H6CPH2FeCH5C2HC2SCH2C2HCHSHC7PC4SC14HPH3CSCH13CH3FeC6HSC13SHCH3CH5CH5C2SC2HC4SHCH3C2H2CHCHCHCHCH6CHFeCH3C3HCHCH3C2SHC2HSHPH7CHC3HC2SHCHCHC4HCHC2HCHFeSHFeSCFeS2FeCFeCFeS3FeS2FeS2FeSFeHS2H2FeS2FeS2FeSFeHS2HC2HC4H3C4HCH3CH3C3H2C6H4CH2C6H5C2HC10H4C2HCSC8PC4SHC2H7SC3HCHC12HC4H2CHC2H6CH2CH2CPC3PH2C15H3C2H12PCPC2HC12H4CH5CHCH4C2HSC2H2C2HFeHCH2C2HCHCH3C2HC12H2C2HC3HCHCHC3HC3HC4SCHC3HSCPHC3HCHCH4CH2C3SC2HCHC2HCH2CH2C2HC2HC3HC3HCHCPC3HCHC4PCH3C2HCH2CHCH2CH4CHSH5CH2PC2HCSHSC3SHCSCHCHC2HC3H2C3HCHCFeH3CH2C2H2CH2C2HC3SHSFe2S2FeS2FeSFeS3HCHC2H2C2H2CHCHC3HCHPHC7H3C7H2CH2C7H6CH2CHCH2C2HC3SCHCH3CHCHC3SHCHC4HCHC2HC2HCHSHCPSH2FeHSC7PC18H2CH3C2HCH11CH4CHCFeC3HC2H6C2HC3SC2H2CH2CHCH2CH4CH2C5H2SH3C2H4C2H2C2H2CH2C2HCHCHCHCH5C3HC3H2C7H2CH2SHC8H2PH2C3PCHSH2CH2CH2CHC4PH2C2H2CHCH2CHCHFeS2FeSHFeHFeS3FeHSCSFeSCHSC7H5C9HC4FeC3H3PHCHCH2CHC3HC3HC6H6CHC2HCHC5SHC5HSH3CHC4HCFeCHCH2CH6CSH3C2HC2H4CHPCH3C2HCHCH2C2HC2HCH3CH2C2HC2H3C2HC2HC3HCH3CH2C3HCHC2HC3HC3PCH2C4H2CH4SC2HFeS2FeSFeSFeCS2FeSCFeS2FeS2FeS2FeSFeS3HSCH2FeS2FeS2FeSFeS3C7H4C6H4C6H4CHCHC2HC2HC6HCH2C6H4SHC3H4C8H5CHCH2CH4C6PC15H17C6PC18HC2H9CH9C2HC2H5C4H4C8H7C6PC4H2C12H7SCH9CH4CHC2H2P2C6HCHC3HC3HCHSC4HC4H2CHCH2C5H3CHC2HC3H2C3SHCSFeC2HC2H2CSHCHC4HCHC3H2CHC2HC3SFeH2CHPCH2CHC2H2SC3H2CHC2H6C2HC3H2CH3C6HC2PH2C3H2C3PC3H3CH2C3HC2HCH3CH4C2PHC8HCHCSC2HC6HCHPH3C4HPCHCH2CHSCH5C2HCHCSH2FeS2FeS2FeHFeS3FeS2FeS2FeCFeCS2FeS2FeS2Fe2S3HCFeS2FeS2C6H4C5HC7H4CHCSC9H6C3HC2H2C3H2CH3C2HCHC3H4C2H2C2HC6SCHCHCH11C6PC3H2C13H7CH10CHC6PC18H17CH6CHC2H2C2HC9PC10H5C2H7C3H2CH2PC7HCHC2HCHCHC7HCHSHC5HCPC2HCSH2CSCPHC4H2C2PCHC4HCHCHCHC3HCHC6H2CHSH3CH2FeHSHCHCH2CHC2HCSH2C2HC3HCH2C2H7CHFeCHC2HCH2C4H5C3HCHCH11CH3C2HC2HCH4C2SH2CHCHCHC3PCH3CPC4H5C2HC5HC3H3CHCHC5HCHCHC6H4C2H4CH2CH4C3H2C4H4CHC2SCHC4H3CH2C2H2C2HCPHCFeS2CFeCS2FeSCFeHFeCHSHC2SCHCHCHCH2C2SH2CHC2HC5HC4SCHCH2C2HC2HCH2C2HFeHCH2CHFeH2CH2C2H2CH3CPC2H2C2HC5HC4SCSH2SCHSHCHC2HCHFeH2C2HCSC2HCHC
_chemical_formula_sum              "C1440 H1152 S192 P48 Fe96"
_cell_length_a       58.7398
_cell_length_b       61.0834
_cell_length_c       60.2959
_cell_angle_alpha    79.0024
_cell_angle_beta     74.0918
_cell_angle_gamma    76.7596

_space_group_name_H-M_alt    "P 1"
_space_group_IT_number       1

loop_
  _space_group_symop_operation_xyz
  'x, y, z'

loop_
  _atom_site_type_symbol
  _atom_site_label
  _atom_site_symmetry_multiplicity
  _atom_site_fract_x
  _atom_site_fract_y
  _atom_site_fract_z
  _atom_site_occupancy
  C   C1        1.0  0.44458  0.19503  0.45902  1.0000
  H   H1        1.0  0.33902  0.07299  0.44396  1.0000
  H   H2        1.0  0.40145  0.10776  0.45777  1.0000
  H   H3        1.0  0.38338  0.15714  0.36178  1.0000
  C   C2        1.0  0.45648  0.13232  0.45842  1.0000
  C   C3        1.0  0.48843  0.07644  0.44000  1.0000
  H   H4        1.0  0.46418  0.15500  0.42642  1.0000
  H   H5        1.0  0.41282  0.19088  0.45022  1.0000
  H   H6        1.0  0.40883  0.27699  0.46208  1.0000
  C   C4        1.0  0.38798  0.10016  0.45455  1.0000
  C   C5        1.0  0.44636  0.07462  0.44585  1.0000
  S   S1        1.0  0.47135  0.98834  0.37747  1.0000
  H   H7        1.0  0.40325  0.18516  0.37056  1.0000
  H   H8        1.0  0.43766  0.13313  0.41567  1.0000
  C   C6        1.0  0.47164  0.14298  0.43942  1.0000
  C   C7        1.0  0.44030  0.06594  0.35082  1.0000
  H   H9        1.0  0.44830  0.07116  0.33269  1.0000
  H   H10       1.0  0.39065  0.11708  0.37983  1.0000
  H   H11       1.0  0.43958  0.03218  0.34556  1.0000
  H   H12       1.0  0.42373  0.01960  0.38728  1.0000
  H   H13       1.0  0.37687  0.07449  0.41410  1.0000
  C   C8        1.0  0.46818  0.09195  0.40897  1.0000
  C   C9        1.0  0.49307  0.24310  0.46319  1.0000
  H   H14       1.0  0.43020  0.06926  0.45702  1.0000
  H   H15       1.0  0.47911  0.22047  0.42568  1.0000
  H   H16       1.0  0.44020  0.09754  0.36139  1.0000
  H   H17       1.0  0.41560  0.04547  0.41631  1.0000
  H   H18       1.0  0.45607  0.19052  0.44262  1.0000
  H   H19       1.0  0.46910  0.10006  0.39122  1.0000
  H   H20       1.0  0.43027  0.17289  0.39777  1.0000
  P   P1        1.0  0.42003  0.09289  0.41196  1.0000
  C   C10       1.0  0.41530  0.12203  0.39848  1.0000
  C   C11       1.0  0.42580  0.07392  0.39080  1.0000
  C   C12       1.0  0.42194  0.05158  0.39802  1.0000
  C   C13       1.0  0.42641  0.03686  0.38161  1.0000
  C   C14       1.0  0.43542  0.04401  0.35803  1.0000
  C   C15       1.0  0.44654  0.08629  0.42337  1.0000
  C   C16       1.0  0.43564  0.08084  0.36716  1.0000
  C   C17       1.0  0.39962  0.12912  0.38354  1.0000
  C   C18       1.0  0.39541  0.15180  0.37339  1.0000
  C   C19       1.0  0.40656  0.16759  0.37835  1.0000
  C   C20       1.0  0.42183  0.16071  0.39356  1.0000
  C   C21       1.0  0.42612  0.13804  0.40364  1.0000
  C   C22       1.0  0.39246  0.09063  0.43402  1.0000
  C   C23       1.0  0.37434  0.08140  0.43002  1.0000
  C   C24       1.0  0.35251  0.08100  0.44670  1.0000
  C   C25       1.0  0.46723  0.07007  0.45419  1.0000
  C   C26       1.0  0.48950  0.01872  0.39526  1.0000
  S   S2        1.0  0.42507  0.13999  0.46351  1.0000
  H   H21       1.0  0.46725  0.02134  0.46814  1.0000
  S   S3        1.0  0.36117  0.01391  0.45238  1.0000
  C   C27       1.0  0.48493  0.01210  0.37598  1.0000
  H   H22       1.0  0.48978  0.01883  0.33883  1.0000
  C   C28       1.0  0.49292  0.02380  0.35386  1.0000
  C   C29       1.0  0.41992  0.19512  0.46332  1.0000
  C   C30       1.0  0.48888  0.08734  0.41742  1.0000
  H   H23       1.0  0.48372  0.00972  0.41248  1.0000
  C   C31       1.0  0.34835  0.09031  0.46720  1.0000
  H   H24       1.0  0.39948  0.02861  0.46594  1.0000
  C   C32       1.0  0.36607  0.09989  0.47112  1.0000
  H   H25       1.0  0.46698  0.06226  0.47186  1.0000
  P   P2        1.0  0.48610  0.19810  0.47193  1.0000
  H   H26       1.0  0.49408  0.24277  0.44513  1.0000
  Fe  Fe1       1.0  0.39148  0.98633  0.43763  1.0000
  C   C33       1.0  0.45413  0.19952  0.47625  1.0000
  C   C34       1.0  0.36168  0.02694  0.47613  1.0000
  C   C35       1.0  0.49107  0.11205  0.47319  1.0000
  C   C36       1.0  0.46650  0.11610  0.47450  1.0000
  Fe  Fe2       1.0  0.43462  0.08777  0.53421  1.0000
  S   S4        1.0  0.40008  0.09052  0.56224  1.0000
  C   C37       1.0  0.34762  0.18976  0.53309  1.0000
  H   H27       1.0  0.37964  0.03520  0.61577  1.0000
  S   S5        1.0  0.37611  0.12874  0.52407  1.0000
  Fe  Fe3       1.0  0.39627  0.12863  0.55111  1.0000
  S   S6        1.0  0.38541  0.15758  0.57329  1.0000
  Fe  Fe4       1.0  0.38295  0.09055  0.53283  1.0000
  S   S7        1.0  0.43209  0.12556  0.52611  1.0000
  S   S8        1.0  0.41755  0.08533  0.50615  1.0000
  Fe  Fe5       1.0  0.44133  0.26797  0.56594  1.0000
  C   C38       1.0  0.49088  0.99013  0.54659  1.0000
  S   S9        1.0  0.45209  0.22949  0.56568  1.0000
  H   H28       1.0  0.36815  0.02133  0.55302  1.0000
  S   S10       1.0  0.47229  0.06761  0.53201  1.0000
  H   H29       1.0  0.25616  0.26508  0.61965  1.0000
  H   H30       1.0  0.35894  0.04602  0.58338  1.0000
  S   S11       1.0  0.40539  0.28996  0.57837  1.0000
  C   C39       1.0  0.44311  0.02473  0.50189  1.0000
  C   C40       1.0  0.38118  0.26872  0.49251  1.0000
  C   C41       1.0  0.42674  0.01484  0.52029  1.0000
  C   C42       1.0  0.40397  0.17784  0.57031  1.0000
  C   C43       1.0  0.39397  0.19826  0.57981  1.0000
  C   C44       1.0  0.40827  0.21448  0.57817  1.0000
  C   C45       1.0  0.43288  0.21027  0.56730  1.0000
  C   C46       1.0  0.44294  0.18971  0.55816  1.0000
  C   C47       1.0  0.42855  0.17377  0.55933  1.0000
  H   H31       1.0  0.37509  0.20149  0.58869  1.0000
  H   H32       1.0  0.40037  0.23000  0.58574  1.0000
  H   H33       1.0  0.46199  0.18608  0.54999  1.0000
  H   H34       1.0  0.43667  0.15812  0.55217  1.0000
  S   S12       1.0  0.44834  0.28857  0.53061  1.0000
  Fe  Fe6       1.0  0.41265  0.12310  0.49984  1.0000
  C   C48       1.0  0.49388  0.13752  0.51474  1.0000
  H   H35       1.0  0.35228  0.28780  0.59959  1.0000
  H   H36       1.0  0.40970  0.99931  0.61754  1.0000
  C   C49       1.0  0.33985  0.03302  0.49223  1.0000
  C   C50       1.0  0.49060  0.24536  0.50960  1.0000
  C   C51       1.0  0.39481  0.25302  0.52769  1.0000
  C   C52       1.0  0.41849  0.25425  0.51546  1.0000
  C   C53       1.0  0.40034  0.00386  0.60367  1.0000
  H   H37       1.0  0.48903  0.24655  0.52768  1.0000
  H   H38       1.0  0.27658  0.27423  0.57806  1.0000
  C   C54       1.0  0.47635  0.02758  0.61821  1.0000
  C   C55       1.0  0.28368  0.29623  0.51673  1.0000
  H   H39       1.0  0.45554  0.10627  0.48796  1.0000
  P   P3        1.0  0.34563  0.25744  0.53184  1.0000
  C   C56       1.0  0.37595  0.26046  0.51638  1.0000
  C   C57       1.0  0.34064  0.25825  0.56258  1.0000
  C   C58       1.0  0.34958  0.27427  0.57008  1.0000
  C   C59       1.0  0.34508  0.27563  0.59384  1.0000
  C   C60       1.0  0.33149  0.26118  0.61023  1.0000
  C   C61       1.0  0.32211  0.24552  0.60287  1.0000
  C   C62       1.0  0.32640  0.24423  0.57912  1.0000
  H   H40       1.0  0.35321  0.17396  0.54358  1.0000
  C   C63       1.0  0.46779  0.00156  0.55663  1.0000
  Fe  Fe7       1.0  0.42593  0.31152  0.58945  1.0000
  C   C64       1.0  0.37690  0.01607  0.56734  1.0000
  H   H41       1.0  0.26573  0.29386  0.51751  1.0000
  C   C65       1.0  0.34241  0.23088  0.52514  1.0000
  H   H42       1.0  0.47930  0.07999  0.57029  1.0000
  C   C66       1.0  0.32978  0.30259  0.51514  1.0000
  H   H43       1.0  0.44650  0.04115  0.50274  1.0000
  C   C67       1.0  0.33855  0.18946  0.51404  1.0000
  C   C68       1.0  0.47364  0.11498  0.57463  1.0000
  C   C69       1.0  0.33405  0.23041  0.50555  1.0000
  H   H44       1.0  0.33713  0.17341  0.50983  1.0000
  C   C70       1.0  0.45192  0.99148  0.48269  1.0000
  C   C71       1.0  0.33869  0.04506  0.51026  1.0000
  H   H45       1.0  0.39703  0.05117  0.49709  1.0000
  H   H46       1.0  0.36013  0.28566  0.55757  1.0000
  C   C72       1.0  0.48456  0.15632  0.50043  1.0000
  H   H47       1.0  0.32830  0.26212  0.62863  1.0000
  H   H48       1.0  0.31157  0.23432  0.61560  1.0000
  H   H49       1.0  0.31853  0.23232  0.57379  1.0000
  H   H50       1.0  0.39131  0.24610  0.54589  1.0000
  H   H51       1.0  0.44380  0.03409  0.55993  1.0000
  C   C73       1.0  0.30057  0.27796  0.52380  1.0000
  S   S13       1.0  0.46133  0.28753  0.58004  1.0000
  Fe  Fe8       1.0  0.46562  0.30947  0.54522  1.0000
  H   H52       1.0  0.45527  0.11859  0.57264  1.0000
  H   H53       1.0  0.40268  0.20507  0.51966  1.0000
  H   H54       1.0  0.47282  0.14909  0.57978  1.0000
  H   H55       1.0  0.41755  0.02425  0.53469  1.0000
  H   H56       1.0  0.48391  0.21148  0.51691  1.0000
  H   H57       1.0  0.24443  0.29466  0.64587  1.0000
  C   C74       1.0  0.34987  0.21032  0.53845  1.0000
  S   S14       1.0  0.35565  0.06916  0.53400  1.0000
  H   H58       1.0  0.43295  0.24829  0.52432  1.0000
  H   H59       1.0  0.32161  0.04968  0.52243  1.0000
  H   H60       1.0  0.32939  0.24592  0.49427  1.0000
  Fe  Fe9       1.0  0.41374  0.31169  0.54374  1.0000
  C   C75       1.0  0.33194  0.20978  0.50016  1.0000
  C   C76       1.0  0.42354  0.26303  0.49187  1.0000
  C   C77       1.0  0.39398  0.99586  0.56808  1.0000
  H   H61       1.0  0.46069  0.03181  0.63219  1.0000
  H   H62       1.0  0.44568  0.20621  0.51185  1.0000
  H   H63       1.0  0.28501  0.31272  0.56262  1.0000
  C   C78       1.0  0.48257  0.00579  0.61181  1.0000
  C   C79       1.0  0.48762  0.22553  0.50336  1.0000
  C   C80       1.0  0.43871  0.20339  0.49804  1.0000
  C   C81       1.0  0.38116  0.04583  0.49607  1.0000
  C   C82       1.0  0.40565  0.98979  0.58641  1.0000
  H   H64       1.0  0.35767  0.21001  0.55286  1.0000
  C   C83       1.0  0.32403  0.28085  0.52222  1.0000
  C   C84       1.0  0.38343  0.02406  0.60269  1.0000
  C   C85       1.0  0.35912  0.05213  0.51198  1.0000
  C   C86       1.0  0.37169  0.03012  0.58455  1.0000
  H   H65       1.0  0.29538  0.26158  0.53037  1.0000
  C   C87       1.0  0.47844  0.03774  0.53716  1.0000
  C   C88       1.0  0.46151  0.02534  0.55188  1.0000
  C   C89       1.0  0.41420  0.20287  0.50250  1.0000
  H   H66       1.0  0.46821  0.15618  0.49548  1.0000
  H   H67       1.0  0.32542  0.20947  0.48508  1.0000
  C   C90       1.0  0.25295  0.29875  0.62762  1.0000
  H   H68       1.0  0.34737  0.30546  0.51493  1.0000
  C   C91       1.0  0.40490  0.27019  0.48036  1.0000
  H   H69       1.0  0.45493  0.99204  0.56839  1.0000
  H   H70       1.0  0.44188  0.26428  0.48259  1.0000
  C   C92       1.0  0.45517  0.01337  0.48277  1.0000
  H   H71       1.0  0.47173  0.99309  0.62065  1.0000
  H   H72       1.0  0.33165  0.08956  0.48037  1.0000
  C   C93       1.0  0.40478  0.19887  0.48510  1.0000
  H   H73       1.0  0.38594  0.19792  0.48868  1.0000
  H   H74       1.0  0.36697  0.27410  0.48331  1.0000
  C   C94       1.0  0.25961  0.28207  0.61286  1.0000
  C   C95       1.0  0.48355  0.13215  0.57861  1.0000
  H   H75       1.0  0.48542  0.06057  0.61212  1.0000
  H   H76       1.0  0.32364  0.02855  0.49063  1.0000
  C   C96       1.0  0.27101  0.28724  0.58941  1.0000
  C   C97       1.0  0.42266  0.99318  0.51993  1.0000
  C   C98       1.0  0.48737  0.09312  0.57314  1.0000
  C   C99       1.0  0.49029  0.04395  0.60654  1.0000
  H   H77       1.0  0.36303  0.10665  0.48726  1.0000
  H   H78       1.0  0.48467  0.12322  0.52078  1.0000
  C   C100      1.0  0.48935  0.22404  0.47997  1.0000
  C   C101      1.0  0.27559  0.30912  0.58067  1.0000
  C   C102      1.0  0.28993  0.31757  0.50859  1.0000
  C   C103      1.0  0.38254  0.03297  0.47838  1.0000
  C   C104      1.0  0.44501  0.60615  0.14513  1.0000
  Fe  Fe10      1.0  0.41110  0.58561  0.08193  1.0000
  S   S15       1.0  0.44183  0.60176  0.05979  1.0000
  H   H79       1.0  0.30914  0.56823  0.47422  1.0000
  Fe  Fe11      1.0  0.41446  0.55575  0.04417  1.0000
  S   S16       1.0  0.44642  0.56869  0.02016  1.0000
  S   S17       1.0  0.39472  0.53161  0.03561  1.0000
  Fe  Fe12      1.0  0.45909  0.56658  0.05250  1.0000
  H   H80       1.0  0.41902  0.50315  0.42957  1.0000
  Fe  Fe13      1.0  0.42642  0.60284  0.02938  1.0000
  C   C105      1.0  0.45480  0.54016  0.13750  1.0000
  S   S18       1.0  0.42919  0.54998  0.07607  1.0000
  S   S19       1.0  0.39325  0.59039  0.05211  1.0000
  C   C106      1.0  0.14670  0.61355  0.39479  1.0000
  H   H81       1.0  0.49135  0.42153  0.23925  1.0000
  H   H82       1.0  0.21597  0.55433  0.41524  1.0000
  H   H83       1.0  0.14914  0.43696  0.35367  1.0000
  C   C107      1.0  0.33181  0.59680  0.15854  1.0000
  H   H84       1.0  0.10385  0.52903  0.31216  1.0000
  Fe  Fe14      1.0  0.01287  0.63694  0.43230  1.0000
  C   C108      1.0  0.17916  0.64975  0.33740  1.0000
  S   S20       1.0  0.43436  0.61088  0.29343  1.0000
  Fe  Fe15      1.0  0.02602  0.58727  0.44488  1.0000
  S   S21       1.0  0.04700  0.58069  0.40901  1.0000
  C   C109      1.0  0.33620  0.63337  0.16549  1.0000
  Fe  Fe16      1.0  0.06211  0.61146  0.40874  1.0000
  S   S22       1.0  0.10240  0.60821  0.39288  1.0000
  Fe  Fe17      1.0  0.01619  0.60502  0.39769  1.0000
  C   C110      1.0  0.33287  0.63876  0.21432  1.0000
  S   S23       1.0  0.04379  0.61553  0.44593  1.0000
  C   C111      1.0  0.18618  0.53513  0.47002  1.0000
  C   C112      1.0  0.33457  0.61049  0.17341  1.0000
  H   H85       1.0  0.29188  0.60522  0.34424  1.0000
  C   C113      1.0  0.39762  0.64931  0.36251  1.0000
  H   H86       1.0  0.33444  0.64171  0.40048  1.0000
  H   H87       1.0  0.35499  0.59725  0.25380  1.0000
  H   H88       1.0  0.44773  0.65051  0.06158  1.0000
  H   H89       1.0  0.48410  0.60004  0.07864  1.0000
  S   S24       1.0  0.23165  0.61660  0.38694  1.0000
  Fe  Fe18      1.0  0.25572  0.59983  0.41093  1.0000
  S   S25       1.0  0.43247  0.58112  0.25388  1.0000
  Fe  Fe19      1.0  0.46040  0.58755  0.26938  1.0000
  C   C114      1.0  0.34252  0.63385  0.30095  1.0000
  C   C115      1.0  0.11334  0.63222  0.42237  1.0000
  H   H90       1.0  0.00712  0.45491  0.33093  1.0000
  C   C116      1.0  0.20410  0.64855  0.33365  1.0000
  H   H91       1.0  0.22378  0.53076  0.45134  1.0000
  H   H92       1.0  0.44184  0.46648  0.24616  1.0000
  C   C117      1.0  0.02184  0.41725  0.44710  1.0000
  H   H93       1.0  0.18865  0.58321  0.46655  1.0000
  Fe  Fe20      1.0  0.25831  0.63987  0.37246  1.0000
  C   C118      1.0  0.41570  0.37914  0.47171  1.0000
  S   S26       1.0  0.48352  0.55525  0.28239  1.0000
  C   C119      1.0  0.12186  0.61855  0.40454  1.0000
  H   H94       1.0  0.01886  0.54212  0.43935  1.0000
  H   H95       1.0  0.28794  0.58344  0.44237  1.0000
  C   C120      1.0  0.40029  0.59315  0.16262  1.0000
  H   H96       1.0  0.10434  0.49152  0.47442  1.0000
  C   C121      1.0  0.48110  0.64585  0.03529  1.0000
  C   C122      1.0  0.45715  0.39645  0.21815  1.0000
  C   C123      1.0  0.32027  0.61922  0.26101  1.0000
  H   H97       1.0  0.00903  0.45319  0.44723  1.0000
  C   C124      1.0  0.20537  0.53827  0.45055  1.0000
  H   H98       1.0  0.39884  0.47816  0.39174  1.0000
  C   C125      1.0  0.31958  0.64688  0.30903  1.0000
  C   C126      1.0  0.43515  0.60371  0.16930  1.0000
  C   C127      1.0  0.28857  0.56593  0.45032  1.0000
  H   H99       1.0  0.40087  0.62855  0.33625  1.0000
  C   C128      1.0  0.43743  0.46953  0.37921  1.0000
  C   C129      1.0  0.46447  0.50127  0.28044  1.0000
  H   H100      1.0  0.45923  0.44709  0.27926  1.0000
  H   H101      1.0  0.46646  0.38682  0.18373  1.0000
  C   C130      1.0  0.47724  0.52586  0.13748  1.0000
  H   H102      1.0  0.45280  0.40770  0.25106  1.0000
  C   C131      1.0  0.33447  0.64243  0.14263  1.0000
  H   H103      1.0  0.06801  0.56577  0.45534  1.0000
  H   H104      1.0  0.25379  0.63155  0.47612  1.0000
  H   H105      1.0  0.41845  0.54314  0.13457  1.0000
  Fe  Fe21      1.0  0.21483  0.64031  0.41364  1.0000
  C   C132      1.0  0.47976  0.50274  0.13583  1.0000
  C   C133      1.0  0.47526  0.54667  0.18374  1.0000
  C   C134      1.0  0.13388  0.44103  0.36807  1.0000
  H   H106      1.0  0.46228  0.61135  0.13825  1.0000
  C   C135      1.0  0.33055  0.60585  0.13572  1.0000
  C   C136      1.0  0.30132  0.63657  0.32475  1.0000
  C   C137      1.0  0.06076  0.42400  0.46302  1.0000
  H   H107      1.0  0.47997  0.48313  0.08862  1.0000
  H   H108      1.0  0.18183  0.61931  0.39362  1.0000
  S   S27       1.0  0.26162  0.56201  0.42086  1.0000
  H   H109      1.0  0.38307  0.58790  0.16948  1.0000
  H   H110      1.0  0.40532  0.59459  0.19660  1.0000
  C   C138      1.0  0.48603  0.41407  0.22697  1.0000
  C   C139      1.0  0.41285  0.59689  0.17803  1.0000
  C   C140      1.0  0.42165  0.51015  0.99614  1.0000
  C   C141      1.0  0.40002  0.51416  0.01341  1.0000
  C   C142      1.0  0.38109  0.50373  0.01356  1.0000
  H   H111      1.0  0.15139  0.63003  0.34216  1.0000
  H   H112      1.0  0.44009  0.60477  0.11117  1.0000
  H   H113      1.0  0.03968  0.38226  0.44872  1.0000
  H   H114      1.0  0.36438  0.50655  0.02672  1.0000
  S   S28       1.0  0.39321  0.59210  0.11946  1.0000
  C   C143      1.0  0.20099  0.55150  0.42996  1.0000
  H   H115      1.0  0.45229  0.55796  0.13895  1.0000
  H   H116      1.0  0.49326  0.60505  0.01443  1.0000
  H   H117      1.0  0.31539  0.61166  0.27902  1.0000
  C   C144      1.0  0.38230  0.50151  0.44792  1.0000
  H   H118      1.0  0.13261  0.40596  0.38221  1.0000
  C   C145      1.0  0.16247  0.54440  0.46810  1.0000
  Fe  Fe22      1.0  0.26449  0.64445  0.41936  1.0000
  C   C146      1.0  0.15440  0.63735  0.41894  1.0000
  C   C147      1.0  0.29024  0.52069  0.47104  1.0000
  C   C148      1.0  0.33176  0.62868  0.12780  1.0000
  S   S29       1.0  0.01823  0.56225  0.47632  1.0000
  C   C149      1.0  0.30595  0.61328  0.33228  1.0000
  H   H119      1.0  0.38698  0.49033  0.46294  1.0000
  H   H120      1.0  0.32944  0.59499  0.12392  1.0000
  C   C150      1.0  0.17742  0.56122  0.42844  1.0000
  S   S30       1.0  0.28426  0.62044  0.39356  1.0000
  C   C151      1.0  0.27746  0.55177  0.44269  1.0000
  C   C152      1.0  0.43545  0.53173  0.13531  1.0000
  C   C153      1.0  0.16288  0.62294  0.40182  1.0000
  H   H121      1.0  0.13984  0.56479  0.44605  1.0000
  C   C154      1.0  0.10316  0.53228  0.32939  1.0000
  C   C155      1.0  0.10521  0.55375  0.33264  1.0000
  C   C156      1.0  0.10326  0.55832  0.35499  1.0000
  C   C157      1.0  0.09982  0.54130  0.37400  1.0000
  C   C158      1.0  0.09857  0.51945  0.37079  1.0000
  C   C159      1.0  0.09933  0.51530  0.34847  1.0000
  P   P4        1.0  0.09321  0.49799  0.39572  1.0000
  C   C160      1.0  0.10920  0.50052  0.41630  1.0000
  C   C161      1.0  0.06131  0.50361  0.40870  1.0000
  C   C162      1.0  0.05142  0.52213  0.42118  1.0000
  C   C163      1.0  0.02655  0.52769  0.42996  1.0000
  H   H122      1.0  0.33176  0.58205  0.32894  1.0000
  C   C164      1.0  0.02112  0.49590  0.41484  1.0000
  C   C165      1.0  0.04600  0.49048  0.40560  1.0000
  C   C166      1.0  0.09982  0.49428  0.44007  1.0000
  H   H123      1.0  0.47032  0.51143  0.28987  1.0000
  H   H124      1.0  0.44024  0.39038  0.22335  1.0000
  C   C167      1.0  0.14390  0.50921  0.42506  1.0000
  C   C168      1.0  0.13156  0.50761  0.40878  1.0000
  C   C169      1.0  0.10441  0.46907  0.38990  1.0000
  C   C170      1.0  0.12402  0.46373  0.37109  1.0000
  C   C171      1.0  0.12466  0.42355  0.38416  1.0000
  C   C172      1.0  0.10559  0.42876  0.40324  1.0000
  C   C173      1.0  0.09561  0.45138  0.40616  1.0000
  H   H125      1.0  0.10769  0.56705  0.31796  1.0000
  H   H126      1.0  0.10410  0.57515  0.35777  1.0000
  H   H127      1.0  0.09794  0.54534  0.39125  1.0000
  H   H128      1.0  0.09661  0.49912  0.34590  1.0000
  H   H129      1.0  0.06287  0.53230  0.42419  1.0000
  H   H130      1.0  0.44084  0.46778  0.39629  1.0000
  C   C174      1.0  0.46421  0.40625  0.23373  1.0000
  P   P5        1.0  0.03828  0.48867  0.32237  1.0000
  H   H131      1.0  0.05315  0.47631  0.39584  1.0000
  H   H132      1.0  0.08300  0.48806  0.44634  1.0000
  Fe  Fe23      1.0  0.44041  0.61080  0.22686  1.0000
  C   C175      1.0  0.43246  0.60246  0.12973  1.0000
  H   H133      1.0  0.16098  0.51492  0.41939  1.0000
  H   H134      1.0  0.13944  0.51187  0.39044  1.0000
  H   H135      1.0  0.13228  0.47697  0.35925  1.0000
  H   H136      1.0  0.09887  0.41532  0.41627  1.0000
  H   H137      1.0  0.08155  0.45504  0.42162  1.0000
  C   C176      1.0  0.40930  0.47753  0.35467  1.0000
  C   C177      1.0  0.39556  0.58660  0.99008  1.0000
  H   H138      1.0  0.36853  0.48158  0.99776  1.0000
  C   C178      1.0  0.43821  0.50879  0.13339  1.0000
  C   C179      1.0  0.15815  0.55751  0.44742  1.0000
  S   S31       1.0  0.37419  0.59268  0.29737  1.0000
  C   C180      1.0  0.34252  0.61101  0.24671  1.0000
  H   H139      1.0  0.47490  0.46144  0.36198  1.0000
  H   H140      1.0  0.03855  0.46644  0.28298  1.0000
  C   C181      1.0  0.21112  0.60790  0.33367  1.0000
  C   C182      1.0  0.40996  0.59605  0.13838  1.0000
  H   H141      1.0  0.43807  0.50824  0.23529  1.0000
  C   C183      1.0  0.45427  0.51219  0.26192  1.0000
  H   H142      1.0  0.33142  0.63546  0.10990  1.0000
  S   S32       1.0  0.23762  0.62213  0.43845  1.0000
  H   H143      1.0  0.09421  0.63609  0.43015  1.0000
  C   C184      1.0  0.05614  0.47060  0.28036  1.0000
  C   C185      1.0  0.35810  0.50891  0.44751  1.0000
  C   C186      1.0  0.00880  0.49029  0.31765  1.0000
  C   C187      1.0  0.40025  0.50871  0.42915  1.0000
  C   C188      1.0  0.39399  0.52320  0.40988  1.0000
  C   C189      1.0  0.36965  0.53056  0.40926  1.0000
  C   C190      1.0  0.35175  0.52353  0.42841  1.0000
  P   P6        1.0  0.36107  0.54923  0.38455  1.0000
  C   C191      1.0  0.33521  0.54104  0.37998  1.0000
  C   C192      1.0  0.35345  0.57845  0.38991  1.0000
  C   C193      1.0  0.34475  0.58400  0.41268  1.0000
  C   C194      1.0  0.33818  0.60677  0.41643  1.0000
  S   S33       1.0  0.45121  0.60995  0.18761  1.0000
  C   C195      1.0  0.34823  0.61867  0.37486  1.0000
  C   C196      1.0  0.35511  0.59598  0.37103  1.0000
  C   C197      1.0  0.33410  0.51794  0.38235  1.0000
  C   C198      1.0  0.31415  0.51149  0.37879  1.0000
  C   C199      1.0  0.29534  0.52803  0.37257  1.0000
  C   C200      1.0  0.29649  0.55100  0.36990  1.0000
  C   C201      1.0  0.31617  0.55752  0.37388  1.0000
  C   C202      1.0  0.38538  0.54687  0.35856  1.0000
  C   C203      1.0  0.40524  0.55725  0.35561  1.0000
  C   C204      1.0  0.42359  0.55644  0.33514  1.0000
  C   C205      1.0  0.42215  0.54549  0.31740  1.0000
  C   C206      1.0  0.40249  0.53517  0.32012  1.0000
  C   C207      1.0  0.38412  0.53588  0.34057  1.0000
  C   C208      1.0  0.34878  0.62066  0.22342  1.0000
  H   H144      1.0  0.45945  0.54841  0.17727  1.0000
  P   P7        1.0  0.47744  0.46412  0.31240  1.0000
  H   H145      1.0  0.40817  0.52852  0.39557  1.0000
  H   H146      1.0  0.33281  0.52934  0.42862  1.0000
  H   H147      1.0  0.34261  0.57089  0.42754  1.0000
  C   C209      1.0  0.49199  0.57274  0.10533  1.0000
  S   S34       1.0  0.47031  0.61569  0.24105  1.0000
  C   C210      1.0  0.32850  0.60021  0.32371  1.0000
  H   H148      1.0  0.36121  0.59218  0.35328  1.0000
  H   H149      1.0  0.34851  0.50494  0.38719  1.0000
  H   H150      1.0  0.31306  0.49370  0.38118  1.0000
  H   H151      1.0  0.27962  0.52312  0.37031  1.0000
  H   H152      1.0  0.28158  0.56386  0.36579  1.0000
  H   H153      1.0  0.31619  0.57542  0.37251  1.0000
  H   H154      1.0  0.40625  0.56643  0.36890  1.0000
  H   H155      1.0  0.43865  0.56488  0.33262  1.0000
  H   H156      1.0  0.43591  0.54563  0.30123  1.0000
  H   H157      1.0  0.40105  0.52741  0.30597  1.0000
  H   H158      1.0  0.36872  0.52846  0.34185  1.0000
  H   H159      1.0  0.15342  0.60246  0.38153  1.0000
  H   H160      1.0  0.33607  0.60291  0.19079  1.0000
  C   C211      1.0  0.40479  0.48529  0.97985  1.0000
  H   H161      1.0  0.45278  0.53040  0.25719  1.0000
  H   H162      1.0  0.01103  0.44697  0.40040  1.0000
  H   H163      1.0  0.47281  0.42242  0.34632  1.0000
  Fe  Fe24      1.0  0.40699  0.60637  0.27583  1.0000
  C   C212      1.0  0.01145  0.51460  0.42686  1.0000
  C   C213      1.0  0.04242  0.46723  0.34688  1.0000
  C   C214      1.0  0.06111  0.48143  0.29658  1.0000
  C   C215      1.0  0.08423  0.48628  0.29279  1.0000
  C   C216      1.0  0.10205  0.48058  0.27292  1.0000
  C   C217      1.0  0.09693  0.46994  0.25676  1.0000
  H   H164      1.0  0.39060  0.57882  0.00799  1.0000
  S   S35       1.0  0.41223  0.63596  0.24750  1.0000
  C   C218      1.0  0.06453  0.45217  0.34643  1.0000
  C   C219      1.0  0.06716  0.43526  0.36528  1.0000
  C   C220      1.0  0.04787  0.43333  0.38471  1.0000
  C   C221      1.0  0.02595  0.44835  0.38531  1.0000
  C   C222      1.0  0.02322  0.46526  0.36657  1.0000
  C   C223      1.0  0.04068  0.51578  0.32858  1.0000
  C   C224      1.0  0.38344  0.48952  0.99707  1.0000
  C   C225      1.0  0.03936  0.54041  0.35635  1.0000
  C   C226      1.0  0.04542  0.55755  0.33813  1.0000
  C   C227      1.0  0.04902  0.55397  0.31511  1.0000
  C   C228      1.0  0.04685  0.53310  0.31031  1.0000
  C   C229      1.0  0.15669  0.60795  0.47679  1.0000
  C   C230      1.0  0.12956  0.64173  0.42941  1.0000
  S   S36       1.0  0.03257  0.63584  0.39456  1.0000
  H   H165      1.0  0.39094  0.48207  0.35271  1.0000
  C   C231      1.0  0.41375  0.47537  0.37666  1.0000
  H   H166      1.0  0.08849  0.49432  0.30528  1.0000
  H   H167      1.0  0.11987  0.48435  0.27007  1.0000
  H   H168      1.0  0.11076  0.46550  0.24138  1.0000
  C   C232      1.0  0.04013  0.39907  0.45165  1.0000
  H   H169      1.0  0.00924  0.48581  0.41254  1.0000
  H   H170      1.0  0.07968  0.45319  0.33157  1.0000
  H   H171      1.0  0.08410  0.42352  0.36484  1.0000
  H   H172      1.0  0.04982  0.42022  0.39935  1.0000
  H   H173      1.0  0.04963  0.53061  0.29239  1.0000
  C   C233      1.0  0.34004  0.62409  0.39754  1.0000
  H   H174      1.0  0.34418  0.50344  0.46217  1.0000
  H   H175      1.0  0.22344  0.59174  0.33259  1.0000
  H   H176      1.0  0.04668  0.57380  0.34201  1.0000
  H   H177      1.0  0.05325  0.56748  0.30107  1.0000
  H   H178      1.0  0.03590  0.54347  0.37423  1.0000
  C   C234      1.0  0.02289  0.43897  0.45083  1.0000
  C   C235      1.0  0.44602  0.49969  0.24963  1.0000
  S   S37       1.0  0.99918  0.41163  0.43558  1.0000
  C   C236      1.0  0.34684  0.61040  0.30816  1.0000
  C   C237      1.0  0.13415  0.50339  0.44878  1.0000
  H   H179      1.0  0.07391  0.38830  0.46162  1.0000
  C   C238      1.0  0.44819  0.47617  0.25576  1.0000
  C   C239      1.0  0.42849  0.47389  0.33519  1.0000
  C   C240      1.0  0.38804  0.60984  0.98398  1.0000
  C   C241      1.0  0.04223  0.44233  0.45889  1.0000
  S   S38       1.0  0.42537  0.63335  0.00167  1.0000
  H   H180      1.0  0.47152  0.52514  0.08399  1.0000
  C   C242      1.0  0.45667  0.46591  0.35975  1.0000
  H   H181      1.0  0.17407  0.57152  0.41253  1.0000
  H   H182      1.0  0.00605  0.47680  0.36749  1.0000
  H   H183      1.0  0.03054  0.50739  0.36602  1.0000
  C   C243      1.0  0.46664  0.47770  0.28684  1.0000
  C   C244      1.0  0.27876  0.52904  0.45276  1.0000
  H   H184      1.0  0.14353  0.50466  0.46150  1.0000
  H   H185      1.0  0.27047  0.51795  0.44673  1.0000
  C   C245      1.0  0.45833  0.46520  0.27437  1.0000
  H   H186      1.0  0.42340  0.50241  0.13100  1.0000
  C   C246      1.0  0.03653  0.51982  0.35162  1.0000
  H   H187      1.0  0.47602  0.50637  0.32957  1.0000
  C   C247      1.0  0.18640  0.60895  0.33721  1.0000
  H   H188      1.0  0.17948  0.59356  0.33895  1.0000
  C   C248      1.0  0.05952  0.40246  0.45916  1.0000
  H   H189      1.0  0.45393  0.55766  0.21590  1.0000
  C   C249      1.0  0.11215  0.49593  0.45615  1.0000
  H   H190      1.0  0.46254  0.47656  0.13197  1.0000
  H   H191      1.0  0.07007  0.45659  0.24802  1.0000
  H   H192      1.0  0.48198  0.56221  0.10070  1.0000
  H   H193      1.0  0.33148  0.57895  0.16440  1.0000
  H   H194      1.0  0.43657  0.51788  0.99586  1.0000
  H   H195      1.0  0.34875  0.63202  0.36018  1.0000
  C   C250      1.0  0.46026  0.49426  0.13395  1.0000
  H   H196      1.0  0.48462  0.50042  0.20672  1.0000
  Fe  Fe25      1.0  0.44167  0.63888  0.26375  1.0000
  C   C251      1.0  0.31064  0.64709  0.22892  1.0000
  H   H197      1.0  0.33101  0.61112  0.43395  1.0000
  H   H198      1.0  0.42452  0.47574  0.31836  1.0000
  H   H199      1.0  0.49339  0.46433  0.19085  1.0000
  C   C252      1.0  0.07401  0.46493  0.26050  1.0000
  C   C253      1.0  0.39403  0.64516  0.34182  1.0000
  C   C254      1.0  0.45237  0.46810  0.33756  1.0000
  H   H200      1.0  0.25534  0.45083  0.47658  1.0000
  C   C255      1.0  0.47193  0.39441  0.19583  1.0000
  H   H201      1.0  0.37770  0.62027  0.99733  1.0000
  C   C256      1.0  0.48457  0.41779  0.33002  1.0000
  H   H202      1.0  0.35655  0.64177  0.28869  1.0000
  H   H203      1.0  0.34574  0.37604  0.46986  1.0000
  H   H204      1.0  0.36601  0.61403  0.21251  1.0000
  C   C257      1.0  0.30043  0.55738  0.46840  1.0000
  C   C258      1.0  0.30443  0.63736  0.25221  1.0000
  S   S39       1.0  0.17422  0.65070  0.42700  1.0000
  H   H205      1.0  0.14598  0.60110  0.46870  1.0000
  C   C259      1.0  0.17047  0.62977  0.33901  1.0000
  C   C260      1.0  0.18077  0.59780  0.47565  1.0000
  H   H206      1.0  0.00472  0.52563  0.30244  1.0000
  S   S40       1.0  0.00013  0.59922  0.36971  1.0000
  H   H207      1.0  0.38912  0.40981  0.47002  1.0000
  P   P8        1.0  0.34105  0.65098  0.18411  1.0000
  H   H208      1.0  0.04326  0.45922  0.46109  1.0000
  H   H209      1.0  0.37839  0.65008  0.13959  1.0000
  H   H210      1.0  0.40742  0.63600  0.37288  1.0000
  H   H211      1.0  0.40979  0.37159  0.45990  1.0000
  H   H212      1.0  0.23914  0.62690  0.32910  1.0000
  H   H213      1.0  0.46863  0.59953  0.98627  1.0000
  H   H214      1.0  0.49077  0.63440  0.04712  1.0000
  C   C261      1.0  0.48922  0.43428  0.31047  1.0000
  H   H215      1.0  0.28740  0.64390  0.26358  1.0000
  C   C262      1.0  0.06691  0.55453  0.47162  1.0000
  C   C263      1.0  0.99809  0.47094  0.32337  1.0000
  C   C264      1.0  0.48826  0.51633  0.07440  1.0000
  H   H216      1.0  0.48583  0.33048  0.44879  1.0000
  C   C265      1.0  0.47198  0.55208  0.20595  1.0000
  C   C266      1.0  0.49380  0.40214  0.18903  1.0000
  S   S41       1.0  0.08832  0.42790  0.46734  1.0000
  H   H217      1.0  0.10520  0.54755  0.46862  1.0000
  C   C267      1.0  0.49318  0.59434  0.09268  1.0000
  H   H218      1.0  0.48918  0.39666  0.44656  1.0000
  C   C268      1.0  0.21996  0.62771  0.33175  1.0000
  H   H219      1.0  0.49209  0.38233  0.34393  1.0000
  C   C269      1.0  0.99681  0.51057  0.30725  1.0000
  C   C270      1.0  0.49325  0.49262  0.07750  1.0000
  C   C271      1.0  0.49184  0.55168  0.21455  1.0000
  C   C272      1.0  0.42399  0.49581  0.97928  1.0000
  H   H220      1.0  0.48912  0.55680  0.23144  1.0000
  C   C273      1.0  0.49268  0.65108  0.01177  1.0000
  H   H221      1.0  0.22639  0.42789  0.47416  1.0000
  C   C274      1.0  0.22004  0.44517  0.47799  1.0000
  C   C275      1.0  0.49472  0.49834  0.32394  1.0000
  H   H222      1.0  0.41618  0.55548  0.97838  1.0000
  C   C276      1.0  0.40410  0.40069  0.47737  1.0000
  H   H223      1.0  0.43085  0.48506  0.47789  1.0000
  Fe  Fe26      1.0  0.46257  0.47431  0.88158  1.0000
  S   S42       1.0  0.42652  0.46424  0.89298  1.0000
  H   H224      1.0  0.03953  0.42610  0.51387  1.0000
  Fe  Fe27      1.0  0.44724  0.42951  0.88609  1.0000
  S   S43       1.0  0.43967  0.40764  0.86293  1.0000
  C   C277      1.0  0.36283  0.45204  0.75875  1.0000
  Fe  Fe28      1.0  0.07990  0.44444  0.55010  1.0000
  S   S44       1.0  0.10114  0.41447  0.53177  1.0000
  S   S45       1.0  0.05089  0.44185  0.58336  1.0000
  Fe  Fe29      1.0  0.10735  0.47732  0.51609  1.0000
  C   C278      1.0  0.48034  0.55926  0.75710  1.0000
  Fe  Fe30      1.0  0.09567  0.43794  0.49908  1.0000
  C   C279      1.0  0.02802  0.46582  0.58970  1.0000
  Fe  Fe31      1.0  0.13361  0.42993  0.52855  1.0000
  S   S46       1.0  0.17175  0.41224  0.53051  1.0000
  S   S47       1.0  0.07277  0.46668  0.51774  1.0000
  S   S48       1.0  0.11273  0.45745  0.54991  1.0000
  Fe  Fe32      1.0  0.39865  0.45081  0.68592  1.0000
  S   S49       1.0  0.43249  0.44652  0.65766  1.0000
  S   S50       1.0  0.36162  0.46211  0.67805  1.0000
  Fe  Fe33      1.0  0.42693  0.43963  0.72479  1.0000
  S   S51       1.0  0.46268  0.43380  0.69859  1.0000
  S   S52       1.0  0.42195  0.44780  0.76166  1.0000
  Fe  Fe34      1.0  0.44761  0.46524  0.67719  1.0000
  S   S53       1.0  0.46493  0.49564  0.65893  1.0000
  Fe  Fe35      1.0  0.44419  0.41538  0.68130  1.0000
  H   H225      1.0  0.46002  0.33161  0.61265  1.0000
  S   S54       1.0  0.41277  0.47193  0.70379  1.0000
  S   S55       1.0  0.40941  0.41877  0.70911  1.0000
  H   H226      1.0  0.02728  0.49570  0.51353  1.0000
  H   H227      1.0  0.43416  0.43891  0.58736  1.0000
  Fe  Fe36      1.0  0.27468  0.45947  0.55274  1.0000
  S   S56       1.0  0.28677  0.46810  0.51411  1.0000
  S   S57       1.0  0.23490  0.46090  0.56964  1.0000
  Fe  Fe37      1.0  0.32510  0.45424  0.56025  1.0000
  S   S58       1.0  0.34106  0.46280  0.52200  1.0000
  S   S59       1.0  0.35438  0.44390  0.58003  1.0000
  Fe  Fe38      1.0  0.30846  0.49018  0.52202  1.0000
  S   S60       1.0  0.31369  0.52520  0.50331  1.0000
  Fe  Fe39      1.0  0.31845  0.44013  0.51721  1.0000
  H   H228      1.0  0.44597  0.44364  0.48485  1.0000
  S   S61       1.0  0.29418  0.48379  0.56083  1.0000
  S   S62       1.0  0.30463  0.42923  0.55530  1.0000
  H   H229      1.0  0.39482  0.51700  0.68471  1.0000
  C   C280      1.0  0.35277  0.34074  0.59641  1.0000
  C   C281      1.0  0.36240  0.41188  0.77190  1.0000
  H   H230      1.0  0.37685  0.50478  0.84686  1.0000
  C   C282      1.0  0.07112  0.59908  0.49960  1.0000
  C   C283      1.0  0.44970  0.34196  0.62603  1.0000
  C   C284      1.0  0.35723  0.40953  0.82887  1.0000
  C   C285      1.0  0.18696  0.47643  0.48777  1.0000
  H   H231      1.0  0.39465  0.54589  0.55596  1.0000
  H   H232      1.0  0.44377  0.52702  0.56431  1.0000
  H   H233      1.0  0.41190  0.59639  0.60298  1.0000
  C   C286      1.0  0.37437  0.34676  0.51162  1.0000
  C   C287      1.0  0.37068  0.36409  0.52516  1.0000
  C   C288      1.0  0.35718  0.38561  0.51915  1.0000
  C   C289      1.0  0.34844  0.38998  0.49903  1.0000
  H   H234      1.0  0.10317  0.60153  0.50894  1.0000
  C   C290      1.0  0.36505  0.35110  0.49189  1.0000
  H   H235      1.0  0.37805  0.36088  0.54029  1.0000
  H   H236      1.0  0.35399  0.39897  0.52971  1.0000
  H   H237      1.0  0.48169  0.55765  0.73917  1.0000
  C   C291      1.0  0.26839  0.32610  0.59527  1.0000
  H   H238      1.0  0.27699  0.33159  0.50272  1.0000
  H   H239      1.0  0.44986  0.50306  0.73085  1.0000
  H   H240      1.0  0.26353  0.54193  0.52987  1.0000
  C   C292      1.0  0.41180  0.35585  0.65190  1.0000
  C   C293      1.0  0.42319  0.36918  0.66060  1.0000
  C   C294      1.0  0.16100  0.63709  0.49670  1.0000
  H   H241      1.0  0.39265  0.35629  0.65849  1.0000
  H   H242      1.0  0.41283  0.37963  0.67390  1.0000
  C   C295      1.0  0.35887  0.45634  0.65131  1.0000
  C   C296      1.0  0.37836  0.44424  0.63662  1.0000
  C   C297      1.0  0.37629  0.44039  0.61513  1.0000
  C   C298      1.0  0.35470  0.44830  0.60806  1.0000
  C   C299      1.0  0.33484  0.45999  0.62291  1.0000
  C   C300      1.0  0.33700  0.46409  0.64447  1.0000
  H   H243      1.0  0.39509  0.43773  0.64178  1.0000
  H   H244      1.0  0.39166  0.43141  0.60377  1.0000
  H   H245      1.0  0.31804  0.46610  0.61770  1.0000
  H   H246      1.0  0.32177  0.47336  0.65581  1.0000
  C   C301      1.0  0.43751  0.45394  0.59202  1.0000
  H   H247      1.0  0.41367  0.61439  0.92595  1.0000
  H   H248      1.0  0.43182  0.57029  0.75110  1.0000
  C   C302      1.0  0.18904  0.42619  0.54130  1.0000
  C   C303      1.0  0.21423  0.42223  0.53318  1.0000
  C   C304      1.0  0.22852  0.43287  0.54152  1.0000
  C   C305      1.0  0.21768  0.44731  0.55846  1.0000
  C   C306      1.0  0.19252  0.45099  0.56691  1.0000
  C   C307      1.0  0.17825  0.44058  0.55830  1.0000
  H   H249      1.0  0.22262  0.41125  0.52001  1.0000
  H   H250      1.0  0.24788  0.42980  0.53493  1.0000
  H   H251      1.0  0.18401  0.46204  0.58009  1.0000
  H   H252      1.0  0.15894  0.44345  0.56505  1.0000
  H   H253      1.0  0.36274  0.49376  0.60550  1.0000
  C   C308      1.0  0.34794  0.50604  0.57560  1.0000
  C   C309      1.0  0.22454  0.54553  0.49613  1.0000
  H   H254      1.0  0.03155  0.54685  0.62182  1.0000
  C   C310      1.0  0.27323  0.59108  0.51719  1.0000
  C   C311      1.0  0.35246  0.37271  0.48542  1.0000
  C   C312      1.0  0.04810  0.59379  0.50770  1.0000
  C   C313      1.0  0.23109  0.62115  0.50982  1.0000
  C   C314      1.0  0.43534  0.41889  0.83458  1.0000
  C   C315      1.0  0.44247  0.40481  0.81694  1.0000
  C   C316      1.0  0.43884  0.41328  0.79442  1.0000
  C   C317      1.0  0.42744  0.43580  0.78949  1.0000
  C   C318      1.0  0.42013  0.44972  0.80722  1.0000
  C   C319      1.0  0.42433  0.44144  0.82948  1.0000
  H   H255      1.0  0.45103  0.38731  0.82070  1.0000
  H   H256      1.0  0.44488  0.40239  0.78098  1.0000
  H   H257      1.0  0.41120  0.46712  0.80368  1.0000
  H   H258      1.0  0.41851  0.45231  0.84295  1.0000
  C   C320      1.0  0.13363  0.54314  0.54573  1.0000
  C   C321      1.0  0.35145  0.41146  0.75401  1.0000
  H   H259      1.0  0.36680  0.54662  0.53164  1.0000
  C   C322      1.0  0.38180  0.53460  0.56168  1.0000
  S   S63       1.0  0.45167  0.41959  0.92308  1.0000
  C   C323      1.0  0.49263  0.32458  0.48307  1.0000
  C   C324      1.0  0.42005  0.47385  0.59247  1.0000
  C   C325      1.0  0.41138  0.52278  0.89749  1.0000
  C   C326      1.0  0.39234  0.51571  0.91496  1.0000
  C   C327      1.0  0.38575  0.52394  0.93632  1.0000
  C   C328      1.0  0.39813  0.53928  0.94024  1.0000
  C   C329      1.0  0.41727  0.54659  0.92274  1.0000
  C   C330      1.0  0.42407  0.53781  0.90149  1.0000
  P   P9        1.0  0.43453  0.56526  0.92808  1.0000
  C   C331      1.0  0.19543  0.45436  0.48211  1.0000
  C   C332      1.0  0.45985  0.54840  0.93867  1.0000
  C   C333      1.0  0.31283  0.32085  0.50816  1.0000
  C   C334      1.0  0.41619  0.58291  0.94976  1.0000
  S   S64       1.0  0.38959  0.31913  0.51890  1.0000
  H   H260      1.0  0.41677  0.58536  0.71571  1.0000
  C   C335      1.0  0.30067  0.53493  0.47927  1.0000
  C   C336      1.0  0.40716  0.34827  0.77840  1.0000
  H   H261      1.0  0.47776  0.44261  0.76458  1.0000
  H   H262      1.0  0.12833  0.63578  0.48764  1.0000
  H   H263      1.0  0.41691  0.51604  0.88110  1.0000
  H   H264      1.0  0.38323  0.50324  0.91231  1.0000
  H   H265      1.0  0.37170  0.51767  0.95023  1.0000
  H   H266      1.0  0.39295  0.54473  0.95721  1.0000
  H   H267      1.0  0.43950  0.54215  0.88812  1.0000
  S   S65       1.0  0.40966  0.32636  0.62350  1.0000
  C   C337      1.0  0.41593  0.54293  0.59133  1.0000
  C   C338      1.0  0.39458  0.38468  0.84892  1.0000
  C   C339      1.0  0.04880  0.36861  0.52402  1.0000
  H   H268      1.0  0.46415  0.52027  0.91977  1.0000
  C   C340      1.0  0.07614  0.59131  0.53910  1.0000
  H   H269      1.0  0.03206  0.48304  0.55458  1.0000
  C   C341      1.0  0.34993  0.35483  0.77870  1.0000
  C   C342      1.0  0.07691  0.57843  0.59964  1.0000
  C   C343      1.0  0.05464  0.58969  0.59502  1.0000
  C   C344      1.0  0.34627  0.43117  0.73868  1.0000
  C   C345      1.0  0.00618  0.38436  0.53525  1.0000
  C   C346      1.0  0.40044  0.37205  0.77503  1.0000
  C   C347      1.0  0.00684  0.49701  0.48866  1.0000
  C   C348      1.0  0.47506  0.60648  0.87904  1.0000
  C   C349      1.0  0.16631  0.51994  0.52096  1.0000
  C   C350      1.0  0.12811  0.52365  0.56084  1.0000
  C   C351      1.0  0.14186  0.50237  0.55629  1.0000
  C   C352      1.0  0.16092  0.50051  0.53648  1.0000
  H   H270      1.0  0.35022  0.52542  0.69556  1.0000
  C   C353      1.0  0.21462  0.52619  0.50675  1.0000
  C   C354      1.0  0.22199  0.51303  0.52622  1.0000
  C   C355      1.0  0.23940  0.51884  0.53464  1.0000
  C   C356      1.0  0.24187  0.55136  0.50467  1.0000
  H   H271      1.0  0.45490  0.36604  0.50649  1.0000
  H   H272      1.0  0.99808  0.40579  0.57535  1.0000
  C   C357      1.0  0.05307  0.58578  0.54728  1.0000
  H   H273      1.0  0.15720  0.55659  0.51465  1.0000
  C   C358      1.0  0.01537  0.46699  0.61290  1.0000
  C   C359      1.0  0.04856  0.54713  0.58504  1.0000
  H   H274      1.0  0.11316  0.52493  0.57603  1.0000
  H   H275      1.0  0.13767  0.48724  0.56799  1.0000
  H   H276      1.0  0.17147  0.48391  0.53343  1.0000
  H   H277      1.0  0.44856  0.50665  0.61167  1.0000
  H   H278      1.0  0.21454  0.49801  0.53474  1.0000
  H   H279      1.0  0.24528  0.50828  0.54940  1.0000
  C   C360      1.0  0.99997  0.61028  0.57387  1.0000
  H   H280      1.0  0.47389  0.32571  0.49217  1.0000
  H   H281      1.0  0.37070  0.33714  0.59951  1.0000
  C   C361      1.0  0.17148  0.63746  0.54856  1.0000
  H   H282      1.0  0.39528  0.33797  0.79068  1.0000
  H   H283      1.0  0.04525  0.63494  0.62409  1.0000
  C   C362      1.0  0.08790  0.54437  0.47919  1.0000
  P   P10       1.0  0.27640  0.35357  0.58438  1.0000
  C   C363      1.0  0.25521  0.37590  0.59887  1.0000
  C   C364      1.0  0.30648  0.35033  0.58812  1.0000
  C   C365      1.0  0.31007  0.35574  0.60841  1.0000
  P   P11       1.0  0.19217  0.51795  0.49647  1.0000
  H   H284      1.0  0.46832  0.36693  0.53922  1.0000
  H   H285      1.0  0.24085  0.48982  0.48593  1.0000
  C   C366      1.0  0.32623  0.33954  0.57233  1.0000
  C   C367      1.0  0.23048  0.37521  0.60555  1.0000
  C   C368      1.0  0.21370  0.39387  0.61392  1.0000
  C   C369      1.0  0.22148  0.41332  0.61562  1.0000
  C   C370      1.0  0.24602  0.41411  0.60902  1.0000
  C   C371      1.0  0.26280  0.39563  0.60037  1.0000
  C   C372      1.0  0.27361  0.36142  0.55476  1.0000
  C   C373      1.0  0.25299  0.35829  0.54914  1.0000
  C   C374      1.0  0.24880  0.36676  0.52710  1.0000
  C   C375      1.0  0.26526  0.37830  0.51046  1.0000
  C   C376      1.0  0.28578  0.38148  0.51591  1.0000
  C   C377      1.0  0.28993  0.37328  0.53804  1.0000
  C   C378      1.0  0.47912  0.38007  0.53315  1.0000
  C   C379      1.0  0.35200  0.45144  0.74103  1.0000
  C   C380      1.0  0.15843  0.64464  0.56990  1.0000
  H   H286      1.0  0.25285  0.33325  0.63068  1.0000
  H   H287      1.0  0.29504  0.36309  0.62143  1.0000
  H   H288      1.0  0.34749  0.39590  0.75132  1.0000
  C   C381      1.0  0.46789  0.61375  0.97274  1.0000
  C   C382      1.0  0.19499  0.60713  0.48517  1.0000
  H   H289      1.0  0.18288  0.44410  0.48152  1.0000
  H   H290      1.0  0.22403  0.36066  0.60349  1.0000
  H   H291      1.0  0.19459  0.39359  0.61834  1.0000
  H   H292      1.0  0.20847  0.42813  0.62124  1.0000
  H   H293      1.0  0.25193  0.42955  0.60952  1.0000
  H   H294      1.0  0.28156  0.39714  0.59410  1.0000
  H   H295      1.0  0.23961  0.35007  0.56206  1.0000
  H   H296      1.0  0.23236  0.36508  0.52321  1.0000
  H   H297      1.0  0.26178  0.38534  0.49353  1.0000
  H   H298      1.0  0.29807  0.39094  0.50314  1.0000
  H   H299      1.0  0.30539  0.37688  0.54222  1.0000
  H   H300      1.0  0.02571  0.53278  0.51698  1.0000
  P   P12       1.0  0.20416  0.64098  0.50521  1.0000
  C   C383      1.0  0.42967  0.39795  0.50385  1.0000
  P   P13       1.0  0.43706  0.40961  0.52589  1.0000
  C   C384      1.0  0.42742  0.44009  0.52130  1.0000
  C   C385      1.0  0.43428  0.45233  0.49908  1.0000
  H   H301      1.0  0.16925  0.62167  0.54447  1.0000
  C   C386      1.0  0.41002  0.48698  0.51314  1.0000
  C   C387      1.0  0.40321  0.47490  0.53525  1.0000
  C   C388      1.0  0.41190  0.45161  0.53939  1.0000
  C   C389      1.0  0.42049  0.39863  0.55409  1.0000
  C   C390      1.0  0.39712  0.39491  0.55697  1.0000
  C   C391      1.0  0.38363  0.38766  0.57903  1.0000
  C   C392      1.0  0.39330  0.38435  0.59840  1.0000
  C   C393      1.0  0.41638  0.38853  0.59572  1.0000
  C   C394      1.0  0.42996  0.39561  0.57369  1.0000
  C   C395      1.0  0.43885  0.37422  0.74714  1.0000
  C   C396      1.0  0.48411  0.45842  0.76219  1.0000
  C   C397      1.0  0.00296  0.50177  0.57828  1.0000
  H   H302      1.0  0.40576  0.36631  0.81973  1.0000
  H   H303      1.0  0.36788  0.33777  0.48136  1.0000
  H   H304      1.0  0.39070  0.48338  0.54919  1.0000
  H   H305      1.0  0.40585  0.44268  0.55662  1.0000
  C   C398      1.0  0.40994  0.57330  0.97315  1.0000
  H   H306      1.0  0.38904  0.39821  0.54232  1.0000
  H   H307      1.0  0.36537  0.38538  0.58118  1.0000
  H   H308      1.0  0.38278  0.37898  0.61558  1.0000
  H   H309      1.0  0.42355  0.38676  0.61083  1.0000
  H   H310      1.0  0.44761  0.39908  0.57221  1.0000
  C   C399      1.0  0.24946  0.53791  0.52378  1.0000
  H   H311      1.0  0.10470  0.57857  0.61662  1.0000
  C   C400      1.0  0.15285  0.54134  0.52601  1.0000
  H   H312      1.0  0.47600  0.43644  0.51265  1.0000
  H   H313      1.0  0.47912  0.53819  0.65718  1.0000
  H   H314      1.0  0.33504  0.49474  0.58088  1.0000
  H   H315      1.0  0.32744  0.53186  0.66511  1.0000
  C   C401      1.0  0.06291  0.53373  0.56799  1.0000
  C   C402      1.0  0.49099  0.57562  0.76162  1.0000
  H   H316      1.0  0.44061  0.49272  0.96607  1.0000
  S   S66       1.0  0.46965  0.46875  0.91730  1.0000
  C   C403      1.0  0.46895  0.40229  0.52498  1.0000
  C   C404      1.0  0.33235  0.36606  0.81712  1.0000
  H   H317      1.0  0.12298  0.55959  0.54922  1.0000
  H   H318      1.0  0.06288  0.51247  0.52872  1.0000
  C   C405      1.0  0.31565  0.35181  0.82119  1.0000
  C   C406      1.0  0.41877  0.58124  0.59455  1.0000
  H   H319      1.0  0.33858  0.43066  0.72439  1.0000
  Fe  Fe40      1.0  0.43480  0.45607  0.92840  1.0000
  H   H320      1.0  0.46460  0.55976  0.55146  1.0000
  C   C407      1.0  0.18529  0.62704  0.49550  1.0000
  H   H321      1.0  0.08063  0.50008  0.56051  1.0000
  H   H322      1.0  0.99799  0.55788  0.60566  1.0000
  C   C408      1.0  0.44802  0.65065  0.95808  1.0000
  C   C409      1.0  0.01615  0.48716  0.50792  1.0000
  H   H323      1.0  0.33695  0.52111  0.54394  1.0000
  C   C410      1.0  0.08764  0.58748  0.61297  1.0000
  H   H324      1.0  0.47650  0.58789  0.91266  1.0000
  C   C411      1.0  0.44579  0.58335  0.90172  1.0000
  H   H325      1.0  0.41646  0.58412  0.88608  1.0000
  H   H326      1.0  0.47963  0.54792  0.86288  1.0000
  H   H327      1.0  0.01223  0.62063  0.56223  1.0000
  C   C412      1.0  0.46121  0.35478  0.63523  1.0000
  C   C413      1.0  0.39133  0.50860  0.83200  1.0000
  H   H328      1.0  0.34885  0.52997  0.62426  1.0000
  C   C414      1.0  0.35975  0.52447  0.67754  1.0000
  C   C415      1.0  0.20309  0.48930  0.48974  1.0000
  C   C416      1.0  0.34964  0.36768  0.79582  1.0000
  C   C417      1.0  0.43310  0.58987  0.88413  1.0000
  C   C418      1.0  0.34910  0.52084  0.55475  1.0000
  C   C419      1.0  0.36373  0.50543  0.58946  1.0000
  C   C420      1.0  0.34695  0.52804  0.66039  1.0000
  C   C421      1.0  0.08651  0.52899  0.49970  1.0000
  C   C422      1.0  0.06415  0.52447  0.51303  1.0000
  C   C423      1.0  0.39726  0.51710  0.64844  1.0000
  C   C424      1.0  0.27375  0.60579  0.49634  1.0000
  C   C425      1.0  0.46945  0.55697  0.95342  1.0000
  H   H329      1.0  0.40030  0.42596  0.49885  1.0000
  H   H330      1.0  0.46218  0.34234  0.74002  1.0000
  C   C426      1.0  0.25168  0.59130  0.53438  1.0000
  C   C427      1.0  0.43406  0.36686  0.48219  1.0000
  H   H331      1.0  0.24999  0.56590  0.49596  1.0000
  C   C428      1.0  0.44179  0.60401  0.86385  1.0000
  C   C429      1.0  0.04458  0.54995  0.48517  1.0000
  C   C430      1.0  0.35927  0.52645  0.63718  1.0000
  H   H332      1.0  0.08448  0.61476  0.63225  1.0000
  C   C431      1.0  0.46670  0.59201  0.89913  1.0000
  H   H333      1.0  0.06710  0.48176  0.60090  1.0000
  C   C432      1.0  0.38620  0.52103  0.81138  1.0000
  H   H334      1.0  0.06904  0.54122  0.55017  1.0000
  C   C433      1.0  0.42938  0.33759  0.76583  1.0000
  C   C434      1.0  0.04196  0.53679  0.60819  1.0000
  C   C435      1.0  0.07625  0.60784  0.62177  1.0000
  H   H335      1.0  0.39081  0.56397  0.61604  1.0000
  C   C436      1.0  0.48577  0.63237  0.93452  1.0000
  C   C437      1.0  0.04314  0.53556  0.50618  1.0000
  C   C438      1.0  0.42369  0.49316  0.59952  1.0000
  H   H336      1.0  0.38073  0.40673  0.87535  1.0000
  C   C439      1.0  0.36602  0.53512  0.54780  1.0000
  C   C440      1.0  0.48641  0.61374  0.95210  1.0000
  C   C441      1.0  0.46268  0.47228  0.60537  1.0000
  C   C442      1.0  0.03934  0.58658  0.53130  1.0000
  S   S67       1.0  0.13005  0.45069  0.49437  1.0000
  C   C443      1.0  0.99695  0.48554  0.61884  1.0000
  H   H337      1.0  0.41671  0.51282  0.64438  1.0000
  C   C444      1.0  0.38456  0.52042  0.63105  1.0000
  C   C445      1.0  0.38069  0.51980  0.58274  1.0000
  C   C446      1.0  0.44527  0.49220  0.60583  1.0000
  H   H338      1.0  0.48043  0.35408  0.62892  1.0000
  S   S68       1.0  0.46341  0.38385  0.66406  1.0000
  C   C447      1.0  0.08522  0.59769  0.51528  1.0000
  P   P14       1.0  0.40092  0.51885  0.60100  1.0000
  H   H339      1.0  0.02110  0.34854  0.53834  1.0000
  C   C448      1.0  0.41671  0.38492  0.75975  1.0000
  C   C449      1.0  0.36804  0.43238  0.77409  1.0000
  C   C450      1.0  0.35957  0.41469  0.84969  1.0000
  H   H340      1.0  0.08716  0.59062  0.55099  1.0000
  C   C451      1.0  0.38488  0.51943  0.67148  1.0000
  H   H341      1.0  0.47595  0.46416  0.82083  1.0000
  C   C452      1.0  0.47545  0.49892  0.76435  1.0000
  H   H342      1.0  0.36816  0.46751  0.76007  1.0000
  H   H343      1.0  0.44870  0.47751  0.77402  1.0000
  H   H344      1.0  0.21419  0.60591  0.54417  1.0000
  H   H345      1.0  0.43438  0.31925  0.76823  1.0000
  C   C453      1.0  0.43667  0.54206  0.57290  1.0000
  H   H346      1.0  0.34706  0.42845  0.85800  1.0000
  H   H347      1.0  0.99817  0.51514  0.56484  1.0000
  C   C454      1.0  0.40691  0.56275  0.60196  1.0000
  C   C455      1.0  0.33319  0.34063  0.78282  1.0000
  C   C456      1.0  0.46764  0.47822  0.76774  1.0000
  S   S69       1.0  0.48307  0.44014  0.87320  1.0000
  C   C457      1.0  0.44848  0.56059  0.56553  1.0000
  C   C458      1.0  0.39253  0.37968  0.82794  1.0000
  H   H348      1.0  0.40058  0.53565  0.77650  1.0000
  C   C459      1.0  0.43958  0.58014  0.57640  1.0000
  H   H349      1.0  0.06341  0.35409  0.52216  1.0000
  C   C460      1.0  0.46280  0.61227  0.86129  1.0000
  C   C461      1.0  0.01052  0.46662  0.52040  1.0000
  H   H350      1.0  0.28945  0.57930  0.51987  1.0000
  C   C462      1.0  0.25278  0.62054  0.49255  1.0000
  H   H351      1.0  0.41237  0.40327  0.75754  1.0000
  H   H352      1.0  0.07222  0.39298  0.50997  1.0000
  C   C463      1.0  0.05380  0.39052  0.51727  1.0000
  H   H353      1.0  0.40288  0.50499  0.51003  1.0000
  H   H354      1.0  0.34868  0.46649  0.72865  1.0000
  C   C464      1.0  0.37836  0.40237  0.85960  1.0000
  C   C465      1.0  0.06236  0.50005  0.59666  1.0000
  H   H355      1.0  0.34258  0.41925  0.82140  1.0000
  C   C466      1.0  0.02211  0.48350  0.57243  1.0000
  C   C467      1.0  0.40498  0.52599  0.79226  1.0000
  H   H356      1.0  0.25124  0.57974  0.55047  1.0000
  C   C468      1.0  0.34922  0.33474  0.57658  1.0000
  C   C469      1.0  0.44240  0.53562  0.74349  1.0000
  C   C470      1.0  0.23066  0.60619  0.53070  1.0000
  H   H357      1.0  0.45240  0.49936  0.81565  1.0000
  C   C471      1.0  0.44511  0.35056  0.75003  1.0000
  C   C472      1.0  0.44109  0.37618  0.49819  1.0000
  C   C473      1.0  0.49217  0.51178  0.86382  1.0000
  H   H358      1.0  0.36311  0.35579  0.76212  1.0000
  C   C474      1.0  0.46812  0.54518  0.77554  1.0000
  H   H359      1.0  0.43212  0.60872  0.85021  1.0000
  C   C475      1.0  0.02499  0.36552  0.53307  1.0000
  P   P15       1.0  0.45365  0.52468  0.76928  1.0000
  C   C476      1.0  0.44267  0.52106  0.72796  1.0000
  C   C477      1.0  0.45877  0.45311  0.59855  1.0000
  C   C478      1.0  0.43361  0.52965  0.70824  1.0000
  H   H360      1.0  0.43404  0.51831  0.69630  1.0000
  C   C479      1.0  0.49120  0.51471  0.93889  1.0000
  H   H361      1.0  0.41789  0.55939  0.68816  1.0000
  C   C480      1.0  0.04336  0.61018  0.60387  1.0000
  C   C481      1.0  0.42908  0.51836  0.79364  1.0000
  C   C482      1.0  0.43400  0.50550  0.81424  1.0000
  C   C483      1.0  0.49398  0.45459  0.81542  1.0000
  P   P16       1.0  0.04094  0.57763  0.57795  1.0000
  C   C484      1.0  0.43259  0.55882  0.73914  1.0000
  H   H362      1.0  0.02179  0.58170  0.53694  1.0000
  H   H363      1.0  0.48168  0.42350  0.81775  1.0000
  H   H364      1.0  0.08596  0.56260  0.59300  1.0000
  C   C485      1.0  0.42443  0.55280  0.70372  1.0000
  C   C486      1.0  0.37407  0.39234  0.81753  1.0000
  H   H365      1.0  0.33603  0.35573  0.62781  1.0000
  C   C487      1.0  0.42386  0.56739  0.71921  1.0000
  H   H366      1.0  0.36766  0.52684  0.81020  1.0000
  H   H367      1.0  0.01752  0.45944  0.53562  1.0000
  C   C488      1.0  0.03506  0.40938  0.51943  1.0000
  H   H368      1.0  0.37742  0.43308  0.78702  1.0000
  C   C489      1.0  0.06977  0.51032  0.57382  1.0000
  H   H369      1.0  0.03708  0.59473  0.49565  1.0000
  H   H370      1.0  0.21938  0.55597  0.48109  1.0000
  C   C490      1.0  0.41524  0.50095  0.83342  1.0000
  H   H371      1.0  0.41939  0.49138  0.84933  1.0000
  H   H372      1.0  0.45894  0.53645  0.81323  1.0000
  H   H373      1.0  0.38956  0.63788  0.95630  1.0000
  H   H374      1.0  0.47182  0.43739  0.59913  1.0000
  C   C491      1.0  0.47880  0.56330  0.80294  1.0000
  H   H375      1.0  0.29037  0.60584  0.48293  1.0000
  S   S70       1.0  0.46751  0.50624  0.85675  1.0000
  H   H376      1.0  0.32390  0.33450  0.55693  1.0000
  H   H377      1.0  0.45109  0.38433  0.73500  1.0000
  H   H378      1.0  0.01991  0.45352  0.62635  1.0000
  H   H379      1.0  0.47874  0.47147  0.61129  1.0000
  H   H380      1.0  0.14723  0.54136  0.48237  1.0000
  C   C492      1.0  0.04845  0.51329  0.61386  1.0000
  H   H381      1.0  0.40360  0.47376  0.58784  1.0000
  H   H382      1.0  0.29086  0.50326  0.47876  1.0000
  P   P17       1.0  0.37135  0.38600  0.79036  1.0000
  C   C493      1.0  0.49023  0.57769  0.78449  1.0000
  C   C494      1.0  0.41068  0.40987  0.49369  1.0000
  H   H383      1.0  0.46949  0.62337  0.84570  1.0000
  C   C495      1.0  0.40860  0.60633  0.94371  1.0000
  S   S71       1.0  0.11275  0.51342  0.50735  1.0000
  H   H384      1.0  0.40939  0.37546  0.85650  1.0000
  S   S72       1.0  0.43152  0.33484  0.55538  1.0000
  C   C496      1.0  0.42493  0.34228  0.63447  1.0000
  C   C497      1.0  0.33321  0.35128  0.61232  1.0000
  C   C498      1.0  0.42568  0.47572  0.49506  1.0000
  S   S73       1.0  0.33327  0.41702  0.48975  1.0000
  H   H385      1.0  0.49098  0.61337  0.87735  1.0000
  C   C499      1.0  0.48583  0.50278  0.67132  1.0000
  S   S74       1.0  0.40552  0.46682  0.95994  1.0000
  C   C500      1.0  0.44803  0.36853  0.65248  1.0000
  H   H386      1.0  0.46145  0.57343  0.95901  1.0000
  C   C501      1.0  0.47087  0.52715  0.93145  1.0000
  H   H387      1.0  0.04241  0.50523  0.63150  1.0000
  C   C502      1.0  0.22790  0.48012  0.48507  1.0000
  C   C503      1.0  0.48334  0.41904  0.51832  1.0000
  H   H388      1.0  0.44881  0.59445  0.57080  1.0000
  C   C504      1.0  0.00874  0.58830  0.58394  1.0000
  C   C505      1.0  0.18735  0.65049  0.53272  1.0000
  C   C506      1.0  0.01106  0.40643  0.52823  1.0000
  H   H389      1.0  0.33353  0.33081  0.76950  1.0000
  H   H390      1.0  0.14625  0.63450  0.58202  1.0000
  C   C507      1.0  0.46769  0.54718  0.79853  1.0000
  C   C508      1.0  0.46651  0.65077  0.93763  1.0000
  C   C509      1.0  0.44863  0.63221  0.97582  1.0000
  H   H391      1.0  0.02618  0.61920  0.60071  1.0000
  C   C510      1.0  0.05415  0.61920  0.61719  1.0000
  H   H392      1.0  0.31752  0.33753  0.50239  1.0000
  C   C511      1.0  0.39473  0.61974  0.96084  1.0000
  Fe  Fe41      1.0  0.48636  0.43295  0.91037  1.0000
  H   H393      1.0  0.47857  0.56456  0.82069  1.0000
  H   H394      1.0  0.33170  0.37570  0.83065  1.0000
  H   H395      1.0  0.21372  0.59923  0.48369  1.0000
  C   C512      1.0  0.48982  0.54452  0.96072  1.0000
  H   H396      1.0  0.16778  0.48327  0.49112  1.0000
  H   H397      1.0  0.36437  0.32628  0.56450  1.0000
  C   C513      1.0  0.48958  0.52526  0.66726  1.0000
  C   C514      1.0  0.14676  0.62751  0.48746  1.0000
  H   H398      1.0  0.44227  0.34980  0.47839  1.0000
  H   H399      1.0  0.01043  0.51346  0.47968  1.0000
  C   C515      1.0  0.25754  0.32066  0.61892  1.0000
  H   H400      1.0  0.30309  0.32810  0.80724  1.0000
  H   H401      1.0  0.07805  0.60396  0.48113  1.0000
  C   C516      1.0  0.99550  0.45569  0.51363  1.0000
  C   C517      1.0  0.49319  0.53359  0.86701  1.0000
  H   H402      1.0  0.30239  0.35062  0.83768  1.0000
  C   C518      1.0  0.31605  0.33912  0.80406  1.0000
  C   C519      1.0  0.23628  0.45804  0.47944  1.0000
  C   C520      1.0  0.17501  0.68339  0.29034  1.0000
  S   S75       1.0  0.44257  0.93673  0.41522  1.0000
  H   H403      1.0  0.19368  0.73526  0.37969  1.0000
  S   S76       1.0  0.38833  0.92043  0.39770  1.0000
  Fe  Fe42      1.0  0.40403  0.94330  0.41308  1.0000
  Fe  Fe43      1.0  0.37069  0.74864  0.40122  1.0000
  S   S77       1.0  0.40279  0.72208  0.38866  1.0000
  S   S78       1.0  0.33267  0.74543  0.40184  1.0000
  Fe  Fe44      1.0  0.40125  0.78263  0.40442  1.0000
  S   S79       1.0  0.43527  0.75879  0.39053  1.0000
  S   S80       1.0  0.40883  0.81207  0.41832  1.0000
  Fe  Fe45      1.0  0.41723  0.75138  0.36526  1.0000
  S   S81       1.0  0.43735  0.74987  0.32756  1.0000
  Fe  Fe46      1.0  0.41835  0.73145  0.41505  1.0000
  S   S82       1.0  0.44234  0.70705  0.43596  1.0000
  S   S83       1.0  0.38462  0.77812  0.37642  1.0000
  S   S84       1.0  0.38475  0.75512  0.43018  1.0000
  H   H404      1.0  0.34767  0.85915  0.45102  1.0000
  C   C521      1.0  0.34529  0.80447  0.45065  1.0000
  H   H405      1.0  0.25551  0.70603  0.36370  1.0000
  C   C522      1.0  0.15223  0.70869  0.26454  1.0000
  C   C523      1.0  0.46818  0.91981  0.47540  1.0000
  H   H406      1.0  0.33591  0.65995  0.13600  1.0000
  H   H407      1.0  0.41624  0.82289  0.36530  1.0000
  C   C524      1.0  0.17292  0.69311  0.26784  1.0000
  C   C525      1.0  0.43449  0.93720  0.34957  1.0000
  H   H408      1.0  0.48708  0.77170  0.37372  1.0000
  H   H409      1.0  0.27426  0.69731  0.40775  1.0000
  C   C526      1.0  0.17063  0.71822  0.34114  1.0000
  H   H410      1.0  0.47933  0.69236  0.46161  1.0000
  C   C527      1.0  0.20027  0.67364  0.46614  1.0000
  H   H411      1.0  0.28661  0.67204  0.37069  1.0000
  C   C528      1.0  0.44372  0.66908  0.02834  1.0000
  C   C529      1.0  0.38124  0.66230  0.32849  1.0000
  C   C530      1.0  0.47260  0.79358  0.40007  1.0000
  H   H412      1.0  0.09118  0.68485  0.40906  1.0000
  C   C531      1.0  0.18748  0.72415  0.37152  1.0000
  H   H413      1.0  0.42301  0.95383  0.35038  1.0000
  P   P18       1.0  0.48224  0.86574  0.34954  1.0000
  H   H414      1.0  0.46208  0.71682  0.25541  1.0000
  C   C532      1.0  0.40961  0.65693  0.14648  1.0000
  C   C533      1.0  0.43997  0.72746  0.31153  1.0000
  C   C534      1.0  0.43201  0.70690  0.32140  1.0000
  C   C535      1.0  0.43513  0.68975  0.30732  1.0000
  C   C536      1.0  0.44594  0.69330  0.28335  1.0000
  C   C537      1.0  0.45373  0.71383  0.27382  1.0000
  C   C538      1.0  0.45089  0.73065  0.28774  1.0000
  H   H415      1.0  0.42361  0.70419  0.33980  1.0000
  H   H416      1.0  0.34834  0.69677  0.18556  1.0000
  H   H417      1.0  0.44031  0.79314  0.34113  1.0000
  C   C539      1.0  0.34943  0.91315  0.46411  1.0000
  C   C540      1.0  0.32199  0.71944  0.41003  1.0000
  C   C541      1.0  0.33329  0.70083  0.42314  1.0000
  C   C542      1.0  0.32297  0.68121  0.43115  1.0000
  C   C543      1.0  0.30164  0.67980  0.42564  1.0000
  C   C544      1.0  0.29079  0.69811  0.41189  1.0000
  C   C545      1.0  0.30083  0.71789  0.40427  1.0000
  H   H418      1.0  0.34951  0.70186  0.42779  1.0000
  H   H419      1.0  0.33143  0.66717  0.44189  1.0000
  C   C546      1.0  0.48836  0.77515  0.39025  1.0000
  H   H420      1.0  0.31597  0.66491  0.30321  1.0000
  H   H421      1.0  0.37344  0.65762  0.21071  1.0000
  C   C547      1.0  0.44364  0.74418  0.45477  1.0000
  C   C548      1.0  0.39486  0.89029  0.40285  1.0000
  C   C549      1.0  0.38264  0.87779  0.39417  1.0000
  C   C550      1.0  0.38669  0.85385  0.39862  1.0000
  C   C551      1.0  0.40307  0.84214  0.41181  1.0000
  C   C552      1.0  0.41544  0.85466  0.42030  1.0000
  C   C553      1.0  0.41147  0.87856  0.41577  1.0000
  H   H422      1.0  0.36974  0.88671  0.38417  1.0000
  H   H423      1.0  0.37696  0.84449  0.39206  1.0000
  H   H424      1.0  0.42816  0.84583  0.43048  1.0000
  H   H425      1.0  0.42088  0.88793  0.42270  1.0000
  H   H426      1.0  0.43899  0.66228  0.15848  1.0000
  H   H427      1.0  0.11760  0.72680  0.28120  1.0000
  C   C554      1.0  0.17901  0.73251  0.35143  1.0000
  H   H428      1.0  0.11935  0.65980  0.33091  1.0000
  H   H429      1.0  0.29199  0.73219  0.39411  1.0000
  C   C555      1.0  0.48621  0.86010  0.41726  1.0000
  H   H430      1.0  0.42459  0.67528  0.03446  1.0000
  C   C556      1.0  0.47728  0.71357  0.36742  1.0000
  H   H431      1.0  0.42920  0.67391  0.31494  1.0000
  H   H432      1.0  0.48277  0.79461  0.32085  1.0000
  C   C557      1.0  0.22691  0.70070  0.44983  1.0000
  C   C558      1.0  0.47108  0.91143  0.35513  1.0000
  H   H433      1.0  0.43438  0.85430  0.36909  1.0000
  C   C559      1.0  0.28563  0.70298  0.17307  1.0000
  C   C560      1.0  0.38325  0.65749  0.19269  1.0000
  C   C561      1.0  0.47368  0.79837  0.42143  1.0000
  S   S85       1.0  0.40345  0.98056  0.39997  1.0000
  C   C562      1.0  0.47223  0.80798  0.33099  1.0000
  H   H434      1.0  0.19799  0.69794  0.43557  1.0000
  C   C563      1.0  0.20738  0.69153  0.44930  1.0000
  H   H435      1.0  0.32292  0.73462  0.18069  1.0000
  H   H436      1.0  0.07845  0.65645  0.35476  1.0000
  H   H437      1.0  0.12114  0.70997  0.32097  1.0000
  C   C564      1.0  0.18771  0.70146  0.38124  1.0000
  H   H438      1.0  0.45904  0.80383  0.39148  1.0000
  C   C565      1.0  0.35629  0.79405  0.46877  1.0000
  H   H439      1.0  0.46096  0.81233  0.42916  1.0000
  C   C566      1.0  0.49078  0.78487  0.43290  1.0000
  C   C567      1.0  0.38584  0.65346  0.15282  1.0000
  C   C568      1.0  0.38833  0.67059  0.36994  1.0000
  S   S86       1.0  0.38829  0.94987  0.45004  1.0000
  H   H440      1.0  0.16374  0.72515  0.32586  1.0000
  C   C569      1.0  0.08207  0.67097  0.38312  1.0000
  H   H441      1.0  0.41569  0.66302  0.19926  1.0000
  C   C570      1.0  0.42681  0.91972  0.34333  1.0000
  C   C571      1.0  0.15629  0.68915  0.30972  1.0000
  C   C572      1.0  0.47895  0.86733  0.39642  1.0000
  C   C573      1.0  0.46317  0.89355  0.34956  1.0000
  H   H442      1.0  0.47973  0.70437  0.33400  1.0000
  C   C574      1.0  0.44492  0.84180  0.35792  1.0000
  H   H443      1.0  0.43492  0.88497  0.33778  1.0000
  C   C575      1.0  0.44825  0.80709  0.34242  1.0000
  C   C576      1.0  0.13565  0.70500  0.30626  1.0000
  H   H444      1.0  0.33420  0.83601  0.43014  1.0000
  C   C577      1.0  0.17983  0.68704  0.37075  1.0000
  C   C578      1.0  0.49097  0.85643  0.37677  1.0000
  H   H445      1.0  0.23289  0.71413  0.43641  1.0000
  C   C579      1.0  0.43463  0.82397  0.35591  1.0000
  H   H446      1.0  0.29803  0.66105  0.22249  1.0000
  S   S87       1.0  0.44981  0.67360  0.26374  1.0000
  H   H447      1.0  0.26807  0.70482  0.16963  1.0000
  C   C580      1.0  0.11345  0.66540  0.34790  1.0000
  P   P19       1.0  0.15882  0.67688  0.33888  1.0000
  S   S88       1.0  0.23981  0.66521  0.39735  1.0000
  H   H448      1.0  0.18002  0.66950  0.37859  1.0000
  H   H449      1.0  0.13223  0.68744  0.38629  1.0000
  Fe  Fe47      1.0  0.42652  0.94542  0.45137  1.0000
  H   H450      1.0  0.45929  0.70996  0.37485  1.0000
  S   S89       1.0  0.42877  0.98235  0.44207  1.0000
  C   C581      1.0  0.17109  0.69532  0.35073  1.0000
  C   C582      1.0  0.28125  0.72532  0.34063  1.0000
  C   C583      1.0  0.27434  0.70616  0.35542  1.0000
  C   C584      1.0  0.29176  0.68701  0.35939  1.0000
  C   C585      1.0  0.31598  0.68685  0.34853  1.0000
  C   C586      1.0  0.32312  0.70605  0.33382  1.0000
  C   C587      1.0  0.30557  0.72526  0.32976  1.0000
  P   P20       1.0  0.35440  0.70574  0.31941  1.0000
  C   C588      1.0  0.36171  0.73266  0.32047  1.0000
  C   C589      1.0  0.37227  0.68389  0.33562  1.0000
  C   C590      1.0  0.37566  0.68781  0.35660  1.0000
  C   C591      1.0  0.42024  0.66058  0.16319  1.0000
  C   C592      1.0  0.23911  0.69220  0.46745  1.0000
  C   C593      1.0  0.09730  0.67975  0.39182  1.0000
  C   C594      1.0  0.45677  0.93314  0.35516  1.0000
  C   C595      1.0  0.38050  0.74110  0.30348  1.0000
  C   C596      1.0  0.38609  0.76185  0.30463  1.0000
  C   C597      1.0  0.37301  0.77433  0.32270  1.0000
  C   C598      1.0  0.35440  0.76600  0.33975  1.0000
  C   C599      1.0  0.34895  0.74517  0.33882  1.0000
  C   C600      1.0  0.36000  0.70069  0.28960  1.0000
  C   C601      1.0  0.34087  0.70279  0.27906  1.0000
  C   C602      1.0  0.34553  0.69976  0.25569  1.0000
  C   C603      1.0  0.36928  0.69490  0.24261  1.0000
  C   C604      1.0  0.38835  0.69250  0.25305  1.0000
  C   C605      1.0  0.38371  0.69505  0.27649  1.0000
  H   H451      1.0  0.26778  0.74018  0.33756  1.0000
  H   H452      1.0  0.15063  0.71618  0.24710  1.0000
  C   C606      1.0  0.33094  0.69823  0.18198  1.0000
  H   H453      1.0  0.32897  0.67165  0.35167  1.0000
  H   H454      1.0  0.31073  0.74016  0.31823  1.0000
  H   H455      1.0  0.36834  0.70407  0.36289  1.0000
  C   C607      1.0  0.44119  0.89803  0.34302  1.0000
  C   C608      1.0  0.13363  0.71467  0.28374  1.0000
  H   H456      1.0  0.39084  0.67381  0.38611  1.0000
  C   C609      1.0  0.12075  0.68107  0.37877  1.0000
  H   H457      1.0  0.39139  0.73160  0.28965  1.0000
  H   H458      1.0  0.40117  0.76785  0.29195  1.0000
  H   H459      1.0  0.37780  0.79010  0.32387  1.0000
  H   H460      1.0  0.34459  0.77532  0.35417  1.0000
  H   H461      1.0  0.33505  0.73871  0.35277  1.0000
  H   H462      1.0  0.32235  0.70670  0.28875  1.0000
  H   H463      1.0  0.33071  0.70131  0.24772  1.0000
  H   H464      1.0  0.37298  0.69300  0.22442  1.0000
  H   H465      1.0  0.40686  0.68857  0.24308  1.0000
  H   H466      1.0  0.39868  0.69284  0.28436  1.0000
  H   H467      1.0  0.42940  0.75317  0.44645  1.0000
  C   C610      1.0  0.34239  0.82797  0.44443  1.0000
  H   H468      1.0  0.47305  0.90447  0.44470  1.0000
  H   H469      1.0  0.33930  0.79430  0.44124  1.0000
  H   H470      1.0  0.19365  0.69499  0.39711  1.0000
  H   H471      1.0  0.17867  0.75016  0.34398  1.0000
  C   C611      1.0  0.45338  0.72140  0.45237  1.0000
  H   H472      1.0  0.40934  0.92288  0.33935  1.0000
  C   C612      1.0  0.48185  0.91028  0.45541  1.0000
  Fe  Fe48      1.0  0.44109  0.97456  0.40539  1.0000
  C   C613      1.0  0.36183  0.83076  0.47439  1.0000
  C   C614      1.0  0.32291  0.67891  0.17990  1.0000
  C   C615      1.0  0.47196  0.71005  0.46320  1.0000
  H   H473      1.0  0.18739  0.68853  0.25296  1.0000
  C   C616      1.0  0.48103  0.72156  0.47606  1.0000
  C   C617      1.0  0.12903  0.67397  0.35662  1.0000
  H   H474      1.0  0.42009  0.65593  0.12874  1.0000
  H   H475      1.0  0.48820  0.90857  0.35971  1.0000
  H   H476      1.0  0.46207  0.98221  0.46836  1.0000
  H   H477      1.0  0.46272  0.94680  0.35989  1.0000
  H   H478      1.0  0.49148  0.78834  0.44962  1.0000
  H   H479      1.0  0.45715  0.74634  0.27991  1.0000
  C   C618      1.0  0.45675  0.65498  0.04356  1.0000
  C   C619      1.0  0.45507  0.67419  0.00489  1.0000
  H   H480      1.0  0.37195  0.88318  0.45130  1.0000
  C   C620      1.0  0.40708  0.66085  0.18627  1.0000
  C   C621      1.0  0.29392  0.72215  0.17478  1.0000
  C   C622      1.0  0.46873  0.84326  0.34593  1.0000
  S   S90       1.0  0.28819  0.65561  0.43754  1.0000
  C   C623      1.0  0.37238  0.65380  0.17599  1.0000
  C   C624      1.0  0.31652  0.71976  0.17931  1.0000
  H   H481      1.0  0.21145  0.66365  0.33215  1.0000
  H   H482      1.0  0.46384  0.88126  0.39586  1.0000
  C   C625      1.0  0.44402  0.82201  0.47690  1.0000
  H   H483      1.0  0.37819  0.65854  0.31282  1.0000
  H   H484      1.0  0.28282  0.73886  0.17261  1.0000
  C   C626      1.0  0.29999  0.68141  0.17577  1.0000
  H   H485      1.0  0.29319  0.66669  0.17464  1.0000
  C   C627      1.0  0.45205  0.75541  0.46827  1.0000
  H   H486      1.0  0.19124  0.67146  0.29249  1.0000
  H   H487      1.0  0.35221  0.92323  0.44702  1.0000
  C   C628      1.0  0.35041  0.84110  0.45632  1.0000
  H   H488      1.0  0.18550  0.66654  0.46488  1.0000
  H   H489      1.0  0.44468  0.68428  0.99292  1.0000
  H   H490      1.0  0.47697  0.86870  0.43226  1.0000
  H   H491      1.0  0.44403  0.77289  0.47024  1.0000
  C   C629      1.0  0.48885  0.71034  0.34443  1.0000
  H   H492      1.0  0.47921  0.72470  0.39841  1.0000
  H   H493      1.0  0.25474  0.69884  0.46743  1.0000
  C   C630      1.0  0.47943  0.66516  0.99656  1.0000
  C   C631      1.0  0.09015  0.66376  0.36119  1.0000
  C   C632      1.0  0.48252  0.82590  0.33281  1.0000
  C   C633      1.0  0.48864  0.72190  0.38073  1.0000
  C   C634      1.0  0.36042  0.89029  0.46652  1.0000
  H   H494      1.0  0.35871  0.77580  0.47351  1.0000
  H   H495      1.0  0.06418  0.66932  0.39362  1.0000
  S   S91       1.0  0.27247  0.65244  0.33463  1.0000
  H   H496      1.0  0.12278  0.65283  0.44270  1.0000
  H   H497      1.0  0.49086  0.86815  0.29927  1.0000
  H   H498      1.0  0.44664  0.87761  0.47315  1.0000
  C   C635      1.0  0.43897  0.86262  0.47519  1.0000
  C   C636      1.0  0.45393  0.84133  0.47412  1.0000
  H   H499      1.0  0.47318  0.83987  0.47118  1.0000
  H   H500      1.0  0.45562  0.80546  0.47642  1.0000
  H   H501      1.0  0.39902  0.82769  0.52713  1.0000
  H   H502      1.0  0.40927  0.89832  0.57757  1.0000
  C   C637      1.0  0.37413  0.81352  0.55634  1.0000
  C   C638      1.0  0.46719  0.84756  0.58866  1.0000
  H   H503      1.0  0.49456  0.86972  0.52006  1.0000
  H   H504      1.0  0.41923  0.97452  0.58715  1.0000
  C   C639      1.0  0.38054  0.82542  0.53401  1.0000
  C   C640      1.0  0.45632  0.92601  0.55561  1.0000
  H   H505      1.0  0.32161  0.91785  0.52083  1.0000
  H   H506      1.0  0.46449  0.85998  0.62064  1.0000
  C   C641      1.0  0.16113  0.66487  0.57561  1.0000
  H   H507      1.0  0.43330  0.96450  0.50077  1.0000
  H   H508      1.0  0.43325  0.66498  0.96023  1.0000
  C   C642      1.0  0.44370  0.94763  0.54934  1.0000
  C   C643      1.0  0.36325  0.83392  0.52083  1.0000
  H   H509      1.0  0.47578  0.92313  0.55262  1.0000
  C   C644      1.0  0.47712  0.76643  0.57889  1.0000
  H   H510      1.0  0.48665  0.75575  0.59133  1.0000
  C   C645      1.0  0.33221  0.91003  0.50564  1.0000
  H   H511      1.0  0.24189  0.66786  0.49774  1.0000
  C   C646      1.0  0.46730  0.80304  0.55596  1.0000
  H   H512      1.0  0.31469  0.81631  0.56017  1.0000
  C   C647      1.0  0.41884  0.91209  0.56958  1.0000
  H   H513      1.0  0.38767  0.80656  0.56621  1.0000
  H   H514      1.0  0.45234  0.87399  0.51722  1.0000
  H   H515      1.0  0.46338  0.73901  0.57255  1.0000
  H   H516      1.0  0.46880  0.93580  0.50400  1.0000
  H   H517      1.0  0.37649  0.88500  0.54781  1.0000
  C   C648      1.0  0.43567  0.98145  0.50113  1.0000
  C   C649      1.0  0.44393  0.90825  0.56563  1.0000
  C   C650      1.0  0.46397  0.75697  0.56831  1.0000
  H   H518      1.0  0.34550  0.80099  0.58307  1.0000
  C   C651      1.0  0.47636  0.85487  0.60451  1.0000
  C   C652      1.0  0.41912  0.82396  0.48052  1.0000
  C   C653      1.0  0.45233  0.77048  0.55171  1.0000
  H   H519      1.0  0.20202  0.68119  0.52685  1.0000
  H   H520      1.0  0.34023  0.87730  0.52520  1.0000
  C   C654      1.0  0.47936  0.92792  0.48891  1.0000
  C   C655      1.0  0.35673  0.87680  0.48834  1.0000
  C   C656      1.0  0.45390  0.79345  0.54558  1.0000
  C   C657      1.0  0.40382  0.84525  0.48232  1.0000
  C   C658      1.0  0.35040  0.81034  0.56582  1.0000
  C   C659      1.0  0.48242  0.84131  0.56752  1.0000
  C   C660      1.0  0.40617  0.93364  0.56294  1.0000
  H   H521      1.0  0.46589  0.66523  0.92414  1.0000
  H   H522      1.0  0.38220  0.85141  0.57767  1.0000
  C   C661      1.0  0.41857  0.95154  0.55262  1.0000
  H   H523      1.0  0.42280  0.82843  0.57695  1.0000
  H   H524      1.0  0.32596  0.83675  0.52043  1.0000
  S   S92       1.0  0.43695  0.92370  0.48233  1.0000
  H   H525      1.0  0.45371  0.96121  0.54178  1.0000
  C   C662      1.0  0.37567  0.97711  0.53638  1.0000
  C   C663      1.0  0.33305  0.81897  0.55293  1.0000
  C   C664      1.0  0.44076  0.84925  0.54693  1.0000
  C   C665      1.0  0.42065  0.84317  0.56396  1.0000
  C   C666      1.0  0.39759  0.85614  0.56443  1.0000
  C   C667      1.0  0.39433  0.87502  0.54767  1.0000
  C   C668      1.0  0.41419  0.88125  0.53079  1.0000
  C   C669      1.0  0.43734  0.86855  0.53043  1.0000
  H   H526      1.0  0.44294  0.76292  0.54285  1.0000
  H   H527      1.0  0.39179  0.97739  0.49932  1.0000
  P   P21       1.0  0.47046  0.83236  0.54677  1.0000
  H   H528      1.0  0.44821  0.84702  0.59290  1.0000
  H   H529      1.0  0.44547  0.80349  0.53209  1.0000
  C   C670      1.0  0.47895  0.78934  0.57265  1.0000
  C   C671      1.0  0.33946  0.83062  0.53048  1.0000
  C   C672      1.0  0.35418  0.97614  0.55371  1.0000
  P   P22       1.0  0.37147  0.84724  0.49101  1.0000
  C   C673      1.0  0.37577  0.97635  0.51322  1.0000
  H   H530      1.0  0.41166  0.89612  0.51804  1.0000
  S   S93       1.0  0.48119  0.75934  0.49512  1.0000
  H   H531      1.0  0.45386  0.89158  0.57030  1.0000
  H   H532      1.0  0.38680  0.93626  0.56584  1.0000
  C   C674      1.0  0.33311  0.97480  0.54790  1.0000
  H   H533      1.0  0.31649  0.97461  0.56126  1.0000
  H   H534      1.0  0.17900  0.69361  0.56441  1.0000
  C   C675      1.0  0.49089  0.83556  0.51828  1.0000
  H   H535      1.0  0.37323  0.79849  0.49434  1.0000
  H   H536      1.0  0.49249  0.80176  0.51074  1.0000
  C   C676      1.0  0.34278  0.88696  0.50801  1.0000
  H   H537      1.0  0.41189  0.80875  0.48248  1.0000
  C   C677      1.0  0.18996  0.67078  0.53862  1.0000
  C   C678      1.0  0.23187  0.67448  0.48449  1.0000
  C   C679      1.0  0.35470  0.97484  0.50752  1.0000
  C   C680      1.0  0.47091  0.74427  0.47877  1.0000
  P   P23       1.0  0.40258  0.97952  0.54413  1.0000
  H   H538      1.0  0.48753  0.66878  0.97818  1.0000
  H   H539      1.0  0.35480  0.97492  0.48951  1.0000
  C   C681      1.0  0.33336  0.97423  0.52478  1.0000
  C   C682      1.0  0.41402  0.86461  0.47954  1.0000
  H   H540      1.0  0.40293  0.88129  0.48107  1.0000
  H   H541      1.0  0.35362  0.97673  0.57169  1.0000
  C   C683      1.0  0.21251  0.66485  0.48387  1.0000
  H   H542      1.0  0.15103  0.67044  0.59215  1.0000
  C   C684      1.0  0.17689  0.67792  0.55998  1.0000
  H   H543      1.0  0.31697  0.97374  0.52011  1.0000
  H   H544      1.0  0.49000  0.79600  0.58046  1.0000
  C   C685      1.0  0.33543  0.92309  0.48368  1.0000
  H   H545      1.0  0.32738  0.94097  0.48177  1.0000
  C   C686      1.0  0.36465  0.80706  0.48047  1.0000
  H   H546      1.0  0.15331  0.65279  0.50403  1.0000
  Fe  Fe49      1.0  0.59492  0.07012  0.39851  1.0000
  S   S94       1.0  0.58810  0.08419  0.36298  1.0000
  S   S95       1.0  0.62448  0.04017  0.40462  1.0000
  Fe  Fe50      1.0  0.55455  0.10427  0.42113  1.0000
  S   S96       1.0  0.54310  0.11987  0.38837  1.0000
  H   H547      1.0  0.65868  0.00797  0.42534  1.0000
  Fe  Fe51      1.0  0.54908  0.08380  0.38123  1.0000
  H   H548      1.0  0.62967  0.12374  0.43663  1.0000
  Fe  Fe52      1.0  0.58262  0.11902  0.37360  1.0000
  S   S97       1.0  0.59224  0.15211  0.35186  1.0000
  S   S98       1.0  0.55639  0.06848  0.41599  1.0000
  S   S99       1.0  0.59365  0.10477  0.40702  1.0000
  Fe  Fe53      1.0  0.62429  0.31003  0.39628  1.0000
  H   H549      1.0  0.53643  0.26562  0.41136  1.0000
  S   S100      1.0  0.59670  0.28913  0.41712  1.0000
  C   C687      1.0  0.51573  0.00734  0.46751  1.0000
  S   S101      1.0  0.63568  0.28902  0.36710  1.0000
  Fe  Fe54      1.0  0.60591  0.27000  0.38640  1.0000
  S   S102      1.0  0.61179  0.23139  0.39520  1.0000
  C   C688      1.0  0.62600  0.17531  0.45266  1.0000
  H   H550      1.0  0.56782  0.16746  0.47180  1.0000
  S   S103      1.0  0.57801  0.29335  0.36957  1.0000
  C   C689      1.0  0.70445  0.14571  0.33700  1.0000
  C   C690      1.0  0.59488  0.17469  0.36515  1.0000
  C   C691      1.0  0.60120  0.17053  0.38649  1.0000
  C   C692      1.0  0.60585  0.18826  0.39543  1.0000
  C   C693      1.0  0.60358  0.21051  0.38365  1.0000
  C   C694      1.0  0.59619  0.21498  0.36281  1.0000
  C   C695      1.0  0.59219  0.19706  0.35344  1.0000
  H   H551      1.0  0.60345  0.15346  0.39569  1.0000
  H   H552      1.0  0.61158  0.18466  0.41145  1.0000
  H   H553      1.0  0.59434  0.23204  0.35356  1.0000
  H   H554      1.0  0.58727  0.20047  0.33693  1.0000
  H   H555      1.0  0.50826  0.14640  0.42284  1.0000
  C   C696      1.0  0.69173  0.24728  0.34833  1.0000
  C   C697      1.0  0.54501  0.00992  0.43050  1.0000
  C   C698      1.0  0.54479  0.25409  0.42416  1.0000
  C   C699      1.0  0.62185  0.13930  0.44426  1.0000
  C   C700      1.0  0.62209  0.22650  0.30015  1.0000
  C   C701      1.0  0.60978  0.22234  0.47487  1.0000
  C   C702      1.0  0.68213  0.22743  0.35210  1.0000
  C   C703      1.0  0.70367  0.22538  0.28068  1.0000
  C   C704      1.0  0.50243  0.03661  0.39205  1.0000
  H   H556      1.0  0.76115  0.23093  0.25214  1.0000
  C   C705      1.0  0.61966  0.23611  0.45468  1.0000
  C   C706      1.0  0.67248  0.21814  0.37501  1.0000
  C   C707      1.0  0.68313  0.13764  0.34798  1.0000
  C   C708      1.0  0.50983  0.04856  0.36971  1.0000
  Fe  Fe55      1.0  0.60690  0.31404  0.35261  1.0000
  C   C709      1.0  0.56246  0.01689  0.34219  1.0000
  C   C710      1.0  0.62049  0.01991  0.43006  1.0000
  C   C711      1.0  0.59770  0.01713  0.44417  1.0000
  H   H557      1.0  0.55701  0.01954  0.41756  1.0000
  H   H558      1.0  0.64480  0.14664  0.36142  1.0000
  H   H559      1.0  0.61403  0.23731  0.43878  1.0000
  P   P24       1.0  0.68107  0.21484  0.32765  1.0000
  H   H560      1.0  0.58181  0.02791  0.43985  1.0000
  C   C712      1.0  0.55085  0.23085  0.42285  1.0000
  H   H561      1.0  0.64392  0.18786  0.35171  1.0000
  C   C713      1.0  0.61178  0.24906  0.30322  1.0000
  H   H562      1.0  0.56601  0.25508  0.47087  1.0000
  H   H563      1.0  0.63735  0.18743  0.45124  1.0000
  C   C714      1.0  0.50346  0.19473  0.44241  1.0000
  H   H564      1.0  0.54759  0.22435  0.40875  1.0000
  C   C715      1.0  0.50448  0.04220  0.35088  1.0000
  C   C716      1.0  0.69199  0.25743  0.36717  1.0000
  C   C717      1.0  0.58698  0.16408  0.46415  1.0000
  H   H565      1.0  0.66425  0.22164  0.41135  1.0000
  C   C718      1.0  0.52517  0.17887  0.43843  1.0000
  C   C719      1.0  0.53851  0.17605  0.41576  1.0000
  C   C720      1.0  0.53040  0.18903  0.39676  1.0000
  H   H566      1.0  0.69842  0.25533  0.33083  1.0000
  C   C721      1.0  0.50904  0.20510  0.40046  1.0000
  C   C722      1.0  0.55749  0.00006  0.36117  1.0000
  C   C723      1.0  0.74886  0.22219  0.28925  1.0000
  C   C724      1.0  0.59245  0.02562  0.35805  1.0000
  C   C725      1.0  0.64101  0.00600  0.43607  1.0000
  C   C726      1.0  0.68233  0.24807  0.38990  1.0000
  H   H567      1.0  0.72107  0.23372  0.24457  1.0000
  H   H568      1.0  0.76636  0.22099  0.29256  1.0000
  H   H569      1.0  0.53160  0.16798  0.45265  1.0000
  H   H570      1.0  0.55473  0.16316  0.41294  1.0000
  H   H571      1.0  0.54064  0.18642  0.37921  1.0000
  H   H572      1.0  0.64345  0.25998  0.43939  1.0000
  C   C727      1.0  0.50607  0.12355  0.45507  1.0000
  H   H573      1.0  0.65073  0.19859  0.30503  1.0000
  C   C728      1.0  0.62238  0.26118  0.31379  1.0000
  C   C729      1.0  0.63646  0.24892  0.45494  1.0000
  H   H574      1.0  0.68182  0.25643  0.40440  1.0000
  C   C730      1.0  0.72920  0.21822  0.30776  1.0000
  H   H575      1.0  0.50989  0.05128  0.33362  1.0000
  C   C731      1.0  0.65339  0.22793  0.31891  1.0000
  C   C732      1.0  0.59552  0.00035  0.46396  1.0000
  C   C733      1.0  0.57976  0.02980  0.34072  1.0000
  C   C734      1.0  0.66092  0.17628  0.34750  1.0000
  C   C735      1.0  0.70399  0.16909  0.33103  1.0000
  S   S104      1.0  0.64908  0.31722  0.41598  1.0000
  H   H576      1.0  0.69888  0.27304  0.36416  1.0000
  C   C736      1.0  0.64316  0.25071  0.32150  1.0000
  C   C737      1.0  0.72336  0.22935  0.26221  1.0000
  C   C738      1.0  0.58756  0.00885  0.37701  1.0000
  C   C739      1.0  0.66139  0.15292  0.35321  1.0000
  C   C740      1.0  0.53115  0.01949  0.45039  1.0000
  H   H577      1.0  0.66402  0.20346  0.37847  1.0000
  S   S105      1.0  0.52519  0.07192  0.36345  1.0000
  H   H578      1.0  0.59717  0.00639  0.39057  1.0000
  H   H579      1.0  0.68336  0.11954  0.35234  1.0000
  H   H580      1.0  0.61449  0.27873  0.31605  1.0000
  C   C741      1.0  0.70642  0.21987  0.30363  1.0000
  H   H581      1.0  0.58288  0.04341  0.32649  1.0000
  C   C742      1.0  0.64292  0.21601  0.30777  1.0000
  C   C743      1.0  0.68214  0.18459  0.33609  1.0000
  C   C744      1.0  0.56252  0.21613  0.43882  1.0000
  C   C745      1.0  0.67257  0.22846  0.39381  1.0000
  H   H582      1.0  0.72130  0.13382  0.33292  1.0000
  C   C746      1.0  0.54990  0.26254  0.44180  1.0000
  Fe  Fe56      1.0  0.57078  0.31378  0.39901  1.0000
  C   C747      1.0  0.74594  0.22778  0.26648  1.0000
  H   H583      1.0  0.56798  0.19845  0.43653  1.0000
  C   C748      1.0  0.86155  0.30968  0.29834  1.0000
  H   H584      1.0  0.54529  0.28055  0.44270  1.0000
  H   H585      1.0  0.68636  0.22673  0.27695  1.0000
  C   C749      1.0  0.59721  0.14388  0.45467  1.0000
  H   H586      1.0  0.65115  0.26053  0.32939  1.0000
  H   H587      1.0  0.73174  0.21387  0.32531  1.0000
  H   H588      1.0  0.72067  0.17487  0.32234  1.0000
  H   H589      1.0  0.60575  0.03568  0.35713  1.0000
  H   H590      1.0  0.59555  0.25717  0.29746  1.0000
  H   H591      1.0  0.61380  0.21704  0.29207  1.0000
  C   C750      1.0  0.60119  0.18012  0.46295  1.0000
  S   S106      1.0  0.53672  0.11839  0.45410  1.0000
  H   H592      1.0  0.53267  0.03616  0.45277  1.0000
  H   H593      1.0  0.50437  0.07337  0.44668  1.0000
  H   H594      1.0  0.55225  0.02051  0.32902  1.0000
  C   C751      1.0  0.61624  0.98684  0.47015  1.0000
  C   C752      1.0  0.63892  0.98990  0.45617  1.0000
  H   H595      1.0  0.58592  0.13191  0.45506  1.0000
  C   C753      1.0  0.85916  0.31158  0.32164  1.0000
  C   C754      1.0  0.57008  0.99587  0.37871  1.0000
  H   H596      1.0  0.50279  0.21515  0.38569  1.0000
  H   H597      1.0  0.87117  0.29408  0.29147  1.0000
  H   H598      1.0  0.65532  0.15145  0.43506  1.0000
  H   H599      1.0  0.50636  0.04127  0.40681  1.0000
  C   C755      1.0  0.63627  0.15493  0.44340  1.0000
  H   H600      1.0  0.86693  0.29746  0.33283  1.0000
  P   P25       1.0  0.58729  0.20663  0.47435  1.0000
  C   C756      1.0  0.51375  0.98580  0.46457  1.0000
  H   H601      1.0  0.54345  0.99085  0.36230  1.0000
  H   H602      1.0  0.77955  0.31144  0.02043  1.0000
  H   H603      1.0  0.61377  0.29634  0.46240  1.0000
  C   C757      1.0  0.56835  0.22459  0.45625  1.0000
  C   C758      1.0  0.60470  0.30929  0.47355  1.0000
  H   H604      1.0  0.49842  0.27778  0.45669  1.0000
  C   C759      1.0  0.56154  0.24795  0.45783  1.0000
  H   H605      1.0  0.57788  0.99831  0.47472  1.0000
  C   C760      1.0  0.54370  0.98799  0.42772  1.0000
  H   H606      1.0  0.74540  0.31378  0.00279  1.0000
  H   H607      1.0  0.50530  0.09221  0.40638  1.0000
  C   C761      1.0  0.49657  0.13828  0.43756  1.0000
  C   C762      1.0  0.64390  0.24778  0.47530  1.0000
  H   H608      1.0  0.65683  0.25785  0.47547  1.0000
  C   C763      1.0  0.49565  0.26304  0.46963  1.0000
  C   C764      1.0  0.49567  0.20802  0.42316  1.0000
  H   H609      1.0  0.52561  0.99403  0.52422  1.0000
  C   C765      1.0  0.56542  0.17553  0.54095  1.0000
  H   H610      1.0  0.57760  0.06990  0.55752  1.0000
  H   H611      1.0  0.53156  0.01218  0.56751  1.0000
  H   H612      1.0  0.60508  0.04737  0.61869  1.0000
  C   C766      1.0  0.54859  0.21471  0.51304  1.0000
  H   H613      1.0  0.57881  0.31556  0.53033  1.0000
  H   H614      1.0  0.53390  0.18611  0.56770  1.0000
  C   C767      1.0  0.56390  0.05011  0.49638  1.0000
  C   C768      1.0  0.57491  0.06242  0.57563  1.0000
  H   H615      1.0  0.59494  0.16921  0.51133  1.0000
  C   C769      1.0  0.52785  0.15476  0.51207  1.0000
  C   C770      1.0  0.56994  0.20014  0.50377  1.0000
  H   H616      1.0  0.57197  0.16040  0.55180  1.0000
  H   H617      1.0  0.60044  0.28572  0.50521  1.0000
  H   H618      1.0  0.53942  0.10241  0.58119  1.0000
  C   C771      1.0  0.56171  0.03796  0.53743  1.0000
  C   C772      1.0  0.57242  0.03506  0.51414  1.0000
  H   H619      1.0  0.51489  0.14087  0.58401  1.0000
  C   C773      1.0  0.53569  0.20955  0.53602  1.0000
  C   C774      1.0  0.54403  0.18996  0.54992  1.0000
  H   H620      1.0  0.54184  0.23005  0.50267  1.0000
  C   C775      1.0  0.59728  0.30337  0.49760  1.0000
  C   C776      1.0  0.50143  0.02625  0.52709  1.0000
  C   C777      1.0  0.51841  0.17375  0.49807  1.0000
  H   H621      1.0  0.54488  0.15379  0.51610  1.0000
  C   C778      1.0  0.57833  0.18056  0.51797  1.0000
  H   H622      1.0  0.61052  0.21043  0.51097  1.0000
  H   H623      1.0  0.53305  0.04143  0.62125  1.0000
  H   H624      1.0  0.58728  0.02107  0.50980  1.0000
  C   C779      1.0  0.59052  0.04983  0.61012  1.0000
  H   H625      1.0  0.56871  0.02621  0.55093  1.0000
  H   H626      1.0  0.51789  0.08394  0.52894  1.0000
  C   C780      1.0  0.63457  0.23375  0.49538  1.0000
  C   C781      1.0  0.54985  0.04647  0.61137  1.0000
  C   C782      1.0  0.50726  0.12747  0.58099  1.0000
  H   H627      1.0  0.64040  0.23284  0.51115  1.0000
  C   C783      1.0  0.51115  0.08815  0.57565  1.0000
  H   H628      1.0  0.61064  0.06424  0.57716  1.0000
  C   C784      1.0  0.54448  0.06785  0.50191  1.0000
  C   C785      1.0  0.53346  0.07059  0.52518  1.0000
  H   H629      1.0  0.51920  0.22077  0.54323  1.0000
  C   C786      1.0  0.59365  0.05934  0.58674  1.0000
  C   C787      1.0  0.54209  0.05576  0.54317  1.0000
  C   C788      1.0  0.50277  0.00035  0.59382  1.0000
  H   H630      1.0  0.52324  0.12171  0.53061  1.0000
  C   C789      1.0  0.51565  0.13663  0.52028  1.0000
  C   C790      1.0  0.51027  0.03882  0.58792  1.0000
  C   C791      1.0  0.55292  0.05583  0.58782  1.0000
  P   P26       1.0  0.52881  0.05978  0.57335  1.0000
  C   C792      1.0  0.56862  0.04346  0.62243  1.0000
  H   H631      1.0  0.51455  0.03567  0.51559  1.0000
  H   H632      1.0  0.56619  0.03608  0.64057  1.0000
  C   C793      1.0  0.52109  0.10559  0.57941  1.0000
  C   C794      1.0  0.61761  0.22103  0.49519  1.0000
  C   C795      1.0  0.51642  0.01681  0.58174  1.0000
  C   C796      1.0  0.49678  0.17459  0.49200  1.0000
  H   H633      1.0  0.49758  0.27908  0.49774  1.0000
  H   H634      1.0  0.50533  0.01458  0.48309  1.0000
  C   C797      1.0  0.50764  0.00255  0.53172  1.0000
  H   H635      1.0  0.54806  0.31468  0.49383  1.0000
  H   H636      1.0  0.53764  0.07920  0.48811  1.0000
  H   H637      1.0  0.52824  0.18752  0.49139  1.0000
  H   H638      1.0  0.49833  0.09977  0.48616  1.0000
  S   S107      1.0  0.50220  0.31793  0.52638  1.0000
  C   C798      1.0  0.53451  0.31823  0.48401  1.0000
  C   C799      1.0  0.49507  0.26391  0.49271  1.0000
  H   H639      1.0  0.57219  0.04795  0.47832  1.0000
  Fe  Fe57      1.0  0.60362  0.46137  0.01986  1.0000
  S   S108      1.0  0.62466  0.42593  0.01723  1.0000
  S   S109      1.0  0.62444  0.49017  0.00928  1.0000
  Fe  Fe58      1.0  0.55857  0.44338  0.04709  1.0000
  S   S110      1.0  0.57592  0.40702  0.04616  1.0000
  Fe  Fe59      1.0  0.60617  0.41761  0.05502  1.0000
  S   S111      1.0  0.61978  0.39817  0.08644  1.0000
  Fe  Fe60      1.0  0.59199  0.41916  0.00873  1.0000
  C   C800      1.0  0.79954  0.39109  0.31068  1.0000
  S   S112      1.0  0.58763  0.45340  0.05807  1.0000
  S   S113      1.0  0.57223  0.45517  0.00896  1.0000
  Fe  Fe61      1.0  0.92093  0.46684  0.44376  1.0000
  S   S114      1.0  0.93020  0.43039  0.43904  1.0000
  C   C801      1.0  0.53130  0.44391  0.15007  1.0000
  Fe  Fe62      1.0  0.92284  0.44312  0.40371  1.0000
  S   S115      1.0  0.89872  0.42404  0.39359  1.0000
  S   S116      1.0  0.91150  0.47956  0.40948  1.0000
  Fe  Fe63      1.0  0.71420  0.46029  0.36056  1.0000
  S   S117      1.0  0.69718  0.43846  0.39226  1.0000
  S   S118      1.0  0.69011  0.48154  0.33768  1.0000
  Fe  Fe64      1.0  0.76386  0.44818  0.37334  1.0000
  S   S119      1.0  0.75028  0.42437  0.40514  1.0000
  S   S120      1.0  0.79980  0.46057  0.36266  1.0000
  Fe  Fe65      1.0  0.73103  0.41289  0.38273  1.0000
  S   S121      1.0  0.72976  0.37799  0.37549  1.0000
  Fe  Fe66      1.0  0.71763  0.45233  0.41137  1.0000
  S   S122      1.0  0.70090  0.46470  0.44662  1.0000
  S   S123      1.0  0.74761  0.43452  0.35019  1.0000
  S   S124      1.0  0.73171  0.47636  0.38031  1.0000
  H   H640      1.0  0.89815  0.38887  0.33584  1.0000
  S   S125      1.0  0.74336  0.54429  0.46560  1.0000
  C   C802      1.0  0.55521  0.40611  0.15448  1.0000
  H   H641      1.0  0.65337  0.60610  0.03450  1.0000
  H   H642      1.0  0.92611  0.55298  0.35928  1.0000
  Fe  Fe67      1.0  0.59807  0.44276  0.24366  1.0000
  S   S126      1.0  0.63454  0.42746  0.22315  1.0000
  S   S127      1.0  0.57101  0.42414  0.27017  1.0000
  Fe  Fe68      1.0  0.60644  0.49110  0.22707  1.0000
  S   S128      1.0  0.64377  0.47954  0.20607  1.0000
  S   S129      1.0  0.59186  0.52864  0.22678  1.0000
  Fe  Fe69      1.0  0.62710  0.45542  0.19430  1.0000
  S   S130      1.0  0.63577  0.45717  0.15497  1.0000
  Fe  Fe70      1.0  0.64773  0.45292  0.23677  1.0000
  S   S131      1.0  0.68072  0.44078  0.25162  1.0000
  S   S132      1.0  0.58944  0.46873  0.21370  1.0000
  S   S133      1.0  0.61167  0.46651  0.25871  1.0000
  C   C803      1.0  0.79475  0.47851  0.46686  1.0000
  C   C804      1.0  0.56160  0.53600  0.24168  1.0000
  C   C805      1.0  0.55042  0.55893  0.24129  1.0000
  C   C806      1.0  0.70399  0.49492  0.47398  1.0000
  C   C807      1.0  0.60187  0.54704  0.04201  1.0000
  C   C808      1.0  0.52439  0.52533  0.26586  1.0000
  C   C809      1.0  0.54849  0.51920  0.25384  1.0000
  H   H643      1.0  0.56052  0.57197  0.23180  1.0000
  H   H644      1.0  0.53774  0.47369  0.24646  1.0000
  H   H645      1.0  0.79436  0.38505  0.41144  1.0000
  H   H646      1.0  0.55708  0.50152  0.25421  1.0000
  C   C810      1.0  0.60426  0.35452  0.30344  1.0000
  C   C811      1.0  0.61551  0.36393  0.28120  1.0000
  C   C812      1.0  0.60569  0.38552  0.27135  1.0000
  C   C813      1.0  0.58423  0.39775  0.28339  1.0000
  C   C814      1.0  0.57293  0.38847  0.30578  1.0000
  C   C815      1.0  0.58305  0.36694  0.31591  1.0000
  H   H647      1.0  0.63189  0.35443  0.27147  1.0000
  H   H648      1.0  0.61445  0.39236  0.25410  1.0000
  H   H649      1.0  0.55640  0.39792  0.31527  1.0000
  H   H650      1.0  0.97535  0.54662  0.33403  1.0000
  C   C816      1.0  0.68755  0.46998  0.31387  1.0000
  C   C817      1.0  0.70189  0.44936  0.30766  1.0000
  C   C818      1.0  0.69970  0.44070  0.28847  1.0000
  C   C819      1.0  0.68293  0.45233  0.27556  1.0000
  C   C820      1.0  0.66864  0.47297  0.28172  1.0000
  C   C821      1.0  0.67095  0.48176  0.30081  1.0000
  H   H651      1.0  0.71468  0.44013  0.31761  1.0000
  H   H652      1.0  0.71067  0.42468  0.28384  1.0000
  H   H653      1.0  0.65609  0.48229  0.27153  1.0000
  H   H654      1.0  0.65991  0.49779  0.30538  1.0000
  C   C822      1.0  0.70486  0.36397  0.38670  1.0000
  H   H655      1.0  0.53524  0.57105  0.06941  1.0000
  C   C823      1.0  0.52722  0.51705  0.04750  1.0000
  H   H656      1.0  0.61166  0.39419  0.20651  1.0000
  C   C824      1.0  0.67853  0.34126  0.38011  1.0000
  C   C825      1.0  0.69633  0.35487  0.37146  1.0000
  H   H657      1.0  0.60107  0.36135  0.23579  1.0000
  C   C826      1.0  0.53239  0.49339  0.05098  1.0000
  C   C827      1.0  0.85889  0.64465  0.44037  1.0000
  H   H658      1.0  0.70376  0.35809  0.35289  1.0000
  C   C828      1.0  0.71204  0.48727  0.45207  1.0000
  C   C829      1.0  0.67021  0.37866  0.00844  1.0000
  C   C830      1.0  0.79412  0.37531  0.39829  1.0000
  C   C831      1.0  0.72977  0.52320  0.46089  1.0000
  C   C832      1.0  0.73673  0.51631  0.43882  1.0000
  C   C833      1.0  0.72841  0.49815  0.43458  1.0000
  H   H659      1.0  0.65796  0.40408  0.41805  1.0000
  C   C834      1.0  0.54814  0.39949  0.43912  1.0000
  H   H660      1.0  0.74906  0.52478  0.42497  1.0000
  H   H661      1.0  0.73482  0.49263  0.41773  1.0000
  C   C835      1.0  0.86987  0.43600  0.38809  1.0000
  C   C836      1.0  0.86574  0.45700  0.37430  1.0000
  C   C837      1.0  0.84387  0.46454  0.36733  1.0000
  C   C838      1.0  0.82565  0.45144  0.37441  1.0000
  C   C839      1.0  0.82926  0.43099  0.38917  1.0000
  C   C840      1.0  0.85143  0.42312  0.39558  1.0000
  H   H662      1.0  0.87987  0.46694  0.36813  1.0000
  H   H663      1.0  0.84134  0.48032  0.35581  1.0000
  H   H664      1.0  0.81531  0.42092  0.39507  1.0000
  H   H665      1.0  0.85449  0.40677  0.40611  1.0000
  S   S134      1.0  0.96183  0.51031  0.36812  1.0000
  H   H666      1.0  0.96444  0.52770  0.29647  1.0000
  C   C841      1.0  0.87406  0.42035  0.32937  1.0000
  C   C842      1.0  0.92275  0.50804  0.46628  1.0000
  C   C843      1.0  0.68397  0.36149  0.11108  1.0000
  H   H667      1.0  0.54838  0.43847  0.22935  1.0000
  H   H668      1.0  0.94751  0.53120  0.45653  1.0000
  H   H669      1.0  0.92160  0.50839  0.44863  1.0000
  H   H670      1.0  0.64205  0.55769  0.11133  1.0000
  C   C844      1.0  0.84219  0.39340  0.32689  1.0000
  C   C845      1.0  0.59049  0.55772  0.12513  1.0000
  C   C846      1.0  0.62195  0.41485  0.10645  1.0000
  C   C847      1.0  0.62070  0.40582  0.12995  1.0000
  C   C848      1.0  0.62390  0.41881  0.14552  1.0000
  C   C849      1.0  0.62888  0.44068  0.13745  1.0000
  C   C850      1.0  0.63014  0.44952  0.11403  1.0000
  C   C851      1.0  0.62639  0.43682  0.09871  1.0000
  H   H671      1.0  0.61757  0.38867  0.13601  1.0000
  H   H672      1.0  0.62347  0.41163  0.16341  1.0000
  H   H673      1.0  0.63443  0.46619  0.10760  1.0000
  H   H674      1.0  0.62778  0.44365  0.08066  1.0000
  H   H675      1.0  0.54942  0.48474  0.04182  1.0000
  C   C852      1.0  0.76365  0.32454  0.02415  1.0000
  H   H676      1.0  0.52670  0.57328  0.14205  1.0000
  C   C853      1.0  0.79173  0.45951  0.45871  1.0000
  H   H677      1.0  0.62035  0.54014  0.03389  1.0000
  H   H678      1.0  0.53481  0.49915  0.16181  1.0000
  C   C854      1.0  0.75891  0.40090  0.30473  1.0000
  H   H679      1.0  0.63010  0.57571  0.04197  1.0000
  H   H680      1.0  0.76846  0.37868  0.33404  1.0000
  H   H681      1.0  0.66524  0.58833  0.10345  1.0000
  H   H682      1.0  0.53055  0.54547  0.20756  1.0000
  C   C855      1.0  0.66854  0.40675  0.32643  1.0000
  C   C856      1.0  0.66423  0.39978  0.30744  1.0000
  C   C857      1.0  0.64227  0.40820  0.30132  1.0000
  C   C858      1.0  0.62448  0.42340  0.31432  1.0000
  C   C859      1.0  0.62871  0.43065  0.33336  1.0000
  C   C860      1.0  0.65103  0.42239  0.33913  1.0000
  P   P27       1.0  0.60496  0.44943  0.35067  1.0000
  C   C861      1.0  0.60050  0.47804  0.33550  1.0000
  C   C862      1.0  0.57794  0.43756  0.35740  1.0000
  C   C863      1.0  0.55522  0.45167  0.35887  1.0000
  C   C864      1.0  0.57959  0.41389  0.36087  1.0000
  C   C865      1.0  0.58844  0.49629  0.34799  1.0000
  C   C866      1.0  0.58554  0.51856  0.33645  1.0000
  C   C867      1.0  0.59451  0.52275  0.31235  1.0000
  C   C868      1.0  0.60650  0.50471  0.29985  1.0000
  C   C869      1.0  0.60968  0.48249  0.31142  1.0000
  C   C870      1.0  0.61249  0.45173  0.37709  1.0000
  C   C871      1.0  0.63100  0.46330  0.37576  1.0000
  C   C872      1.0  0.63669  0.46589  0.39600  1.0000
  C   C873      1.0  0.62370  0.45734  0.41778  1.0000
  C   C874      1.0  0.60487  0.44624  0.41929  1.0000
  C   C875      1.0  0.59939  0.44326  0.39900  1.0000
  H   H683      1.0  0.68576  0.40053  0.33092  1.0000
  H   H684      1.0  0.67807  0.38824  0.29711  1.0000
  H   H685      1.0  0.63918  0.40312  0.28630  1.0000
  H   H686      1.0  0.60746  0.42950  0.30940  1.0000
  H   H687      1.0  0.65518  0.42785  0.35334  1.0000
  H   H688      1.0  0.55341  0.46993  0.35623  1.0000
  H   H689      1.0  0.59691  0.40262  0.35959  1.0000
  H   H690      1.0  0.58152  0.49334  0.36667  1.0000
  H   H691      1.0  0.57641  0.53258  0.34615  1.0000
  H   H692      1.0  0.59225  0.53994  0.30329  1.0000
  H   H693      1.0  0.61363  0.50799  0.28116  1.0000
  H   H694      1.0  0.61983  0.46889  0.30161  1.0000
  H   H695      1.0  0.64127  0.47010  0.35899  1.0000
  H   H696      1.0  0.65145  0.47431  0.39464  1.0000
  H   H697      1.0  0.62843  0.45914  0.43342  1.0000
  H   H698      1.0  0.59489  0.43952  0.43616  1.0000
  H   H699      1.0  0.58507  0.43430  0.40047  1.0000
  C   C876      1.0  0.70594  0.59862  0.44349  1.0000
  C   C877      1.0  0.68880  0.61844  0.44134  1.0000
  C   C878      1.0  0.67829  0.62355  0.42233  1.0000
  C   C879      1.0  0.68500  0.60889  0.40542  1.0000
  C   C880      1.0  0.70248  0.58907  0.40734  1.0000
  C   C881      1.0  0.71270  0.58402  0.42660  1.0000
  P   P28       1.0  0.71033  0.56903  0.38664  1.0000
  C   C882      1.0  0.70386  0.58327  0.35929  1.0000
  C   C883      1.0  0.74211  0.55658  0.38149  1.0000
  C   C884      1.0  0.75888  0.56875  0.38358  1.0000
  C   C885      1.0  0.78346  0.55915  0.37927  1.0000
  C   C886      1.0  0.79154  0.53754  0.37239  1.0000
  C   C887      1.0  0.77504  0.52545  0.37001  1.0000
  C   C888      1.0  0.75046  0.53489  0.37453  1.0000
  C   C889      1.0  0.72223  0.59036  0.34072  1.0000
  C   C890      1.0  0.71712  0.60090  0.31944  1.0000
  C   C891      1.0  0.69366  0.60448  0.31658  1.0000
  C   C892      1.0  0.67525  0.59763  0.33504  1.0000
  C   C893      1.0  0.68030  0.58710  0.35633  1.0000
  C   C894      1.0  0.69281  0.54678  0.39778  1.0000
  C   C895      1.0  0.68331  0.54159  0.42181  1.0000
  C   C896      1.0  0.67053  0.52383  0.43028  1.0000
  C   C897      1.0  0.66735  0.51096  0.41493  1.0000
  C   C898      1.0  0.67649  0.51615  0.39099  1.0000
  C   C899      1.0  0.68916  0.53399  0.38243  1.0000
  H   H700      1.0  0.71377  0.59435  0.45843  1.0000
  C   C900      1.0  0.51086  0.48952  0.22731  1.0000
  C   C901      1.0  0.63555  0.52885  0.98186  1.0000
  H   H701      1.0  0.67639  0.61304  0.39105  1.0000
  H   H702      1.0  0.72566  0.56854  0.42867  1.0000
  H   H703      1.0  0.75302  0.58565  0.38849  1.0000
  H   H704      1.0  0.79626  0.56846  0.38124  1.0000
  H   H705      1.0  0.78125  0.50867  0.36467  1.0000
  H   H706      1.0  0.73814  0.52513  0.37252  1.0000
  H   H707      1.0  0.74056  0.58761  0.34248  1.0000
  H   H708      1.0  0.73141  0.60609  0.30507  1.0000
  H   H709      1.0  0.79186  0.34114  0.35117  1.0000
  C   C902      1.0  0.84675  0.33169  0.33053  1.0000
  H   H710      1.0  0.66584  0.58177  0.37043  1.0000
  H   H711      1.0  0.68631  0.55065  0.43419  1.0000
  H   H712      1.0  0.50779  0.52621  0.33029  1.0000
  H   H713      1.0  0.52020  0.37098  0.30730  1.0000
  H   H714      1.0  0.67445  0.50596  0.37902  1.0000
  H   H715      1.0  0.69663  0.53730  0.36384  1.0000
  H   H716      1.0  0.57420  0.35971  0.33305  1.0000
  H   H717      1.0  0.98385  0.49406  0.46751  1.0000
  H   H718      1.0  0.56046  0.38621  0.36760  1.0000
  C   C903      1.0  0.79038  0.48160  0.42111  1.0000
  C   C904      1.0  0.79329  0.50053  0.42910  1.0000
  H   H719      1.0  0.68290  0.34591  0.12307  1.0000
  C   C905      1.0  0.79107  0.41678  0.27652  1.0000
  C   C906      1.0  0.65733  0.58564  0.09015  1.0000
  H   H720      1.0  0.57378  0.39234  0.12249  1.0000
  H   H721      1.0  0.78832  0.48290  0.40359  1.0000
  H   H722      1.0  0.79358  0.51654  0.41780  1.0000
  H   H723      1.0  0.58239  0.60675  0.05062  1.0000
  H   H724      1.0  0.87489  0.60384  0.41607  1.0000
  C   C907      1.0  0.65062  0.59565  0.05135  1.0000
  C   C908      1.0  0.62259  0.38048  0.39696  1.0000
  C   C909      1.0  0.93154  0.58933  0.44265  1.0000
  C   C910      1.0  0.94706  0.58157  0.45750  1.0000
  H   H725      1.0  0.74569  0.43311  0.98659  1.0000
  H   H726      1.0  0.93437  0.58110  0.42744  1.0000
  H   H727      1.0  0.96189  0.56739  0.45398  1.0000
  H   H728      1.0  0.50732  0.62489  0.08790  1.0000
  C   C911      1.0  0.60592  0.51722  0.12777  1.0000
  C   C912      1.0  0.59731  0.51518  0.15198  1.0000
  C   C913      1.0  0.63799  0.51628  0.07566  1.0000
  C   C914      1.0  0.66055  0.51141  0.08112  1.0000
  C   C915      1.0  0.67707  0.49173  0.07512  1.0000
  C   C916      1.0  0.67126  0.47683  0.06350  1.0000
  C   C917      1.0  0.64875  0.48140  0.05831  1.0000
  C   C918      1.0  0.63197  0.50074  0.06478  1.0000
  H   H729      1.0  0.61544  0.50212  0.11998  1.0000
  H   H730      1.0  0.60030  0.49873  0.16243  1.0000
  H   H731      1.0  0.66535  0.52264  0.09023  1.0000
  H   H732      1.0  0.69432  0.48796  0.07962  1.0000
  H   H733      1.0  0.68403  0.46160  0.05881  1.0000
  H   H734      1.0  0.64404  0.46980  0.04952  1.0000
  H   H735      1.0  0.61441  0.50339  0.06114  1.0000
  C   C919      1.0  0.84781  0.50566  0.40465  1.0000
  C   C920      1.0  0.85123  0.48893  0.42338  1.0000
  C   C921      1.0  0.85522  0.49479  0.44310  1.0000
  C   C922      1.0  0.85640  0.51719  0.44399  1.0000
  C   C923      1.0  0.85312  0.53403  0.42515  1.0000
  C   C924      1.0  0.84836  0.52817  0.40566  1.0000
  P   P29       1.0  0.85448  0.56312  0.42553  1.0000
  C   C925      1.0  0.82608  0.57987  0.42095  1.0000
  C   C926      1.0  0.85888  0.56716  0.45285  1.0000
  C   C927      1.0  0.84038  0.57928  0.46861  1.0000
  C   C928      1.0  0.53462  0.45180  0.22382  1.0000
  H   H736      1.0  0.52759  0.38084  0.23084  1.0000
  H   H737      1.0  0.52854  0.61126  0.11979  1.0000
  C   C929      1.0  0.88164  0.55939  0.45781  1.0000
  C   C930      1.0  0.82518  0.59952  0.40449  1.0000
  C   C931      1.0  0.80295  0.61248  0.40161  1.0000
  C   C932      1.0  0.78151  0.60587  0.41505  1.0000
  C   C933      1.0  0.78229  0.58615  0.43116  1.0000
  C   C934      1.0  0.80444  0.57309  0.43402  1.0000
  C   C935      1.0  0.87989  0.57176  0.40365  1.0000
  C   C936      1.0  0.89477  0.55733  0.38773  1.0000
  C   C937      1.0  0.91467  0.56427  0.37143  1.0000
  C   C938      1.0  0.92037  0.58528  0.37133  1.0000
  C   C939      1.0  0.90597  0.59954  0.38741  1.0000
  C   C940      1.0  0.88577  0.59283  0.40348  1.0000
  H   H738      1.0  0.84458  0.50112  0.38945  1.0000
  H   H739      1.0  0.85083  0.47143  0.42260  1.0000
  H   H740      1.0  0.50494  0.40034  0.17165  1.0000
  H   H741      1.0  0.86009  0.52109  0.45930  1.0000
  H   H742      1.0  0.84559  0.54097  0.39104  1.0000
  H   H743      1.0  0.82266  0.58566  0.46545  1.0000
  H   H744      1.0  0.58042  0.42061  0.18928  1.0000
  S   S135      1.0  0.95917  0.47277  0.43149  1.0000
  C   C941      1.0  0.55164  0.40273  0.20875  1.0000
  H   H745      1.0  0.89632  0.55017  0.44582  1.0000
  H   H746      1.0  0.84151  0.60489  0.39381  1.0000
  H   H747      1.0  0.80234  0.62768  0.38897  1.0000
  H   H748      1.0  0.76425  0.61596  0.41302  1.0000
  H   H749      1.0  0.76568  0.58102  0.44158  1.0000
  H   H750      1.0  0.80465  0.55790  0.44674  1.0000
  H   H751      1.0  0.89162  0.54050  0.38806  1.0000
  H   H752      1.0  0.93623  0.59032  0.35910  1.0000
  H   H753      1.0  0.91081  0.61557  0.38762  1.0000
  C   C942      1.0  0.60278  0.53855  0.11413  1.0000
  H   H754      1.0  0.66451  0.42421  0.03555  1.0000
  H   H755      1.0  0.59035  0.55086  0.01018  1.0000
  H   H756      1.0  0.60577  0.33602  0.44494  1.0000
  H   H757      1.0  0.54012  0.52632  0.03535  1.0000
  C   C943      1.0  0.59329  0.39130  0.21163  1.0000
  H   H758      1.0  0.81054  0.53003  0.36899  1.0000
  C   C944      1.0  0.62514  0.39295  0.43832  1.0000
  C   C945      1.0  0.58551  0.53434  0.16279  1.0000
  H   H759      1.0  0.57942  0.53272  0.18163  1.0000
  H   H760      1.0  0.70244  0.36557  0.42261  1.0000
  P   P30       1.0  0.61689  0.54192  0.08324  1.0000
  P   P31       1.0  0.52899  0.42236  0.19608  1.0000
  C   C946      1.0  0.90917  0.61863  0.46688  1.0000
  C   C947      1.0  0.51139  0.37909  0.46987  1.0000
  C   C948      1.0  0.55892  0.40451  0.36536  1.0000
  C   C949      1.0  0.49545  0.39499  0.32875  1.0000
  C   C950      1.0  0.57065  0.55847  0.07560  1.0000
  C   C951      1.0  0.58500  0.55320  0.02840  1.0000
  H   H761      1.0  0.70912  0.34330  0.01124  1.0000
  C   C952      1.0  0.72445  0.41012  0.01049  1.0000
  H   H762      1.0  0.67068  0.46087  0.01130  1.0000
  C   C953      1.0  0.63731  0.57835  0.05572  1.0000
  C   C954      1.0  0.59482  0.54952  0.06582  1.0000
  C   C955      1.0  0.58185  0.55558  0.14936  1.0000
  H   H763      1.0  0.77078  0.33139  0.39212  1.0000
  C   C956      1.0  0.54578  0.38406  0.22532  1.0000
  C   C957      1.0  0.94388  0.59233  0.47686  1.0000
  C   C958      1.0  0.52878  0.61125  0.99510  1.0000
  H   H764      1.0  0.67173  0.34090  0.43796  1.0000
  C   C959      1.0  0.53458  0.44225  0.36320  1.0000
  H   H765      1.0  0.79712  0.42767  0.26053  1.0000
  S   S136      1.0  0.52155  0.45173  0.06917  1.0000
  C   C960      1.0  0.91274  0.60787  0.44725  1.0000
  C   C961      1.0  0.51727  0.57887  0.12831  1.0000
  C   C962      1.0  0.51526  0.48120  0.06568  1.0000
  C   C963      1.0  0.66057  0.59934  0.06857  1.0000
  H   H766      1.0  0.81729  0.42543  0.32328  1.0000
  C   C964      1.0  0.78113  0.34488  0.38745  1.0000
  C   C965      1.0  0.63361  0.56471  0.07751  1.0000
  C   C966      1.0  0.64404  0.56832  0.09458  1.0000
  C   C967      1.0  0.56105  0.56197  0.03837  1.0000
  H   H767      1.0  0.56437  0.56028  0.09385  1.0000
  H   H768      1.0  0.57279  0.57042  0.15786  1.0000
  C   C968      1.0  0.50088  0.47760  0.31493  1.0000
  H   H769      1.0  0.75410  0.42431  0.27401  1.0000
  C   C969      1.0  0.55395  0.56467  0.06185  1.0000
  H   H770      1.0  0.54779  0.56633  0.02805  1.0000
  H   H771      1.0  0.58818  0.57440  0.11503  1.0000
  C   C970      1.0  0.85143  0.43053  0.32541  1.0000
  C   C971      1.0  0.70149  0.40742  0.02433  1.0000
  C   C972      1.0  0.83532  0.41715  0.32476  1.0000
  C   C973      1.0  0.53792  0.44436  0.12588  1.0000
  C   C974      1.0  0.62050  0.51288  0.98692  1.0000
  H   H772      1.0  0.74005  0.39955  0.31079  1.0000
  H   H773      1.0  0.81475  0.39558  0.37054  1.0000
  H   H774      1.0  0.52897  0.53067  0.09268  1.0000
  C   C975      1.0  0.56263  0.48624  0.13358  1.0000
  H   H775      1.0  0.57196  0.47342  0.14483  1.0000
  C   C976      1.0  0.54173  0.50108  0.14313  1.0000
  C   C977      1.0  0.80568  0.38125  0.37503  1.0000
  H   H776      1.0  0.58710  0.47567  0.10205  1.0000
  C   C978      1.0  0.57129  0.48751  0.10944  1.0000
  C   C979      1.0  0.52984  0.51782  0.12849  1.0000
  C   C980      1.0  0.76681  0.41486  0.28408  1.0000
  H   H777      1.0  0.96662  0.45751  0.32531  1.0000
  H   H778      1.0  0.50036  0.56635  0.00480  1.0000
  C   C981      1.0  0.67835  0.34499  0.41936  1.0000
  C   C982      1.0  0.53849  0.51866  0.10429  1.0000
  C   C983      1.0  0.55916  0.50363  0.09481  1.0000
  S   S137      1.0  0.59745  0.33643  0.38054  1.0000
  H   H779      1.0  0.90142  0.61396  0.43524  1.0000
  C   C984      1.0  0.51334  0.54823  0.26598  1.0000
  S   S138      1.0  0.89649  0.47485  0.47789  1.0000
  Fe  Fe71      1.0  0.95072  0.48182  0.39638  1.0000
  C   C985      1.0  0.67124  0.37382  0.03195  1.0000
  C   C986      1.0  0.51577  0.40478  0.28853  1.0000
  H   H780      1.0  0.56547  0.50424  0.07606  1.0000
  C   C987      1.0  0.56188  0.40671  0.13030  1.0000
  C   C988      1.0  0.68576  0.44677  0.01127  1.0000
  H   H781      1.0  0.49685  0.49132  0.13537  1.0000
  H   H782      1.0  0.62696  0.39752  0.45410  1.0000
  C   C989      1.0  0.56359  0.36922  0.23503  1.0000
  S   S139      1.0  0.99400  0.60874  0.43363  1.0000
  H   H783      1.0  0.56180  0.39086  0.16511  1.0000
  C   C990      1.0  0.51847  0.53996  0.17870  1.0000
  H   H784      1.0  0.52874  0.39994  0.27278  1.0000
  C   C991      1.0  0.72798  0.43109  0.99727  1.0000
  C   C992      1.0  0.50481  0.42753  0.28967  1.0000
  C   C993      1.0  0.77518  0.38906  0.31797  1.0000
  C   C994      1.0  0.58732  0.37280  0.22814  1.0000
  H   H785      1.0  0.55906  0.35495  0.24799  1.0000
  C   C995      1.0  0.56854  0.62104  0.04688  1.0000
  H   H786      1.0  0.53657  0.53626  0.16804  1.0000
  C   C996      1.0  0.80740  0.40490  0.28969  1.0000
  C   C997      1.0  0.86502  0.38327  0.33082  1.0000
  C   C998      1.0  0.57555  0.40622  0.20194  1.0000
  H   H787      1.0  0.84587  0.44883  0.32391  1.0000
  H   H788      1.0  0.68386  0.38648  0.99549  1.0000
  C   C999      1.0  0.52539  0.46808  0.30715  1.0000
  H   H789      1.0  0.82613  0.40660  0.28357  1.0000
  C   C1000     1.0  0.88083  0.39673  0.33213  1.0000
  C   C1001     1.0  0.83797  0.64279  0.43457  1.0000
  H   H790      1.0  0.67839  0.41814  0.11093  1.0000
  C   C1002     1.0  0.52855  0.47187  0.23377  1.0000
  C   C1003     1.0  0.68046  0.38203  0.11961  1.0000
  C   C1004     1.0  0.52276  0.44907  0.20747  1.0000
  S   S140      1.0  0.96194  0.44586  0.38781  1.0000
  Fe  Fe72      1.0  0.96794  0.43690  0.42422  1.0000
  H   H791      1.0  0.55812  0.42604  0.09730  1.0000
  H   H792      1.0  0.53100  0.45216  0.30015  1.0000
  C   C1005     1.0  0.96306  0.49270  0.31027  1.0000
  H   H793      1.0  0.78698  0.44652  0.42973  1.0000
  P   P32       1.0  0.82069  0.37606  0.32786  1.0000
  C   C1006     1.0  0.78168  0.35726  0.40447  1.0000
  H   H794      1.0  0.96856  0.52861  0.40745  1.0000
  H   H795      1.0  0.67650  0.38248  0.13819  1.0000
  C   C1007     1.0  0.97175  0.53483  0.37055  1.0000
  H   H796      1.0  0.64885  0.52708  0.99174  1.0000
  C   C1008     1.0  0.50410  0.46652  0.20200  1.0000
  C   C1009     1.0  0.76231  0.34006  0.03897  1.0000
  H   H797      1.0  0.52055  0.41132  0.36930  1.0000
  H   H798      1.0  0.79091  0.44350  0.47001  1.0000
  S   S141      1.0  0.53205  0.32771  0.41618  1.0000
  C   C1010     1.0  0.49864  0.48685  0.21141  1.0000
  C   C1011     1.0  0.93729  0.52100  0.47073  1.0000
  C   C1012     1.0  0.68155  0.40218  0.10420  1.0000
  H   H799      1.0  0.51436  0.51225  0.27508  1.0000
  H   H800      1.0  0.66403  0.51932  0.44887  1.0000
  C   C1013     1.0  0.53694  0.50023  0.31632  1.0000
  H   H801      1.0  0.56022  0.31903  0.45067  1.0000
  C   C1014     1.0  0.80522  0.36889  0.35783  1.0000
  C   C1015     1.0  0.50386  0.56485  0.12338  1.0000
  H   H802      1.0  0.88605  0.43074  0.33102  1.0000
  H   H803      1.0  0.68612  0.41781  0.06892  1.0000
  H   H804      1.0  0.59042  0.36849  0.41690  1.0000
  H   H805      1.0  0.74095  0.36882  0.05539  1.0000
  H   H806      1.0  0.56203  0.40772  0.42714  1.0000
  H   H807      1.0  0.94509  0.49381  0.30815  1.0000
  C   C1016     1.0  0.55320  0.42578  0.11603  1.0000
  C   C1017     1.0  0.55301  0.38435  0.45868  1.0000
  H   H808      1.0  0.51939  0.45847  0.15705  1.0000
  C   C1018     1.0  0.52520  0.40393  0.43474  1.0000
  C   C1019     1.0  0.52626  0.56505  0.25334  1.0000
  C   C1020     1.0  0.79290  0.35061  0.36422  1.0000
  H   H809      1.0  0.79742  0.51408  0.45749  1.0000
  H   H810      1.0  0.65576  0.39278  0.38164  1.0000
  C   C1021     1.0  0.53644  0.41868  0.36633  1.0000
  H   H811      1.0  0.83154  0.36192  0.28125  1.0000
  H   H812      1.0  0.98453  0.56327  0.40809  1.0000
  H   H813      1.0  0.56366  0.60738  0.01879  1.0000
  C   C1022     1.0  0.51055  0.59831  0.00367  1.0000
  C   C1023     1.0  0.97378  0.53987  0.39159  1.0000
  C   C1024     1.0  0.83913  0.34807  0.29276  1.0000
  C   C1025     1.0  0.68576  0.40190  0.08027  1.0000
  C   C1026     1.0  0.79531  0.49909  0.45189  1.0000
  C   C1027     1.0  0.63286  0.36457  0.01807  1.0000
  H   H814      1.0  0.84515  0.33290  0.34862  1.0000
  C   C1028     1.0  0.98251  0.55958  0.39195  1.0000
  C   C1029     1.0  0.51513  0.54546  0.20099  1.0000
  P   P33       1.0  0.58256  0.37838  0.46457  1.0000
  H   H815      1.0  0.55078  0.50946  0.31580  1.0000
  H   H816      1.0  0.93704  0.65163  0.45160  1.0000
  C   C1030     1.0  0.53994  0.42480  0.16467  1.0000
  C   C1031     1.0  0.50643  0.60820  0.09777  1.0000
  C   C1032     1.0  0.60570  0.38320  0.43818  1.0000
  H   H817      1.0  0.65324  0.35996  0.06650  1.0000
  H   H818      1.0  0.62241  0.37465  0.38114  1.0000
  C   C1033     1.0  0.49853  0.54032  0.16994  1.0000
  C   C1034     1.0  0.65319  0.36372  0.04827  1.0000
  C   C1035     1.0  0.68850  0.36110  0.08712  1.0000
  P   P34       1.0  0.88702  0.64444  0.47105  1.0000
  C   C1036     1.0  0.60469  0.37682  0.41731  1.0000
  C   C1037     1.0  0.54329  0.47940  0.30780  1.0000
  C   C1038     1.0  0.69560  0.35914  0.41070  1.0000
  H   H819      1.0  0.67219  0.33427  0.36821  1.0000
  H   H820      1.0  0.52174  0.41513  0.41932  1.0000
  H   H821      1.0  0.87048  0.36503  0.33348  1.0000
  C   C1039     1.0  0.64149  0.39064  0.39721  1.0000
  H   H822      1.0  0.51784  0.58277  0.25324  1.0000
  H   H823      1.0  0.56212  0.47224  0.30110  1.0000
  C   C1040     1.0  0.97396  0.51179  0.30372  1.0000
  C   C1041     1.0  0.50685  0.39363  0.45007  1.0000
  C   C1042     1.0  0.72382  0.34272  0.01903  1.0000
  H   H824      1.0  0.73959  0.39612  0.00966  1.0000
  C   C1043     1.0  0.70862  0.44937  0.99759  1.0000
  C   C1044     1.0  0.63395  0.35937  0.04138  1.0000
  H   H825      1.0  0.65845  0.49654  0.42171  1.0000
  C   C1045     1.0  0.68225  0.42594  0.02473  1.0000
  H   H826      1.0  0.85798  0.48183  0.45754  1.0000
  H   H827      1.0  0.51725  0.45329  0.36369  1.0000
  H   H828      1.0  0.50939  0.44000  0.27460  1.0000
  C   C1046     1.0  0.68915  0.38134  0.07150  1.0000
  H   H829      1.0  0.77204  0.35316  0.42235  1.0000
  H   H830      1.0  0.66474  0.63879  0.42090  1.0000
  H   H831      1.0  0.68978  0.61243  0.30001  1.0000
  H   H832      1.0  0.61948  0.35260  0.05428  1.0000
  C   C1047     1.0  0.78953  0.46110  0.43593  1.0000
  C   C1048     1.0  0.65110  0.37401  0.00157  1.0000
  P   P35       1.0  0.69597  0.38024  0.04050  1.0000
  H   H833      1.0  0.77719  0.33898  0.04675  1.0000
  C   C1049     1.0  0.74441  0.32588  0.01419  1.0000
  C   C1050     1.0  0.72237  0.35839  0.03389  1.0000
  C   C1051     1.0  0.55777  0.62143  0.02876  1.0000
  C   C1052     1.0  0.64281  0.39682  0.41786  1.0000
  C   C1053     1.0  0.97519  0.47225  0.31995  1.0000
  C   C1054     1.0  0.85968  0.64232  0.46381  1.0000
  C   C1055     1.0  0.49945  0.32720  0.45860  1.0000
  C   C1056     1.0  0.54139  0.32062  0.45959  1.0000
  H   H834      1.0  0.69122  0.34503  0.08078  1.0000
  C   C1057     1.0  0.83659  0.35011  0.31617  1.0000
  H   H835      1.0  0.67096  0.61269  0.06512  1.0000
  C   C1058     1.0  0.51270  0.50962  0.32455  1.0000
  S   S142      1.0  0.61669  0.32674  0.31424  1.0000
  C   C1059     1.0  0.51114  0.38851  0.30806  1.0000
  C   C1060     1.0  0.97741  0.55001  0.35022  1.0000
  H   H836      1.0  0.65710  0.60027  0.33277  1.0000
  C   C1061     1.0  0.51848  0.60045  0.11560  1.0000
  C   C1062     1.0  0.50500  0.52846  0.05895  1.0000
  C   C1063     1.0  0.53435  0.37442  0.47414  1.0000
  C   C1064     1.0  0.98850  0.57451  0.37130  1.0000
  C   C1065     1.0  0.51446  0.57630  0.99818  1.0000
  C   C1066     1.0  0.66974  0.33597  0.40415  1.0000
  H   H837      1.0  0.53110  0.45901  0.11458  1.0000
  C   C1067     1.0  0.74176  0.35692  0.04384  1.0000
  H   H838      1.0  0.71125  0.46556  0.98718  1.0000
  P   P36       1.0  0.50243  0.53695  0.13994  1.0000
  H   H839      1.0  0.61755  0.36184  0.01285  1.0000
  H   H840      1.0  0.55521  0.42375  0.47383  1.0000
  H   H841      1.0  0.68352  0.62972  0.45453  1.0000
  C   C1068     1.0  0.81798  0.63701  0.47543  1.0000
  C   C1069     1.0  0.85155  0.32791  0.28392  1.0000
  C   C1070     1.0  0.55086  0.60185  0.98110  1.0000
  C   C1071     1.0  0.60027  0.33199  0.46362  1.0000
  H   H842      1.0  0.54598  0.42555  0.98417  1.0000
  P   P37       1.0  0.52431  0.63978  0.00150  1.0000
  C   C1072     1.0  0.53663  0.56690  0.98464  1.0000
  H   H843      1.0  0.64976  0.37856  0.98362  1.0000
  C   C1073     1.0  0.50097  0.41207  0.20456  1.0000
  H   H844      1.0  0.50643  0.50514  0.23488  1.0000
  H   H845      1.0  0.80143  0.63712  0.44768  1.0000
  C   C1074     1.0  0.81757  0.63882  0.45210  1.0000
  H   H846      1.0  0.87447  0.64793  0.42656  1.0000
  S   S143      1.0  0.49786  0.55780  0.05327  1.0000
  C   C1075     1.0  0.98547  0.56973  0.35063  1.0000
  H   H847      1.0  0.84002  0.44905  0.46871  1.0000
  H   H848      1.0  0.83758  0.64443  0.41647  1.0000
  H   H849      1.0  0.53971  0.54975  0.98059  1.0000
  H   H850      1.0  0.98990  0.58114  0.33466  1.0000
  H   H851      1.0  0.56971  0.63859  0.07421  1.0000
  C   C1076     1.0  0.56137  0.63893  0.06017  1.0000
  C   C1077     1.0  0.53954  0.63966  0.02390  1.0000
  H   H852      1.0  0.85339  0.32644  0.26586  1.0000
  C   C1078     1.0  0.52387  0.32515  0.44681  1.0000
  H   H853      1.0  0.99224  0.51900  0.43399  1.0000
  C   C1079     1.0  0.58871  0.34909  0.47765  1.0000
  S   S144      1.0  0.59630  0.39957  0.97900  1.0000
  H   H854      1.0  0.59094  0.50363  0.97871  1.0000
  H   H855      1.0  0.95341  0.40247  0.47788  1.0000
  Fe  Fe73      1.0  0.58751  0.57827  0.90759  1.0000
  S   S145      1.0  0.54959  0.57356  0.92431  1.0000
  S   S146      1.0  0.61553  0.57274  0.92837  1.0000
  Fe  Fe74      1.0  0.57882  0.58906  0.85805  1.0000
  S   S147      1.0  0.54039  0.58501  0.87110  1.0000
  S   S148      1.0  0.59659  0.59241  0.81945  1.0000
  Fe  Fe75      1.0  0.53920  0.60442  0.89972  1.0000
  H   H856      1.0  0.79624  0.44322  0.53920  1.0000
  Fe  Fe76      1.0  0.55458  0.55494  0.89435  1.0000
  S   S149      1.0  0.54806  0.51991  0.89892  1.0000
  S   S150      1.0  0.57706  0.61092  0.88487  1.0000
  S   S151      1.0  0.59322  0.55732  0.87934  1.0000
  Fe  Fe77      1.0  0.89688  0.55440  0.57255  1.0000
  S   S152      1.0  0.90919  0.57514  0.53818  1.0000
  S   S153      1.0  0.85992  0.54485  0.58590  1.0000
  Fe  Fe78      1.0  0.94674  0.54457  0.58287  1.0000
  S   S154      1.0  0.96342  0.56444  0.54941  1.0000
  S   S155      1.0  0.96633  0.52518  0.61008  1.0000
  Fe  Fe79      1.0  0.92920  0.59017  0.55646  1.0000
  C   C1080     1.0  0.62658  0.61511  0.72584  1.0000
  Fe  Fe80      1.0  0.94222  0.54797  0.53386  1.0000
  C   C1081     1.0  0.58076  0.34296  0.50180  1.0000
  S   S156      1.0  0.91386  0.57184  0.59171  1.0000
  S   S157      1.0  0.92853  0.52576  0.56664  1.0000
  Fe  Fe81      1.0  0.54483  0.59956  0.71391  1.0000
  S   S158      1.0  0.52078  0.58844  0.69647  1.0000
  S   S159      1.0  0.53047  0.61506  0.74742  1.0000
  Fe  Fe82      1.0  0.59016  0.58414  0.67776  1.0000
  S   S160      1.0  0.57035  0.57149  0.65738  1.0000
  S   S161      1.0  0.63015  0.58416  0.66790  1.0000
  Fe  Fe83      1.0  0.54336  0.60380  0.66313  1.0000
  Fe  Fe84      1.0  0.54941  0.55716  0.69201  1.0000
  S   S162      1.0  0.54312  0.52094  0.69985  1.0000
  S   S163      1.0  0.56482  0.61768  0.68089  1.0000
  S   S164      1.0  0.57167  0.56708  0.71210  1.0000
  H   H857      1.0  0.75037  0.64406  0.54186  1.0000
  C   C1082     1.0  0.87553  0.63219  0.51927  1.0000
  Fe  Fe85      1.0  0.74985  0.58280  0.52882  1.0000
  S   S165      1.0  0.74363  0.54762  0.53003  1.0000
  S   S166      1.0  0.78194  0.59662  0.53010  1.0000
  Fe  Fe86      1.0  0.70550  0.56093  0.54841  1.0000
  S   S167      1.0  0.68589  0.53819  0.57778  1.0000
  S   S168      1.0  0.71282  0.59489  0.55016  1.0000
  C   C1083     1.0  0.64600  0.57043  0.64357  1.0000
  C   C1084     1.0  0.66736  0.57703  0.62981  1.0000
  C   C1085     1.0  0.67990  0.56705  0.60972  1.0000
  C   C1086     1.0  0.67118  0.55023  0.60344  1.0000
  C   C1087     1.0  0.65017  0.54315  0.61759  1.0000
  C   C1088     1.0  0.63744  0.55340  0.63750  1.0000
  H   H858      1.0  0.67347  0.59066  0.63414  1.0000
  H   H859      1.0  0.69600  0.57267  0.59887  1.0000
  H   H860      1.0  0.64338  0.53012  0.61281  1.0000
  H   H861      1.0  0.62103  0.54813  0.64809  1.0000
  C   C1089     1.0  0.54712  0.50883  0.78406  1.0000
  C   C1090     1.0  0.96744  0.41319  0.50259  1.0000
  C   C1091     1.0  0.52072  0.51445  0.68895  1.0000
  C   C1092     1.0  0.61521  0.45850  0.72889  1.0000
  C   C1093     1.0  0.56361  0.39463  0.92969  1.0000
  H   H862      1.0  0.98738  0.48628  0.63685  1.0000
  C   C1094     1.0  0.54357  0.63602  0.54627  1.0000
  C   C1095     1.0  0.83806  0.55914  0.57059  1.0000
  C   C1096     1.0  0.83930  0.58093  0.55862  1.0000
  C   C1097     1.0  0.82133  0.59257  0.54717  1.0000
  C   C1098     1.0  0.80255  0.58213  0.54678  1.0000
  C   C1099     1.0  0.80123  0.56032  0.55875  1.0000
  C   C1100     1.0  0.81876  0.54898  0.57099  1.0000
  H   H863      1.0  0.85396  0.58885  0.55853  1.0000
  H   H864      1.0  0.78706  0.55201  0.55819  1.0000
  H   H865      1.0  0.81775  0.53210  0.58028  1.0000
  H   H866      1.0  0.53583  0.38739  0.52939  1.0000
  C   C1101     1.0  0.55658  0.50387  0.82158  1.0000
  H   H867      1.0  0.98595  0.40682  0.49400  1.0000
  C   C1102     1.0  0.93843  0.52086  0.49359  1.0000
  S   S169      1.0  0.95680  0.53694  0.49880  1.0000
  C   C1103     1.0  0.56877  0.59850  0.54973  1.0000
  C   C1104     1.0  0.61000  0.42446  0.83980  1.0000
  C   C1105     1.0  0.55477  0.57975  0.97615  1.0000
  C   C1106     1.0  0.57741  0.59762  0.80020  1.0000
  C   C1107     1.0  0.58695  0.59220  0.77749  1.0000
  C   C1108     1.0  0.57257  0.59703  0.76139  1.0000
  C   C1109     1.0  0.54848  0.60766  0.76778  1.0000
  C   C1110     1.0  0.53874  0.61297  0.79054  1.0000
  C   C1111     1.0  0.55311  0.60781  0.80678  1.0000
  H   H868      1.0  0.60556  0.58448  0.77213  1.0000
  H   H869      1.0  0.58034  0.59312  0.74386  1.0000
  H   H870      1.0  0.52014  0.62137  0.79556  1.0000
  H   H871      1.0  0.54558  0.61242  0.82410  1.0000
  H   H872      1.0  0.69110  0.48677  0.48756  1.0000
  H   H873      1.0  0.50126  0.59949  0.94995  1.0000
  C   C1112     1.0  0.52724  0.51756  0.88422  1.0000
  C   C1113     1.0  0.52675  0.49609  0.87995  1.0000
  C   C1114     1.0  0.99187  0.48618  0.48183  1.0000
  H   H874      1.0  0.53965  0.48156  0.88482  1.0000
  C   C1115     1.0  0.64503  0.61806  0.75618  1.0000
  C   C1116     1.0  0.61683  0.54940  0.95072  1.0000
  H   H875      1.0  0.69790  0.61876  0.61771  1.0000
  H   H876      1.0  0.54568  0.50194  0.76935  1.0000
  C   C1117     1.0  0.55050  0.52741  0.82166  1.0000
  C   C1118     1.0  0.54301  0.54164  0.80290  1.0000
  C   C1119     1.0  0.54128  0.53235  0.78412  1.0000
  H   H877      1.0  0.61256  0.43792  0.80396  1.0000
  H   H878      1.0  0.62850  0.41548  0.83674  1.0000
  C   C1120     1.0  0.60313  0.51548  0.97424  1.0000
  H   H879      1.0  0.76878  0.61986  0.57232  1.0000
  H   H880      1.0  0.53537  0.54340  0.76961  1.0000
  H   H881      1.0  0.61046  0.47673  0.78010  1.0000
  C   C1121     1.0  0.85104  0.41957  0.49164  1.0000
  C   C1122     1.0  0.59507  0.42259  0.86226  1.0000
  H   H882      1.0  0.54307  0.45448  0.85105  1.0000
  C   C1123     1.0  0.79803  0.58856  0.61723  1.0000
  H   H883      1.0  0.53431  0.51762  0.63247  1.0000
  C   C1124     1.0  0.75136  0.52481  0.61331  1.0000
  C   C1125     1.0  0.74616  0.54193  0.59546  1.0000
  C   C1126     1.0  0.74622  0.56451  0.59685  1.0000
  H   H884      1.0  0.75143  0.50733  0.61207  1.0000
  H   H885      1.0  0.74198  0.53772  0.58055  1.0000
  H   H886      1.0  0.74266  0.57742  0.58262  1.0000
  H   H887      1.0  0.90323  0.55788  0.48209  1.0000
  C   C1127     1.0  0.84352  0.50895  0.51224  1.0000
  C   C1128     1.0  0.63352  0.54712  0.96408  1.0000
  H   H888      1.0  0.82235  0.60954  0.53812  1.0000
  H   H889      1.0  0.57171  0.57285  0.96520  1.0000
  C   C1129     1.0  0.97846  0.63188  0.48802  1.0000
  C   C1130     1.0  0.83428  0.49238  0.50624  1.0000
  H   H890      1.0  0.63126  0.63135  0.54605  1.0000
  C   C1131     1.0  0.76836  0.47883  0.51640  1.0000
  C   C1132     1.0  0.76479  0.48686  0.53770  1.0000
  C   C1133     1.0  0.74184  0.49017  0.55277  1.0000
  C   C1134     1.0  0.72237  0.48519  0.54690  1.0000
  C   C1135     1.0  0.72588  0.47661  0.52609  1.0000
  C   C1136     1.0  0.74873  0.47359  0.51078  1.0000
  S   S170      1.0  0.73967  0.59527  0.49490  1.0000
  C   C1137     1.0  0.62209  0.64463  0.64742  1.0000
  H   H891      1.0  0.87029  0.57849  0.50988  1.0000
  C   C1138     1.0  0.96212  0.42478  0.52194  1.0000
  H   H892      1.0  0.86050  0.50447  0.51729  1.0000
  C   C1139     1.0  0.92508  0.42023  0.50300  1.0000
  H   H893      1.0  0.60188  0.41235  0.87669  1.0000
  H   H894      1.0  0.82290  0.40703  0.54858  1.0000
  H   H895      1.0  0.84453  0.47522  0.50681  1.0000
  H   H896      1.0  0.55925  0.43180  0.88344  1.0000
  H   H897      1.0  0.77960  0.49104  0.54249  1.0000
  H   H898      1.0  0.73895  0.49708  0.56880  1.0000
  H   H899      1.0  0.70450  0.48829  0.55839  1.0000
  H   H900      1.0  0.71078  0.47277  0.52152  1.0000
  H   H901      1.0  0.57366  0.52221  0.63655  1.0000
  H   H902      1.0  0.61474  0.62266  0.71430  1.0000
  H   H903      1.0  0.61259  0.40010  0.52479  1.0000
  C   C1140     1.0  0.72625  0.52179  0.70349  1.0000
  C   C1141     1.0  0.74102  0.53775  0.69979  1.0000
  C   C1142     1.0  0.73211  0.55795  0.70951  1.0000
  C   C1143     1.0  0.70842  0.56220  0.72298  1.0000
  C   C1144     1.0  0.69330  0.54645  0.72642  1.0000
  C   C1145     1.0  0.70256  0.52600  0.71693  1.0000
  P   P38       1.0  0.66307  0.55149  0.74473  1.0000
  C   C1146     1.0  0.66390  0.53949  0.77449  1.0000
  C   C1147     1.0  0.65136  0.58174  0.74234  1.0000
  C   C1148     1.0  0.63701  0.59208  0.72659  1.0000
  H   H904      1.0  0.95490  0.57366  0.61407  1.0000
  H   H905      1.0  0.51685  0.51411  0.95866  1.0000
  C   C1149     1.0  0.54874  0.55556  0.58391  1.0000
  C   C1150     1.0  0.65568  0.59505  0.75681  1.0000
  C   C1151     1.0  0.64678  0.54878  0.79324  1.0000
  C   C1152     1.0  0.64742  0.53964  0.81619  1.0000
  C   C1153     1.0  0.66498  0.52085  0.82071  1.0000
  C   C1154     1.0  0.68191  0.51119  0.80221  1.0000
  C   C1155     1.0  0.68140  0.52045  0.77919  1.0000
  C   C1156     1.0  0.64309  0.53862  0.73538  1.0000
  C   C1157     1.0  0.62249  0.53238  0.75137  1.0000
  C   C1158     1.0  0.60634  0.52350  0.74397  1.0000
  C   C1159     1.0  0.61061  0.52067  0.72063  1.0000
  C   C1160     1.0  0.63075  0.52733  0.70451  1.0000
  C   C1161     1.0  0.64681  0.53648  0.71176  1.0000
  H   H906      1.0  0.73323  0.50603  0.69612  1.0000
  H   H907      1.0  0.75947  0.53435  0.68961  1.0000
  H   H908      1.0  0.74360  0.57029  0.70675  1.0000
  H   H909      1.0  0.70201  0.57778  0.73065  1.0000
  H   H910      1.0  0.69155  0.51321  0.72002  1.0000
  H   H911      1.0  0.63305  0.58236  0.71536  1.0000
  H   H912      1.0  0.66845  0.48550  0.95367  1.0000
  C   C1162     1.0  0.62291  0.64444  0.49293  1.0000
  H   H913      1.0  0.55127  0.53467  0.83646  1.0000
  H   H914      1.0  0.66654  0.58755  0.76921  1.0000
  H   H915      1.0  0.63288  0.56317  0.79032  1.0000
  H   H916      1.0  0.63412  0.54721  0.83044  1.0000
  H   H917      1.0  0.66528  0.51373  0.83855  1.0000
  H   H918      1.0  0.69549  0.49658  0.80574  1.0000
  H   H919      1.0  0.69470  0.51271  0.76518  1.0000
  H   H920      1.0  0.61836  0.53504  0.76940  1.0000
  H   H921      1.0  0.59014  0.51937  0.75620  1.0000
  H   H922      1.0  0.59769  0.51429  0.71488  1.0000
  C   C1163     1.0  0.54464  0.52880  0.61943  1.0000
  H   H923      1.0  0.66155  0.54266  0.69873  1.0000
  C   C1164     1.0  0.60541  0.50648  0.84362  1.0000
  C   C1165     1.0  0.61863  0.49400  0.82559  1.0000
  C   C1166     1.0  0.63403  0.47350  0.83039  1.0000
  C   C1167     1.0  0.63618  0.46548  0.85325  1.0000
  C   C1168     1.0  0.62300  0.47807  0.87142  1.0000
  C   C1169     1.0  0.60745  0.49843  0.86639  1.0000
  P   P39       1.0  0.62525  0.46867  0.90119  1.0000
  C   C1170     1.0  0.59489  0.47025  0.91900  1.0000
  C   C1171     1.0  0.64184  0.43998  0.90501  1.0000
  C   C1172     1.0  0.63091  0.42268  0.91998  1.0000
  C   C1173     1.0  0.64450  0.40097  0.92405  1.0000
  C   C1174     1.0  0.66901  0.39629  0.91316  1.0000
  C   C1175     1.0  0.68008  0.41344  0.89838  1.0000
  C   C1176     1.0  0.66661  0.43527  0.89451  1.0000
  C   C1177     1.0  0.58784  0.47958  0.93990  1.0000
  C   C1178     1.0  0.56424  0.48057  0.95351  1.0000
  C   C1179     1.0  0.54768  0.47196  0.94648  1.0000
  C   C1180     1.0  0.55453  0.46285  0.92559  1.0000
  C   C1181     1.0  0.57804  0.46200  0.91189  1.0000
  C   C1182     1.0  0.64098  0.48617  0.91041  1.0000
  C   C1183     1.0  0.64374  0.50788  0.89847  1.0000
  C   C1184     1.0  0.65578  0.52115  0.90611  1.0000
  C   C1185     1.0  0.66519  0.51287  0.92565  1.0000
  C   C1186     1.0  0.66223  0.49144  0.93784  1.0000
  C   C1187     1.0  0.65020  0.47812  0.93026  1.0000
  H   H924      1.0  0.59352  0.52246  0.84010  1.0000
  H   H925      1.0  0.61694  0.50035  0.80797  1.0000
  H   H926      1.0  0.64416  0.46374  0.81645  1.0000
  H   H927      1.0  0.64779  0.44939  0.85664  1.0000
  H   H928      1.0  0.59695  0.50817  0.88023  1.0000
  H   H929      1.0  0.61206  0.42592  0.92909  1.0000
  H   H930      1.0  0.63600  0.38790  0.93608  1.0000
  H   H931      1.0  0.67942  0.37943  0.91646  1.0000
  H   H932      1.0  0.69917  0.40991  0.89023  1.0000
  H   H933      1.0  0.67551  0.44861  0.88356  1.0000
  H   H934      1.0  0.60044  0.48612  0.94566  1.0000
  H   H935      1.0  0.57337  0.57950  0.52137  1.0000
  H   H936      1.0  0.52952  0.47228  0.95720  1.0000
  H   H937      1.0  0.54151  0.45649  0.92004  1.0000
  H   H938      1.0  0.58305  0.45504  0.89573  1.0000
  H   H939      1.0  0.63624  0.51494  0.88362  1.0000
  H   H940      1.0  0.65696  0.53828  0.89746  1.0000
  C   C1188     1.0  0.51647  0.47974  0.74968  1.0000
  H   H941      1.0  0.49728  0.37096  0.48174  1.0000
  H   H942      1.0  0.64747  0.46180  0.94030  1.0000
  H   H943      1.0  0.58828  0.44438  0.72120  1.0000
  H   H944      1.0  0.74369  0.63150  0.65266  1.0000
  H   H945      1.0  0.62709  0.45773  0.71165  1.0000
  H   H946      1.0  0.80221  0.63375  0.48910  1.0000
  C   C1189     1.0  0.96751  0.58404  0.60309  1.0000
  H   H947      1.0  0.63819  0.47374  0.74123  1.0000
  C   C1190     1.0  0.62148  0.46745  0.74558  1.0000
  C   C1191     1.0  0.60578  0.46906  0.76758  1.0000
  H   H948      1.0  0.78229  0.52524  0.49500  1.0000
  H   H949      1.0  0.53839  0.55988  0.80303  1.0000
  C   C1192     1.0  0.81129  0.43671  0.52571  1.0000
  C   C1193     1.0  0.50856  0.45915  0.75325  1.0000
  H   H950      1.0  0.58851  0.53515  0.94565  1.0000
  C   C1194     1.0  0.57103  0.43359  0.86614  1.0000
  C   C1195     1.0  0.58401  0.46110  0.77330  1.0000
  C   C1196     1.0  0.69231  0.59695  0.67764  1.0000
  C   C1197     1.0  0.60218  0.60940  0.61152  1.0000
  C   C1198     1.0  0.62681  0.60948  0.60345  1.0000
  C   C1199     1.0  0.64000  0.59940  0.58375  1.0000
  C   C1200     1.0  0.62861  0.58929  0.57200  1.0000
  C   C1201     1.0  0.60371  0.58955  0.57969  1.0000
  C   C1202     1.0  0.59072  0.59931  0.59980  1.0000
  P   P40       1.0  0.58845  0.57691  0.56455  1.0000
  C   C1203     1.0  0.61096  0.56125  0.54322  1.0000
  C   C1204     1.0  0.57127  0.55801  0.58590  1.0000
  C   C1205     1.0  0.83890  0.63877  0.48129  1.0000
  C   C1206     1.0  0.86717  0.57563  0.49386  1.0000
  C   C1207     1.0  0.73899  0.63921  0.55877  1.0000
  C   C1208     1.0  0.50676  0.53115  0.67630  1.0000
  C   C1209     1.0  0.58029  0.54573  0.60488  1.0000
  C   C1210     1.0  0.62221  0.57297  0.52210  1.0000
  C   C1211     1.0  0.64002  0.56117  0.50566  1.0000
  C   C1212     1.0  0.64704  0.53765  0.51032  1.0000
  H   H951      1.0  0.93980  0.61235  0.59593  1.0000
  H   H952      1.0  0.71366  0.63981  0.68903  1.0000
  H   H953      1.0  0.52261  0.40065  0.80749  1.0000
  H   H954      1.0  0.67387  0.52350  0.93190  1.0000
  H   H955      1.0  0.75077  0.46761  0.49444  1.0000
  C   C1213     1.0  0.98644  0.42187  0.57879  1.0000
  C   C1214     1.0  0.56769  0.41831  0.48496  1.0000
  H   H956      1.0  0.95751  0.47058  0.55227  1.0000
  H   H957      1.0  0.52817  0.47884  0.70200  1.0000
  H   H958      1.0  0.63586  0.61682  0.61275  1.0000
  H   H959      1.0  0.65915  0.59925  0.57763  1.0000
  H   H960      1.0  0.63949  0.58126  0.55708  1.0000
  H   H961      1.0  0.57174  0.59885  0.60664  1.0000
  H   H962      1.0  0.93351  0.44367  0.54616  1.0000
  C   C1215     1.0  0.94898  0.41084  0.49325  1.0000
  C   C1216     1.0  0.91962  0.43171  0.52230  1.0000
  C   C1217     1.0  0.54120  0.63304  0.52470  1.0000
  H   H963      1.0  0.59751  0.54753  0.60695  1.0000
  H   H964      1.0  0.53124  0.64671  0.51477  1.0000
  C   C1218     1.0  0.61826  0.53763  0.54785  1.0000
  H   H965      1.0  0.96849  0.63545  0.56966  1.0000
  H   H966      1.0  0.65381  0.61868  0.49816  1.0000
  P   P41       1.0  0.56359  0.46421  0.80150  1.0000
  C   C1219     1.0  0.55706  0.61878  0.55889  1.0000
  C   C1220     1.0  0.84633  0.40767  0.51412  1.0000
  C   C1221     1.0  0.55504  0.49442  0.80269  1.0000
  C   C1222     1.0  0.60160  0.53346  0.95577  1.0000
  C   C1223     1.0  0.60089  0.43748  0.82124  1.0000
  C   C1224     1.0  0.58454  0.42627  0.51438  1.0000
  C   C1225     1.0  0.72962  0.62158  0.65948  1.0000
  H   H967      1.0  0.56224  0.49324  0.83636  1.0000
  C   C1226     1.0  0.57389  0.40314  0.96319  1.0000
  H   H968      1.0  0.56090  0.44652  0.75997  1.0000
  C   C1227     1.0  0.75654  0.53026  0.63265  1.0000
  C   C1228     1.0  0.52031  0.41867  0.80804  1.0000
  H   H969      1.0  0.95631  0.58637  0.48809  1.0000
  C   C1229     1.0  0.95900  0.60583  0.59294  1.0000
  H   H970      1.0  0.92359  0.61924  0.49623  1.0000
  C   C1230     1.0  0.56193  0.44667  0.84773  1.0000
  H   H971      1.0  0.76083  0.51694  0.64635  1.0000
  C   C1231     1.0  0.50908  0.49321  0.87001  1.0000
  C   C1232     1.0  0.57680  0.44900  0.82516  1.0000
  C   C1233     1.0  0.59996  0.40514  0.51375  1.0000
  C   C1234     1.0  0.75071  0.57021  0.61649  1.0000
  C   C1235     1.0  0.63625  0.52591  0.53143  1.0000
  C   C1236     1.0  0.59929  0.39056  0.49875  1.0000
  C   C1237     1.0  0.51731  0.39151  0.52793  1.0000
  H   H972      1.0  0.91087  0.41930  0.49513  1.0000
  C   C1238     1.0  0.56850  0.43289  0.49992  1.0000
  H   H973      1.0  0.79683  0.57089  0.61903  1.0000
  S   S171      1.0  0.68614  0.64284  0.50904  1.0000
  H   H974      1.0  0.55821  0.41850  0.80013  1.0000
  C   C1239     1.0  0.97759  0.43693  0.56102  1.0000
  C   C1240     1.0  0.75608  0.55290  0.63431  1.0000
  C   C1241     1.0  0.72818  0.60433  0.64779  1.0000
  C   C1242     1.0  0.80899  0.53715  0.50539  1.0000
  C   C1243     1.0  0.51711  0.49197  0.69275  1.0000
  H   H975      1.0  0.90118  0.43963  0.52930  1.0000
  C   C1244     1.0  0.53733  0.45215  0.80498  1.0000
  P   P42       1.0  0.98648  0.43049  0.53147  1.0000
  C   C1245     1.0  0.59336  0.45094  0.73428  1.0000
  C   C1246     1.0  0.57784  0.45216  0.75640  1.0000
  H   H976      1.0  0.92628  0.50730  0.52950  1.0000
  C   C1247     1.0  0.96367  0.45825  0.56592  1.0000
  S   S172      1.0  0.52257  0.41192  0.91507  1.0000
  H   H977      1.0  0.61039  0.52824  0.56420  1.0000
  H   H978      1.0  0.50792  0.47639  0.86798  1.0000
  C   C1248     1.0  0.50318  0.37474  0.53455  1.0000
  S   S173      1.0  0.50891  0.63402  0.90875  1.0000
  C   C1249     1.0  0.69932  0.63838  0.58414  1.0000
  P   P43       1.0  0.74834  0.59951  0.61975  1.0000
  H   H979      1.0  0.75984  0.55700  0.64948  1.0000
  C   C1250     1.0  0.50739  0.41363  0.51978  1.0000
  C   C1251     1.0  0.99033  0.50276  0.60158  1.0000
  C   C1252     1.0  0.56695  0.53125  0.62161  1.0000
  C   C1253     1.0  0.74938  0.62537  0.57611  1.0000
  H   H980      1.0  0.53743  0.36280  0.48943  1.0000
  H   H981      1.0  0.85821  0.39192  0.51837  1.0000
  C   C1254     1.0  0.82644  0.41620  0.53112  1.0000
  C   C1255     1.0  0.82067  0.59385  0.61447  1.0000
  P   P44       1.0  0.79775  0.47612  0.49631  1.0000
  C   C1256     1.0  0.95843  0.46423  0.58827  1.0000
  H   H982      1.0  0.83630  0.58034  0.61456  1.0000
  C   C1257     1.0  0.51016  0.32034  0.49580  1.0000
  C   C1258     1.0  0.77772  0.60594  0.61689  1.0000
  C   C1259     1.0  0.82340  0.61646  0.61086  1.0000
  C   C1260     1.0  0.53427  0.41933  0.95508  1.0000
  H   H983      1.0  0.56877  0.38595  0.91451  1.0000
  C   C1261     1.0  0.54087  0.40853  0.93502  1.0000
  H   H984      1.0  0.83870  0.63703  0.49951  1.0000
  C   C1262     1.0  0.79960  0.52060  0.49944  1.0000
  H   H985      1.0  0.90157  0.48340  0.52150  1.0000
  C   C1263     1.0  0.62004  0.64615  0.55337  1.0000
  H   H986      1.0  0.79909  0.55446  0.50542  1.0000
  C   C1264     1.0  0.57981  0.39180  0.94371  1.0000
  C   C1265     1.0  0.51067  0.53644  0.87753  1.0000
  C   C1266     1.0  0.78065  0.62867  0.61321  1.0000
  H   H987      1.0  0.63338  0.52628  0.68620  1.0000
  C   C1267     1.0  0.63036  0.62805  0.74081  1.0000
  H   H988      1.0  0.59712  0.38076  0.93927  1.0000
  C   C1268     1.0  0.92501  0.50783  0.51195  1.0000
  C   C1269     1.0  0.58296  0.39695  0.48441  1.0000
  C   C1270     1.0  0.98609  0.46568  0.49426  1.0000
  C   C1271     1.0  0.73481  0.61805  0.59770  1.0000
  C   C1272     1.0  0.87069  0.63611  0.54235  1.0000
  C   C1273     1.0  0.91096  0.49435  0.50742  1.0000
  H   H989      1.0  0.97394  0.45813  0.48879  1.0000
  H   H990      1.0  0.84112  0.62038  0.60830  1.0000
  C   C1274     1.0  0.51395  0.46495  0.81112  1.0000
  H   H991      1.0  0.64206  0.50773  0.53521  1.0000
  S   S174      1.0  0.92789  0.62810  0.54960  1.0000
  H   H992      1.0  0.66111  0.52857  0.49772  1.0000
  H   H993      1.0  0.51043  0.55293  0.88160  1.0000
  H   H994      1.0  0.96856  0.60569  0.51631  1.0000
  C   C1275     1.0  0.54035  0.42887  0.80383  1.0000
  H   H995      1.0  0.96364  0.45408  0.62296  1.0000
  H   H996      1.0  0.76542  0.64239  0.61224  1.0000
  Fe  Fe87      1.0  0.72992  0.56127  0.49796  1.0000
  H   H997      1.0  0.51093  0.48267  0.81330  1.0000
  S   S175      1.0  0.69135  0.57281  0.51611  1.0000
  H   H998      1.0  0.83769  0.54367  0.51768  1.0000
  C   C1276     1.0  0.96471  0.62352  0.50973  1.0000
  H   H999      1.0  0.87619  0.61531  0.51574  1.0000
  C   C1277     1.0  0.56533  0.59525  0.52848  1.0000
  H   H1000     1.0  0.51667  0.42998  0.95949  1.0000
  H   H1001     1.0  0.57086  0.35564  0.51297  1.0000
  C   C1278     1.0  0.83076  0.53120  0.51214  1.0000
  H   H1002     1.0  0.64877  0.57034  0.48951  1.0000
  C   C1279     1.0  0.55091  0.41682  0.96904  1.0000
  C   C1280     1.0  0.53549  0.54099  0.60066  1.0000
  H   H1003     1.0  0.55864  0.62178  0.57545  1.0000
  C   C1281     1.0  0.69376  0.61425  0.68907  1.0000
  S   S176      1.0  0.52746  0.62141  0.63276  1.0000
  H   H1004     1.0  0.50945  0.54853  0.67314  1.0000
  H   H1005     1.0  0.58515  0.43756  0.52600  1.0000
  C   C1282     1.0  0.91019  0.49426  0.48452  1.0000
  C   C1283     1.0  0.98118  0.42796  0.60111  1.0000
  H   H1006     1.0  0.67764  0.58760  0.68437  1.0000
  C   C1284     1.0  0.70958  0.59183  0.65729  1.0000
  C   C1285     1.0  0.70965  0.62460  0.60154  1.0000
  C   C1286     1.0  0.93805  0.43401  0.53178  1.0000
  H   H1007     1.0  0.70736  0.51813  0.49555  1.0000
  C   C1287     1.0  0.55179  0.61253  0.51595  1.0000
  H   H1008     1.0  0.54977  0.61019  0.49928  1.0000
  H   H1009     1.0  0.64790  0.63005  0.66794  1.0000
  C   C1288     1.0  0.50076  0.52346  0.95339  1.0000
  C   C1289     1.0  0.71397  0.64573  0.56276  1.0000
  H   H1010     1.0  0.64742  0.62796  0.76822  1.0000
  H   H1011     1.0  0.70799  0.57842  0.64868  1.0000
  H   H1012     1.0  0.83018  0.59266  0.50099  1.0000
  H   H1013     1.0  0.64520  0.55939  0.96042  1.0000
  H   H1014     1.0  0.94837  0.48094  0.59180  1.0000
  H   H1015     1.0  0.53520  0.48066  0.74177  1.0000
  H   H1016     1.0  0.61746  0.59130  0.51851  1.0000
  C   C1290     1.0  0.64593  0.63656  0.49736  1.0000
  H   H1017     1.0  0.59193  0.61683  0.62705  1.0000
  Fe  Fe88      1.0  0.70235  0.60575  0.51613  1.0000
  C   C1291     1.0  0.96712  0.44908  0.60587  1.0000
  H   H1018     1.0  0.61172  0.37443  0.49814  1.0000
  C   C1292     1.0  0.97522  0.61889  0.57821  1.0000
  C   C1293     1.0  0.71298  0.51277  0.47846  1.0000
  H   H1019     1.0  0.54124  0.56505  0.56965  1.0000
  C   C1294     1.0  0.83588  0.43999  0.48616  1.0000
  H   H1020     1.0  0.55873  0.48798  0.96952  1.0000
  H   H1021     1.0  0.98780  0.38175  0.54233  1.0000
  C   C1295     1.0  0.71253  0.62642  0.68011  1.0000
  C   C1296     1.0  0.92513  0.61083  0.48150  1.0000
  C   C1297     1.0  0.84460  0.58347  0.48895  1.0000
  C   C1298     1.0  0.81200  0.49799  0.50013  1.0000
  H   H1022     1.0  0.49691  0.46882  0.68740  1.0000
  H   H1023     1.0  0.51814  0.42675  0.51512  1.0000
  H   H1024     1.0  0.86824  0.62226  0.55642  1.0000
  H   H1025     1.0  0.51069  0.35757  0.54114  1.0000
  H   H1026     1.0  0.61302  0.63260  0.49036  1.0000
  C   C1299     1.0  0.94609  0.63817  0.52270  1.0000
  C   C1300     1.0  0.99222  0.57517  0.59841  1.0000
  C   C1301     1.0  0.81590  0.44874  0.50315  1.0000
  H   H1027     1.0  0.52422  0.63991  0.95302  1.0000
  C   C1302     1.0  0.58521  0.32021  0.51173  1.0000
  H   H1028     1.0  0.68032  0.61823  0.70484  1.0000
  C   C1303     1.0  0.80340  0.63388  0.61020  1.0000
  H   H1029     1.0  0.98876  0.41665  0.61452  1.0000
  H   H1030     1.0  0.50639  0.51549  0.75111  1.0000
  H   H1031     1.0  0.86660  0.41314  0.47846  1.0000
  H   H1032     1.0  0.55671  0.44937  0.50031  1.0000
  H   H1033     1.0  0.52121  0.44384  0.74865  1.0000
  H   H1034     1.0  0.56514  0.61157  0.97392  1.0000
  H   H1035     1.0  0.51794  0.53935  0.59936  1.0000
  H   H1036     1.0  0.99285  0.62035  0.47832  1.0000
  H   H1037     1.0  0.67993  0.64275  0.58694  1.0000
  H   H1038     1.0  0.62142  0.64566  0.74092  1.0000
  H   H1039     1.0  0.64653  0.65108  0.56924  1.0000
  C   C1304     1.0  0.49947  0.48621  0.68435  1.0000
  H   H1040     1.0  0.59075  0.64553  0.53874  1.0000
  H   H1041     1.0  0.60935  0.63396  0.65737  1.0000
  H   H1042     1.0  0.49992  0.49853  0.93285  1.0000
  C   C1305     1.0  0.88023  0.64977  0.50089  1.0000
  C   C1306     1.0  0.64392  0.64243  0.65338  1.0000
  H   H1043     1.0  0.49726  0.55133  0.97184  1.0000
  C   C1307     1.0  0.49997  0.49961  0.75498  1.0000
  C   C1308     1.0  0.52951  0.64976  0.62069  1.0000
  H   H1044     1.0  0.49872  0.59031  0.78784  1.0000
  C   C1309     1.0  0.49716  0.43154  0.81384  1.0000
  H   H1045     1.0  0.49991  0.58669  0.74732  1.0000
  H   H1046     1.0  0.51140  0.64897  0.59439  1.0000
  H   H1047     1.0  0.53534  0.65196  0.55299  1.0000
  H   H1048     1.0  0.80560  0.65142  0.60712  1.0000
  C   C1310     1.0  0.65831  0.65186  0.50144  1.0000
  C   C1311     1.0  0.88568  0.56366  0.47827  1.0000
  S   S177      1.0  0.54934  0.91356  0.45652  1.0000
  H   H1049     1.0  0.63738  0.82354  0.45624  1.0000
  H   H1050     1.0  0.54135  0.72689  0.34032  1.0000
  C   C1312     1.0  0.55993  0.70165  0.43908  1.0000
  H   H1051     1.0  0.86530  0.68857  0.44944  1.0000
  C   C1313     1.0  0.62700  0.88140  0.45034  1.0000
  H   H1052     1.0  0.51050  0.83597  0.43509  1.0000
  C   C1314     1.0  0.73366  0.85850  0.42173  1.0000
  H   H1053     1.0  0.51858  0.82860  0.36383  1.0000
  C   C1315     1.0  0.52681  0.87457  0.28461  1.0000
  C   C1316     1.0  0.73020  0.86113  0.44501  1.0000
  C   C1317     1.0  0.50840  0.86939  0.32613  1.0000
  P   P45       1.0  0.52603  0.73781  0.38881  1.0000
  C   C1318     1.0  0.54837  0.68305  0.44719  1.0000
  H   H1054     1.0  0.52411  0.80470  0.47477  1.0000
  H   H1055     1.0  0.74471  0.86462  0.45090  1.0000
  H   H1056     1.0  0.55118  0.67742  0.99104  1.0000
  C   C1319     1.0  0.53504  0.71594  0.41126  1.0000
  P   P46       1.0  0.56385  0.97446  0.40356  1.0000
  C   C1320     1.0  0.50715  0.87038  0.30303  1.0000
  C   C1321     1.0  0.53261  0.65768  0.03720  1.0000
  C   C1322     1.0  0.57169  0.77896  0.34711  1.0000
  C   C1323     1.0  0.55085  0.95287  0.39725  1.0000
  H   H1057     1.0  0.56521  0.89811  0.38586  1.0000
  H   H1058     1.0  0.53792  0.67121  0.06553  1.0000
  H   H1059     1.0  0.53008  0.87420  0.34807  1.0000
  H   H1060     1.0  0.51540  0.97381  0.39970  1.0000
  H   H1061     1.0  0.56203  0.73265  0.41568  1.0000
  C   C1324     1.0  0.89458  0.70502  0.42948  1.0000
  C   C1325     1.0  0.89981  0.66744  0.45191  1.0000
  H   H1062     1.0  0.88289  0.72014  0.42350  1.0000
  C   C1326     1.0  0.63719  0.85890  0.45745  1.0000
  C   C1327     1.0  0.52915  0.87370  0.33050  1.0000
  C   C1328     1.0  0.61335  0.95752  0.39352  1.0000
  C   C1329     1.0  0.52767  0.97614  0.44478  1.0000
  C   C1330     1.0  0.55239  0.74807  0.37037  1.0000
  H   H1063     1.0  0.53452  0.78326  0.36558  1.0000
  C   C1331     1.0  0.55449  0.91477  0.38847  1.0000
  C   C1332     1.0  0.52337  0.69727  0.41969  1.0000
  C   C1333     1.0  0.52655  0.95745  0.39644  1.0000
  H   H1064     1.0  0.54087  0.84006  0.46080  1.0000
  H   H1065     1.0  0.52212  0.90660  0.38448  1.0000
  H   H1066     1.0  0.52075  0.71277  0.31692  1.0000
  C   C1334     1.0  0.50519  0.76115  0.40196  1.0000
  H   H1067     1.0  0.65185  0.94609  0.38557  1.0000
  C   C1335     1.0  0.51676  0.83039  0.39952  1.0000
  H   H1068     1.0  0.57716  0.95813  0.44833  1.0000
  C   C1336     1.0  0.63650  0.94303  0.42255  1.0000
  C   C1337     1.0  0.51190  0.72668  0.37133  1.0000
  C   C1338     1.0  0.52352  0.72322  0.34821  1.0000
  C   C1339     1.0  0.69270  0.85227  0.42980  1.0000
  C   C1340     1.0  0.71493  0.85402  0.41415  1.0000
  H   H1069     1.0  0.63263  0.89550  0.45440  1.0000
  C   C1341     1.0  0.55323  0.71809  0.42130  1.0000
  H   H1070     1.0  0.50878  0.69532  0.41299  1.0000
  C   C1342     1.0  0.54347  0.65729  0.05527  1.0000
  H   H1071     1.0  0.51867  0.67198  0.03369  1.0000
  C   C1343     1.0  0.60880  0.88602  0.43837  1.0000
  C   C1344     1.0  0.60071  0.86824  0.43321  1.0000
  C   C1345     1.0  0.61137  0.84578  0.43942  1.0000
  C   C1346     1.0  0.62962  0.84109  0.45140  1.0000
  C   C1347     1.0  0.56478  0.93137  0.39319  1.0000
  C   C1348     1.0  0.59326  0.95548  0.43448  1.0000
  H   H1072     1.0  0.60930  0.76973  0.33029  1.0000
  H   H1073     1.0  0.65364  0.93657  0.42708  1.0000
  H   H1074     1.0  0.95404  0.68312  0.42571  1.0000
  H   H1075     1.0  0.57070  0.79682  0.34034  1.0000
  C   C1349     1.0  0.59211  0.96146  0.41113  1.0000
  C   C1350     1.0  0.61539  0.94635  0.44012  1.0000
  H   H1076     1.0  0.58341  0.92715  0.39414  1.0000
  H   H1077     1.0  0.52573  0.87530  0.26681  1.0000
  H   H1078     1.0  0.67843  0.84877  0.42360  1.0000
  H   H1079     1.0  0.71762  0.85197  0.39609  1.0000
  C   C1351     1.0  0.54876  0.87794  0.31203  1.0000
  H   H1080     1.0  0.55332  0.67052  0.46125  1.0000
  H   H1081     1.0  0.52637  0.95924  0.44312  1.0000
  C   C1352     1.0  0.93466  0.68420  0.43069  1.0000
  H   H1082     1.0  0.60038  0.90345  0.43375  1.0000
  H   H1083     1.0  0.58587  0.87197  0.42483  1.0000
  H   H1084     1.0  0.60490  0.83192  0.43574  1.0000
  H   H1085     1.0  0.61622  0.94241  0.45818  1.0000
  C   C1353     1.0  0.55121  0.77120  0.36149  1.0000
  C   C1354     1.0  0.50634  0.76620  0.42335  1.0000
  C   C1355     1.0  0.53027  0.91952  0.38770  1.0000
  H   H1086     1.0  0.51886  0.75564  0.43300  1.0000
  H   H1087     1.0  0.75084  0.85995  0.40955  1.0000
  C   C1356     1.0  0.54764  0.87827  0.28911  1.0000
  C   C1357     1.0  0.68904  0.85508  0.45318  1.0000
  C   C1358     1.0  0.91957  0.70355  0.42274  1.0000
  C   C1359     1.0  0.51631  0.94082  0.39177  1.0000
  H   H1088     1.0  0.61285  0.96187  0.37536  1.0000
  H   H1089     1.0  0.56274  0.88180  0.27479  1.0000
  H   H1090     1.0  0.57382  0.70348  0.44693  1.0000
  H   H1091     1.0  0.92731  0.71745  0.41155  1.0000
  C   C1360     1.0  0.51195  0.71516  0.33483  1.0000
  H   H1092     1.0  0.56469  0.88136  0.31547  1.0000
  C   C1361     1.0  0.50964  0.83765  0.37858  1.0000
  C   C1362     1.0  0.63547  0.94845  0.39923  1.0000
  S   S178      1.0  0.99006  0.66566  0.45140  1.0000
  C   C1363     1.0  0.59344  0.76370  0.34143  1.0000
  H   H1093     1.0  0.51772  0.90017  0.43446  1.0000
  C   C1364     1.0  0.53013  0.68086  0.43748  1.0000
  C   C1365     1.0  0.57425  0.73282  0.36442  1.0000
  C   C1366     1.0  0.88470  0.68706  0.44407  1.0000
  C   C1367     1.0  0.50697  0.90821  0.44940  1.0000
  H   H1094     1.0  0.61153  0.72879  0.34560  1.0000
  H   H1095     1.0  0.49742  0.94446  0.39159  1.0000
  H   H1096     1.0  0.57543  0.71487  0.37086  1.0000
  C   C1368     1.0  0.59470  0.74064  0.35005  1.0000
  H   H1097     1.0  0.53101  0.81576  0.40096  1.0000
  H   H1098     1.0  0.52081  0.66669  0.44410  1.0000
  C   C1369     1.0  0.70801  0.85938  0.46072  1.0000
  C   C1370     1.0  0.51808  0.91656  0.46290  1.0000
  H   H1099     1.0  0.65501  0.97967  0.46081  1.0000
  H   H1100     1.0  0.66985  0.89940  0.46620  1.0000
  C   C1371     1.0  0.92488  0.66624  0.44533  1.0000
  C   C1372     1.0  0.52646  0.83903  0.47642  1.0000
  H   H1101     1.0  0.50125  0.82598  0.32420  1.0000
  C   C1373     1.0  0.50513  0.84169  0.41882  1.0000
  P   P47       1.0  0.66033  0.85310  0.47347  1.0000
  H   H1102     1.0  0.50208  0.97622  0.47809  1.0000
  C   C1374     1.0  0.68520  0.70508  0.53667  1.0000
  Fe  Fe89      1.0  0.57236  0.89986  0.53169  1.0000
  S   S179      1.0  0.53627  0.90893  0.52370  1.0000
  S   S180      1.0  0.58030  0.86400  0.54987  1.0000
  C   C1375     1.0  0.68176  0.72877  0.56577  1.0000
  Fe  Fe90      1.0  0.53420  0.94339  0.53282  1.0000
  C   C1376     1.0  0.50720  0.84141  0.56308  1.0000
  S   S181      1.0  0.56896  0.93327  0.54425  1.0000
  S   S182      1.0  0.53318  0.72334  0.58743  1.0000
  Fe  Fe91      1.0  0.56290  0.70994  0.50364  1.0000
  S   S183      1.0  0.52595  0.71015  0.52756  1.0000
  C   C1377     1.0  0.87504  0.67521  0.52913  1.0000
  Fe  Fe92      1.0  0.56131  0.75998  0.50518  1.0000
  H   H1103     1.0  0.59998  0.66130  0.62378  1.0000
  Fe  Fe93      1.0  0.53865  0.72973  0.54828  1.0000
  C   C1378     1.0  0.64031  0.87050  0.51587  1.0000
  H   H1104     1.0  0.70594  0.65561  0.54892  1.0000
  S   S184      1.0  0.57631  0.72770  0.52559  1.0000
  H   H1105     1.0  0.65841  0.92929  0.49162  1.0000
  C   C1379     1.0  0.59184  0.68551  0.57036  1.0000
  C   C1380     1.0  0.66145  0.72024  0.57950  1.0000
  S   S185      1.0  0.52498  0.76364  0.52977  1.0000
  C   C1381     1.0  0.51806  0.85723  0.48927  1.0000
  H   H1106     1.0  0.70199  0.77725  0.50298  1.0000
  C   C1382     1.0  0.65365  0.87433  0.49275  1.0000
  H   H1107     1.0  0.54884  0.69618  0.62716  1.0000
  C   C1383     1.0  0.61213  0.66749  0.49306  1.0000
  H   H1108     1.0  0.95144  0.68748  0.48557  1.0000
  C   C1384     1.0  0.68405  0.81040  0.49051  1.0000
  H   H1109     1.0  0.51969  0.83579  0.54744  1.0000
  H   H1110     1.0  0.57558  0.83912  0.47902  1.0000
  C   C1385     1.0  0.51624  0.84883  0.57892  1.0000
  C   C1386     1.0  0.53166  0.69502  0.60020  1.0000
  S   S186      1.0  0.58229  0.67668  0.49026  1.0000
  H   H1111     1.0  0.62463  0.78924  0.52311  1.0000
  H   H1112     1.0  0.57665  0.81652  0.56210  1.0000
  C   C1387     1.0  0.59108  0.71747  0.62271  1.0000
  H   H1113     1.0  0.60872  0.73622  0.56471  1.0000
  C   C1388     1.0  0.57692  0.84410  0.53382  1.0000
  C   C1389     1.0  0.57592  0.85046  0.51053  1.0000
  H   H1114     1.0  0.62316  0.82802  0.50200  1.0000
  C   C1390     1.0  0.57519  0.81152  0.50715  1.0000
  C   C1391     1.0  0.57471  0.80536  0.53082  1.0000
  C   C1392     1.0  0.57606  0.82152  0.54404  1.0000
  C   C1393     1.0  0.95524  0.66965  0.49226  1.0000
  C   C1394     1.0  0.53679  0.65669  0.97480  1.0000
  H   H1115     1.0  0.57438  0.78792  0.53858  1.0000
  C   C1395     1.0  0.56783  0.75450  0.61254  1.0000
  C   C1396     1.0  0.57291  0.73598  0.62918  1.0000
  C   C1397     1.0  0.66341  0.78076  0.51448  1.0000
  C   C1398     1.0  0.64047  0.81713  0.50208  1.0000
  S   S187      1.0  0.57786  0.79105  0.48908  1.0000
  C   C1399     1.0  0.64074  0.90864  0.52148  1.0000
  H   H1116     1.0  0.56233  0.73573  0.64701  1.0000
  C   C1400     1.0  0.59920  0.73616  0.58286  1.0000
  H   H1117     1.0  0.50797  0.86159  0.61164  1.0000
  H   H1118     1.0  0.62317  0.88464  0.54781  1.0000
  C   C1401     1.0  0.55814  0.68709  0.95405  1.0000
  C   C1402     1.0  0.66490  0.69656  0.55033  1.0000
  H   H1119     1.0  0.88403  0.68512  0.49228  1.0000
  C   C1403     1.0  0.54093  0.68581  0.61983  1.0000
  C   C1404     1.0  0.50027  0.85561  0.51004  1.0000
  H   H1120     1.0  0.63509  0.92214  0.53229  1.0000
  C   C1405     1.0  0.94163  0.66131  0.51401  1.0000
  H   H1121     1.0  0.56250  0.69311  0.91678  1.0000
  H   H1122     1.0  0.57669  0.76878  0.57650  1.0000
  C   C1406     1.0  0.59716  0.65411  0.54927  1.0000
  C   C1407     1.0  0.63404  0.88755  0.53018  1.0000
  H   H1123     1.0  0.58063  0.70077  0.57659  1.0000
  Fe  Fe94      1.0  0.51555  0.74390  0.50680  1.0000
  H   H1124     1.0  0.49555  0.71279  0.48414  1.0000
  C   C1408     1.0  0.51701  0.81916  0.48427  1.0000
  H   H1125     1.0  0.92742  0.67278  0.52401  1.0000
  H   H1126     1.0  0.54729  0.65612  0.64501  1.0000
  C   C1409     1.0  0.58105  0.75463  0.58943  1.0000
  H   H1127     1.0  0.66389  0.76369  0.52376  1.0000
  Fe  Fe95      1.0  0.58567  0.94559  0.50681  1.0000
  H   H1128     1.0  0.56755  0.70036  0.95416  1.0000
  H   H1129     1.0  0.87563  0.69165  0.53296  1.0000
  C   C1410     1.0  0.60427  0.71736  0.59943  1.0000
  H   H1130     1.0  0.59428  0.70322  0.63587  1.0000
  H   H1131     1.0  0.52605  0.87229  0.48364  1.0000
  C   C1411     1.0  0.65300  0.70386  0.57202  1.0000
  C   C1412     1.0  0.50084  0.85570  0.59953  1.0000
  H   H1132     1.0  0.53525  0.84937  0.57515  1.0000
  H   H1133     1.0  0.65231  0.72639  0.59598  1.0000
  C   C1413     1.0  0.57550  0.83415  0.49719  1.0000
  H   H1134     1.0  0.55332  0.76854  0.61743  1.0000
  H   H1135     1.0  0.56528  0.67997  0.55456  1.0000
  H   H1136     1.0  0.65866  0.68444  0.54364  1.0000
  C   C1414     1.0  0.58297  0.67367  0.55792  1.0000
  P   P48       1.0  0.62674  0.69308  0.59018  1.0000
  C   C1415     1.0  0.63355  0.67370  0.61515  1.0000
  C   C1416     1.0  0.68481  0.78841  0.50274  1.0000
  H   H1137     1.0  0.54070  0.66283  0.91651  1.0000
  H   H1138     1.0  0.51242  0.93448  0.49199  1.0000
  C   C1417     1.0  0.55530  0.68305  0.93298  1.0000
  C   C1418     1.0  0.49919  0.81747  0.50501  1.0000
  H   H1139     1.0  0.69426  0.69918  0.52003  1.0000
  C   C1419     1.0  0.66029  0.89564  0.48415  1.0000
  C   C1420     1.0  0.62875  0.65762  0.56626  1.0000
  C   C1421     1.0  0.54011  0.66312  0.62992  1.0000
  C   C1422     1.0  0.51999  0.65912  0.60130  1.0000
  C   C1423     1.0  0.52123  0.68158  0.59096  1.0000
  H   H1140     1.0  0.50758  0.98345  0.58880  1.0000
  C   C1424     1.0  0.65390  0.91266  0.49849  1.0000
  C   C1425     1.0  0.87992  0.67136  0.50601  1.0000
  C   C1426     1.0  0.61492  0.67774  0.57441  1.0000
  C   C1427     1.0  0.69371  0.72110  0.54442  1.0000
  S   S188      1.0  0.55075  0.95775  0.49641  1.0000
  C   C1428     1.0  0.50419  0.92684  0.48228  1.0000
  S   S189      1.0  0.59248  0.91116  0.49550  1.0000
  H   H1141     1.0  0.70948  0.72764  0.53381  1.0000
  H   H1142     1.0  0.63406  0.85468  0.52288  1.0000
  S   S190      1.0  0.49894  0.96056  0.55419  1.0000
  C   C1429     1.0  0.64127  0.79515  0.51416  1.0000
  H   H1143     1.0  0.57632  0.86779  0.50245  1.0000
  S   S191      1.0  0.61493  0.96670  0.49567  1.0000
  H   H1144     1.0  0.68818  0.74136  0.57171  1.0000
  C   C1430     1.0  0.65535  0.67168  0.62146  1.0000
  H   H1145     1.0  0.70084  0.81583  0.48143  1.0000
  C   C1431     1.0  0.64802  0.67500  0.50031  1.0000
  C   C1432     1.0  0.61693  0.66007  0.62832  1.0000
  H   H1146     1.0  0.70561  0.86141  0.47874  1.0000
  C   C1433     1.0  0.62491  0.68276  0.49638  1.0000
  H   H1147     1.0  0.51359  0.68864  0.57619  1.0000
  Fe  Fe96      1.0  0.55612  0.92239  0.48821  1.0000
  H   H1148     1.0  0.65769  0.68695  0.50301  1.0000
  H   H1149     1.0  0.61692  0.70057  0.49607  1.0000
  C   C1434     1.0  0.87052  0.65758  0.54728  1.0000
  C   C1435     1.0  0.54308  0.66601  0.93278  1.0000
  H   H1150     1.0  0.67745  0.65427  0.64514  1.0000
  C   C1436     1.0  0.66180  0.82493  0.48997  1.0000
  S   S192      1.0  0.55128  0.74205  0.48095  1.0000
  C   C1437     1.0  0.54885  0.67401  0.97493  1.0000
  C   C1438     1.0  0.97363  0.65496  0.47908  1.0000
  H   H1151     1.0  0.86786  0.66026  0.56512  1.0000
  C   C1439     1.0  0.53379  0.65294  0.95358  1.0000
  H   H1152     1.0  0.66856  0.68183  0.61157  1.0000
  C   C1440     1.0  0.66051  0.65602  0.64048  1.0000
