data_image0
_chemical_formula_structural       FeHPCFeSCH2SCHCHSHC5HSC2HCHC4H4C6H5CSC3H4CH2CPC2H2C5HCH4C2SC3HCH2C2HCH2CHFePCHCHSC4SC5H8CH2CHCSH2CHCFeH3C3HCHC3HC2H2CSHC3HCH2CH2CHC4HC3H2CHCHC2HCH2CHC7PC6HC2H4CSC2HCH2CHC2H3C2FeC4HCSC2HCH2C2HC4HC2HC2HSHSC2HCHSC2HC2HSH2SH2C6H7CSC2HFeCHC2H3CHC2SCHCHCSHFeHCH2C5HC2H2CHSFeH2SH4C4H2CHCH2C8HCHC2H7C5HC2HCH4C3PC2H3CH2C2HCHSH2C4HC2SCHCHC3HFeCHC2HFeH3CH2SH2C5SHCHSC9SC2H3CSFeCH2CFeC2HC2FeC2PC3HP2CHC2H6C2H2CSCFeC3HC2H2CSHCHCH3C2SCSC2SHC2SHS2HSCHCSFeSH2FeSFeCFeSFeSCSC3HCHC2H2CH3C7H5CH2C8H4C2HFeH3CH2SCSC7H5C2HCH3CH2CH3CHFeCPC2PHP2HC2PC3HCHCHCFeC3H2CHC5H5CH2CHCHSH4CH3SH2CHCHCHC10HCHCH2C4HCHC2H4C5Fe2CH2C4H2CH2C6HCH2C8HC2HC3HC2H3C7H3C4H2CH2C2HCHCH4C6H2CH3CFeH4SHSCHCHC2HC2HSC5SCHCHCSHCSHCSHSPC2FeS2FeCSFeCS2HS3C2HCSH2C5H2C2HCHC6H5FeC2HCH4C2HC6H6CH5C4FePHCFeCHC5HC8HC2HPCHC2H3CH5C6PC2H3C5HC3HSFeSHC3H2C5HCHC2S2C2H3C2HCSC2HC3HFeSH3CPC4H2CFeC3HC3HCH2CFeH5CHSC2HFeHSCHCH2CH3CHCH3C4HCH3C2HCHC3H3SC4H2SCH3C3HCH2C2H3CH5C3HCHCHCSHCHS2C2HSFeS2FeSCFeSFeS3HPH2C4H3C7H4SC3H3CH2C7H4CH2C2H4PC6PC9HC4H2C2H11C3H2CHCHSCFeHCH4CH2CSC6HC2H2C3H3FeH2CH2C4H2C2HCHC5H2C2SC5HC3H3CHC5HC2HC4HCH2C2PC19HCH17FeC5H5SH3C3PHCHPCHC3H2C6SC2HCHC3H3CH3C3HCPH6CPHC2HCSHSHC2HC4H3C2H2C2FeC4HCHC2H3CHCHSH2C2HC4FeS2H2CFeS2HC2HFeSHFeSFeSHFeCSFeHSFeC3S2FeS2FeS2FeSFeS3CH4C2H3C3H2CH3C6H4CHC6HCH2C6H2CH4C2HC2H2C7H4SC9HC2H6C6PC18H17C6PC3H2FeC9H8CH9C4HCSC6PC2H2C2H3C2SC2HCHCHCH3SHC4HCH2CHC2SH2CHFeHC2HCH2C2H2CSC8FeCHC2H2C3H4CHPCHCH2CH5C3HSC4HCH3SC2PC5HSCH2C2H2C5HCH2SC2HCH8CPC2HCHC2H3C5HCHCHC3SH3CHC2PSCHFeSFeS3FeS3HCSFeS2CFeCSH4FeHSFeS2FeS2FeSFeS4CHCH2CHFeCHFeHC6H4C5SH2C8H4FeC6H4CH2C2H4C2H2FeC7PC2FeH3C12H5C2PCH2CHCH6C2HC2HC2HSC2HC2HCHCH2C2HCH2C2H2CPHC3H4C5H2CH2CH5CHC2HCSH2CHSHFeCHC6PC18HC2H4CH12C6PC18H20C3HCHCHSHCH2CHSC3HC3HFeC2H4CH2C3H3C3H4CH2C3SH2C2SCH2FeHCHC2S2CH2CH3CHFeSHFeS2FeSFeS3HCHC4H2C5H2C7H2C6PSC8H5CH5C2H2CH3C4SHC2HCHCHC4PC3SC15HCH11CH5C2H2C2HCH4C5H4CHSCH2C2HC3H3C3HC3HC2H4C2HCH3C2H4FeCHC3HSCHC2HC2HC2HCHPH2C2HC3HCH2CFeSHSHFeS3CSFeHSC2HC2FeHSC3H2SHC2SC2H2C6H5C4HC2HC2SHCSC2HFeH2C2HCHCSHSFeC3H2CHFeC2HC2HC2HC7PC7H3C8H7PH4SH7CHC3HC2HSC8PC9HC8H11SHCH6C2HCHC2H8CFeCHCHCHCH2SCHFeCHFeH2SHC2FeH3CH2CSCHC2H2CHC2SC2H2PCH2CFeC2HCHCFeCSHC3H3C2H3C2HCSCSFe2HC2SH5CFe2H2CSCH3SHC2SCSFeCSFeCSCH3S2C6H4FeC2HCH4C4HSC3HSC4HC2HC2HC2H2C6H5C4HSHCHC2FeH2C6PC3SC14H6CH13CHPSC2H3C3HFeC2H2CHFeS2CHSC3H2CH7FeC6H3C2H2CHC2HC3H3FeCHC8H2CH2CHC3HPC2HC3HC2HSC2HC2H4CHPH3CH2CHCHFeSCSFeSFeSC4HC2SHCSCSH2FeS2C2SHFeC2HC10H3C6H8C2PHCPCH2CHC2HC2H2C2HC2H4CH2C2H2C2H2C4HCH3C3HC3HCH2C2SC2HC2H2C5H2SH3C3H2CPC2HC2H2CH2C2HCH2C3H3C4HCHCHC2FeC4HC2HC7PC4HSC12H6CH11CH3CHCHC2HC3PHSCFeC3HCH5C2HCH3CH6SHCHC6HCSC4PH2C2H3CH4FeHCHCHC2PCSC2SC6H2CHC6H2SC6PC4FeC3HCH4C3HC2SHC2H2C2HC2H2C3H4SH2CHPC3H5C2HCHCH4CSC10H3CH2CSFe2C3HCHC3H3SH2SH3C2HSH3SCHC4HSHSH3C7HCH2FeHCH2FeC2PCHC2HCHC3H3CHC4HC2H2CH2CPH2CH3CH2C
_chemical_formula_sum              "Fe120 H1440 P60 C1800 S240"
_cell_length_a       56.1124
_cell_length_b       56.7213
_cell_length_c       53.3179
_cell_angle_alpha    79.8939
_cell_angle_beta     82.7444
_cell_angle_gamma    81.9459

_space_group_name_H-M_alt    "P 1"
_space_group_IT_number       1

loop_
  _space_group_symop_operation_xyz
  'x, y, z'

loop_
  _atom_site_type_symbol
  _atom_site_label
  _atom_site_symmetry_multiplicity
  _atom_site_fract_x
  _atom_site_fract_y
  _atom_site_fract_z
  _atom_site_occupancy
  Fe  Fe1       1.0  0.09413  0.17903  0.47031  1.0000
  H   H1        1.0  0.03165  0.26388  0.39700  1.0000
  P   P1        1.0  0.07254  0.30706  0.48311  1.0000
  C   C1        1.0  0.23234  0.12851  0.46121  1.0000
  Fe  Fe2       1.0  0.30878  0.40378  0.01226  1.0000
  S   S1        1.0  0.31104  0.40313  0.05429  1.0000
  C   C2        1.0  0.20702  0.16716  0.45622  1.0000
  H   H2        1.0  0.27580  0.35673  0.12680  1.0000
  H   H3        1.0  0.14667  0.30116  0.42205  1.0000
  S   S2        1.0  0.16773  0.45809  0.08497  1.0000
  C   C3        1.0  0.24881  0.47258  0.14803  1.0000
  H   H4        1.0  0.27903  0.45573  0.12622  1.0000
  C   C4        1.0  0.02553  0.17097  0.42739  1.0000
  H   H5        1.0  0.00394  0.44705  0.23003  1.0000
  S   S3        1.0  0.21794  0.43025  0.12885  1.0000
  H   H6        1.0  0.16175  0.25978  0.44223  1.0000
  C   C5        1.0  0.32863  0.01435  0.46697  1.0000
  C   C6        1.0  0.09717  0.45299  0.20136  1.0000
  C   C7        1.0  0.08757  0.26323  0.41546  1.0000
  C   C8        1.0  0.26130  0.32258  0.01802  1.0000
  C   C9        1.0  0.18544  0.05067  0.45568  1.0000
  H   H7        1.0  0.29163  0.30272  0.99862  1.0000
  S   S4        1.0  0.08397  0.19137  0.43016  1.0000
  C   C10       1.0  0.02377  0.30500  0.47881  1.0000
  C   C11       1.0  0.24085  0.35663  0.11419  1.0000
  H   H8        1.0  0.22277  0.30775  0.08423  1.0000
  C   C12       1.0  0.04221  0.24575  0.34362  1.0000
  H   H9        1.0  0.23715  0.39632  0.01473  1.0000
  C   C13       1.0  0.07624  0.22270  0.42244  1.0000
  C   C14       1.0  0.05419  0.23193  0.41261  1.0000
  C   C15       1.0  0.04870  0.25685  0.40450  1.0000
  C   C16       1.0  0.09275  0.23846  0.42429  1.0000
  H   H10       1.0  0.04130  0.21984  0.41133  1.0000
  H   H11       1.0  0.26561  0.14327  0.41931  1.0000
  H   H12       1.0  0.10988  0.23144  0.43165  1.0000
  H   H13       1.0  0.17201  0.44419  0.02604  1.0000
  C   C17       1.0  0.28437  0.40980  0.07430  1.0000
  C   C18       1.0  0.26181  0.41644  0.06481  1.0000
  C   C19       1.0  0.24115  0.42266  0.08143  1.0000
  C   C20       1.0  0.24297  0.42140  0.10766  1.0000
  C   C21       1.0  0.26531  0.41354  0.11720  1.0000
  C   C22       1.0  0.28599  0.40823  0.10054  1.0000
  H   H14       1.0  0.26042  0.41743  0.04459  1.0000
  H   H15       1.0  0.22386  0.42850  0.07394  1.0000
  H   H16       1.0  0.26677  0.41227  0.13744  1.0000
  H   H17       1.0  0.30328  0.40276  0.10805  1.0000
  H   H18       1.0  0.10072  0.27524  0.41599  1.0000
  C   C23       1.0  0.18458  0.32767  0.03794  1.0000
  S   S5        1.0  0.06018  0.30354  0.39400  1.0000
  C   C24       1.0  0.04155  0.47114  0.28755  1.0000
  C   C25       1.0  0.05046  0.26857  0.47290  1.0000
  C   C26       1.0  0.05021  0.43345  0.27083  1.0000
  H   H19       1.0  0.05239  0.41394  0.27472  1.0000
  H   H20       1.0  0.18175  0.34165  0.02153  1.0000
  H   H21       1.0  0.04764  0.37119  0.41266  1.0000
  H   H22       1.0  0.00951  0.36191  0.25568  1.0000
  C   C27       1.0  0.21115  0.17038  0.48062  1.0000
  H   H23       1.0  0.04925  0.18620  0.36879  1.0000
  H   H24       1.0  0.29770  0.10175  0.44197  1.0000
  C   C28       1.0  0.27610  0.13529  0.38133  1.0000
  P   P2        1.0  0.22401  0.35021  0.04351  1.0000
  C   C29       1.0  0.22827  0.35499  0.09365  1.0000
  C   C30       1.0  0.06819  0.33797  0.46706  1.0000
  H   H25       1.0  0.24375  0.45559  0.15866  1.0000
  H   H26       1.0  0.16088  0.27741  0.06996  1.0000
  C   C31       1.0  0.26609  0.35477  0.11111  1.0000
  C   C32       1.0  0.01724  0.25081  0.34949  1.0000
  C   C33       1.0  0.25695  0.10796  0.41593  1.0000
  C   C34       1.0  0.05105  0.44613  0.24561  1.0000
  C   C35       1.0  0.30890  0.02539  0.45388  1.0000
  H   H27       1.0  0.19521  0.27639  0.09542  1.0000
  C   C36       1.0  0.24265  0.34187  0.01547  1.0000
  H   H28       1.0  0.28728  0.00734  0.37934  1.0000
  H   H29       1.0  0.07311  0.21863  0.34686  1.0000
  H   H30       1.0  0.12850  0.47120  0.18665  1.0000
  H   H31       1.0  0.19102  0.10937  0.45557  1.0000
  C   C37       1.0  0.01051  0.11956  0.47688  1.0000
  C   C38       1.0  0.20764  0.30873  0.07318  1.0000
  S   S6        1.0  0.19690  0.48541  0.01746  1.0000
  C   C39       1.0  0.27874  0.35184  0.08734  1.0000
  C   C40       1.0  0.01522  0.18232  0.46934  1.0000
  C   C41       1.0  0.26620  0.35055  0.06667  1.0000
  H   H32       1.0  0.20869  0.35697  0.09621  1.0000
  C   C42       1.0  0.26882  0.47273  0.12954  1.0000
  H   H33       1.0  0.33027  0.08053  0.46743  1.0000
  H   H34       1.0  0.15999  0.08231  0.45950  1.0000
  C   C43       1.0  0.18176  0.42624  0.02921  1.0000
  C   C44       1.0  0.18337  0.38430  0.04888  1.0000
  H   H35       1.0  0.01790  0.37757  0.48031  1.0000
  C   C45       1.0  0.20564  0.42205  0.01836  1.0000
  H   H36       1.0  0.14487  0.44260  0.15679  1.0000
  H   H37       1.0  0.32272  0.45256  0.06464  1.0000
  C   C46       1.0  0.17069  0.40744  0.04465  1.0000
  H   H38       1.0  0.05905  0.40424  0.43187  1.0000
  Fe  Fe3       1.0  0.02217  0.31804  0.38521  1.0000
  P   P3        1.0  0.24476  0.10103  0.44908  1.0000
  C   C47       1.0  0.26897  0.08562  0.46741  1.0000
  H   H39       1.0  0.04363  0.43604  0.31100  1.0000
  C   C48       1.0  0.21847  0.39903  0.02285  1.0000
  H   H40       1.0  0.07663  0.39494  0.47349  1.0000
  S   S7        1.0  0.10121  0.13925  0.48453  1.0000
  C   C49       1.0  0.22776  0.05678  0.45037  1.0000
  C   C50       1.0  0.02959  0.39101  0.23696  1.0000
  C   C51       1.0  0.25842  0.09103  0.39928  1.0000
  C   C52       1.0  0.04791  0.35165  0.25556  1.0000
  S   S8        1.0  0.29063  0.37668  0.99833  1.0000
  C   C53       1.0  0.03617  0.44727  0.17140  1.0000
  C   C54       1.0  0.02461  0.13233  0.34479  1.0000
  C   C55       1.0  0.26609  0.13008  0.40678  1.0000
  C   C56       1.0  0.02731  0.36752  0.24954  1.0000
  C   C57       1.0  0.22140  0.08149  0.45126  1.0000
  H   H41       1.0  0.17161  0.03866  0.45824  1.0000
  H   H42       1.0  0.26462  0.31253  0.03672  1.0000
  H   H43       1.0  0.24550  0.46334  0.04054  1.0000
  H   H44       1.0  0.28296  0.15244  0.37434  1.0000
  H   H45       1.0  0.08845  0.42280  0.00356  1.0000
  H   H46       1.0  0.26952  0.08311  0.36117  1.0000
  H   H47       1.0  0.29071  0.02244  0.46213  1.0000
  H   H48       1.0  0.29720  0.04720  0.41941  1.0000
  C   C58       1.0  0.21765  0.14638  0.44647  1.0000
  H   H49       1.0  0.21375  0.14387  0.42779  1.0000
  H   H50       1.0  0.10817  0.32170  0.43927  1.0000
  C   C59       1.0  0.05253  0.39892  0.23045  1.0000
  H   H51       1.0  0.05278  0.26015  0.33464  1.0000
  C   C60       1.0  0.03099  0.16999  0.45237  1.0000
  S   S9        1.0  0.00995  0.35750  0.38569  1.0000
  H   H52       1.0  0.19493  0.18044  0.44519  1.0000
  H   H53       1.0  0.12276  0.40842  0.15429  1.0000
  C   C61       1.0  0.05526  0.36722  0.43082  1.0000
  H   H54       1.0  0.05409  0.44283  0.16207  1.0000
  C   C62       1.0  0.02148  0.11139  0.36251  1.0000
  Fe  Fe4       1.0  0.19502  0.46272  0.11025  1.0000
  H   H55       1.0  0.21493  0.02246  0.45189  1.0000
  H   H56       1.0  0.15434  0.30999  0.03291  1.0000
  H   H57       1.0  0.08676  0.34710  0.25418  1.0000
  C   C63       1.0  0.13154  0.25726  0.47135  1.0000
  C   C64       1.0  0.07508  0.35669  0.47762  1.0000
  C   C65       1.0  0.31258  0.03951  0.42983  1.0000
  H   H58       1.0  0.17466  0.37011  0.06134  1.0000
  C   C66       1.0  0.04001  0.20400  0.36279  1.0000
  H   H59       1.0  0.04603  0.33368  0.26598  1.0000
  C   C67       1.0  0.32934  0.45085  0.08319  1.0000
  C   C68       1.0  0.06559  0.27249  0.40557  1.0000
  C   C69       1.0  0.29310  0.08970  0.45947  1.0000
  H   H60       1.0  0.08416  0.40280  0.18130  1.0000
  C   C70       1.0  0.20985  0.04151  0.45242  1.0000
  C   C71       1.0  0.20721  0.37982  0.03751  1.0000
  H   H61       1.0  0.03686  0.48078  0.30367  1.0000
  H   H62       1.0  0.24659  0.04916  0.44824  1.0000
  C   C72       1.0  0.05361  0.22235  0.35038  1.0000
  S   S10       1.0  0.26267  0.99946  0.43041  1.0000
  H   H63       1.0  0.15243  0.41099  0.05364  1.0000
  C   C73       1.0  0.04743  0.47141  0.24172  1.0000
  C   C74       1.0  0.06181  0.38579  0.44160  1.0000
  C   C75       1.0  0.05835  0.34342  0.44351  1.0000
  H   H64       1.0  0.01973  0.17109  0.33804  1.0000
  C   C76       1.0  0.01487  0.20899  0.36854  1.0000
  H   H65       1.0  0.04752  0.15960  0.45859  1.0000
  H   H66       1.0  0.01336  0.40318  0.23341  1.0000
  C   C77       1.0  0.13651  0.29224  0.43881  1.0000
  H   H67       1.0  0.03821  0.16146  0.41449  1.0000
  H   H68       1.0  0.05299  0.32929  0.43498  1.0000
  C   C78       1.0  0.04538  0.44596  0.29166  1.0000
  H   H69       1.0  0.26190  0.46733  0.08021  1.0000
  C   C79       1.0  0.07083  0.35926  0.24898  1.0000
  C   C80       1.0  0.11458  0.30388  0.44871  1.0000
  C   C81       1.0  0.17891  0.07524  0.45635  1.0000
  C   C82       1.0  0.23653  0.13196  0.48567  1.0000
  H   H70       1.0  0.29822  0.35181  0.08454  1.0000
  C   C83       1.0  0.16911  0.30972  0.04427  1.0000
  C   C84       1.0  0.26853  0.09627  0.37388  1.0000
  C   C85       1.0  0.00372  0.23268  0.36243  1.0000
  H   H71       1.0  0.09098  0.38878  0.23293  1.0000
  H   H72       1.0  0.28505  0.12245  0.34515  1.0000
  C   C86       1.0  0.01790  0.45849  0.15619  1.0000
  H   H73       1.0  0.12019  0.44306  0.01684  1.0000
  C   C87       1.0  0.24088  0.35151  0.06984  1.0000
  H   H74       1.0  0.25188  0.07371  0.40570  1.0000
  C   C88       1.0  0.00799  0.44971  0.20943  1.0000
  C   C89       1.0  0.10267  0.42938  0.98950  1.0000
  H   H75       1.0  0.23100  0.36015  0.13225  1.0000
  C   C90       1.0  0.20364  0.32757  0.05268  1.0000
  H   H76       1.0  0.09022  0.46615  0.21367  1.0000
  H   H77       1.0  0.27637  0.34956  0.04824  1.0000
  C   C91       1.0  0.32173  0.46826  0.09922  1.0000
  H   H78       1.0  0.02189  0.46239  0.13557  1.0000
  C   C92       1.0  0.17283  0.29135  0.06510  1.0000
  C   C93       1.0  0.07316  0.38286  0.23668  1.0000
  C   C94       1.0  0.07173  0.38053  0.46500  1.0000
  C   C95       1.0  0.01740  0.15502  0.35202  1.0000
  C   C96       1.0  0.27730  0.11841  0.36488  1.0000
  C   C97       1.0  0.19214  0.29081  0.07948  1.0000
  C   C98       1.0  0.19676  0.09062  0.45410  1.0000
  P   P4        1.0  0.05527  0.43038  0.21836  1.0000
  C   C99       1.0  0.03141  0.44297  0.19824  1.0000
  C   C100      1.0  0.08442  0.43368  0.20005  1.0000
  C   C101      1.0  0.09392  0.41750  0.18310  1.0000
  C   C102      1.0  0.11574  0.42061  0.16773  1.0000
  C   C103      1.0  0.12825  0.43987  0.16915  1.0000
  C   C104      1.0  0.11903  0.45596  0.18603  1.0000
  H   H79       1.0  0.21435  0.43670  0.00654  1.0000
  C   C105      1.0  0.26066  0.47349  0.03962  1.0000
  C   C106      1.0  0.03094  0.25815  0.46747  1.0000
  H   H80       1.0  0.02719  0.09383  0.35693  1.0000
  H   H81       1.0  0.04763  0.48157  0.22250  1.0000
  H   H82       1.0  0.03265  0.13099  0.32544  1.0000
  H   H83       1.0  0.01421  0.11354  0.45848  1.0000
  C   C107      1.0  0.26970  0.47622  0.06205  1.0000
  S   S11       1.0  0.10427  0.48500  0.11357  1.0000
  C   C108      1.0  0.31166  0.07780  0.47396  1.0000
  C   C109      1.0  0.27641  0.31671  0.99647  1.0000
  H   H84       1.0  0.04765  0.11141  0.48570  1.0000
  C   C110      1.0  0.00727  0.15686  0.37714  1.0000
  H   H85       1.0  0.22341  0.36828  0.98807  1.0000
  H   H86       1.0  0.06805  0.25816  0.47195  1.0000
  C   C111      1.0  0.10096  0.29226  0.47009  1.0000
  H   H87       1.0  0.03387  0.24011  0.46265  1.0000
  C   C112      1.0  0.14496  0.26892  0.45010  1.0000
  C   C113      1.0  0.04715  0.29227  0.47834  1.0000
  H   H88       1.0  0.00833  0.26895  0.34475  1.0000
  H   H89       1.0  0.13791  0.23917  0.48019  1.0000
  H   H90       1.0  0.26404  0.48123  0.99879  1.0000
  C   C114      1.0  0.12053  0.44075  0.99703  1.0000
  C   C115      1.0  0.27112  0.48379  0.01589  1.0000
  Fe  Fe5       1.0  0.14429  0.48744  0.10307  1.0000
  C   C116      1.0  0.23811  0.35385  0.99083  1.0000
  C   C117      1.0  0.00800  0.27131  0.46711  1.0000
  C   C118      1.0  0.33040  0.46501  0.12332  1.0000
  C   C119      1.0  0.00412  0.18436  0.41924  1.0000
  H   H91       1.0  0.32443  0.47811  0.13605  1.0000
  C   C120      1.0  0.10963  0.26883  0.48122  1.0000
  S   S12       1.0  0.00976  0.31835  0.34685  1.0000
  C   C121      1.0  0.29975  0.99625  0.39173  1.0000
  C   C122      1.0  0.01092  0.11313  0.38741  1.0000
  H   H92       1.0  0.00838  0.09698  0.40119  1.0000
  C   C123      1.0  0.04287  0.48383  0.26259  1.0000
  H   H93       1.0  0.02059  0.32328  0.48274  1.0000
  H   H94       1.0  0.32935  0.99420  0.36160  1.0000
  C   C124      1.0  0.00367  0.13578  0.39467  1.0000
  C   C125      1.0  0.00435  0.29464  0.47308  1.0000
  H   H95       1.0  0.32513  0.00323  0.48538  1.0000
  C   C126      1.0  0.32354  0.98890  0.38169  1.0000
  C   C127      1.0  0.29213  0.98931  0.41778  1.0000
  C   C128      1.0  0.23742  0.06237  0.58326  1.0000
  C   C129      1.0  0.30090  0.07493  0.57019  1.0000
  H   H96       1.0  0.09498  0.42348  0.64662  1.0000
  C   C130      1.0  0.01093  0.48253  0.83566  1.0000
  C   C131      1.0  0.02770  0.40450  0.57975  1.0000
  H   H97       1.0  0.18097  0.04460  0.58975  1.0000
  C   C132      1.0  0.20041  0.04400  0.58534  1.0000
  C   C133      1.0  0.21696  0.11925  0.56695  1.0000
  H   H98       1.0  0.25034  0.35814  0.95055  1.0000
  S   S13       1.0  0.07276  0.47426  0.75741  1.0000
  H   H99       1.0  0.24874  0.00921  0.56034  1.0000
  S   S14       1.0  0.12562  0.18795  0.48734  1.0000
  C   C134      1.0  0.01761  0.06567  0.54277  1.0000
  C   C135      1.0  0.16931  0.40897  0.91582  1.0000
  H   H100      1.0  0.22875  0.15520  0.51438  1.0000
  C   C136      1.0  0.32562  0.00970  0.57257  1.0000
  H   H101      1.0  0.03281  0.46065  0.59108  1.0000
  S   S15       1.0  0.10333  0.22401  0.54152  1.0000
  C   C137      1.0  0.03451  0.44416  0.81164  1.0000
  C   C138      1.0  0.02467  0.12638  0.51598  1.0000
  H   H102      1.0  0.19016  0.47369  0.90210  1.0000
  C   C139      1.0  0.20253  0.41358  0.88236  1.0000
  C   C140      1.0  0.32177  0.07860  0.55342  1.0000
  H   H103      1.0  0.02312  0.47888  0.88826  1.0000
  S   S16       1.0  0.06712  0.18709  0.50334  1.0000
  H   H104      1.0  0.10738  0.44359  0.86055  1.0000
  H   H105      1.0  0.00855  0.22215  0.62815  1.0000
  S   S17       1.0  0.31147  0.39908  0.93983  1.0000
  H   H106      1.0  0.21782  0.10729  0.55300  1.0000
  H   H107      1.0  0.13150  0.09642  0.51711  1.0000
  C   C141      1.0  0.07948  0.23450  0.56313  1.0000
  C   C142      1.0  0.06124  0.25250  0.55450  1.0000
  C   C143      1.0  0.04392  0.26296  0.57213  1.0000
  C   C144      1.0  0.04528  0.25596  0.59848  1.0000
  C   C145      1.0  0.06345  0.23787  0.60705  1.0000
  C   C146      1.0  0.08058  0.22733  0.58946  1.0000
  H   H108      1.0  0.06077  0.25876  0.53419  1.0000
  H   H109      1.0  0.02998  0.27687  0.56530  1.0000
  H   H110      1.0  0.06465  0.23239  0.62737  1.0000
  H   H111      1.0  0.09511  0.21408  0.59626  1.0000
  H   H112      1.0  0.09613  0.04074  0.51507  1.0000
  H   H113      1.0  0.15182  0.44859  0.86356  1.0000
  H   H114      1.0  0.10907  0.29058  0.52079  1.0000
  C   C147      1.0  0.06753  0.02181  0.50807  1.0000
  S   S18       1.0  0.00345  0.33896  0.60677  1.0000
  C   C148      1.0  0.12139  0.43542  0.94552  1.0000
  C   C149      1.0  0.31391  0.45600  0.87665  1.0000
  H   H115      1.0  0.11172  0.34913  0.90242  1.0000
  Fe  Fe6       1.0  0.07635  0.14786  0.51883  1.0000
  C   C150      1.0  0.06850  0.40037  0.66634  1.0000
  H   H116      1.0  0.11778  0.47320  0.77830  1.0000
  C   C151      1.0  0.22562  0.46545  0.88293  1.0000
  C   C152      1.0  0.24847  0.45211  0.88515  1.0000
  H   H117      1.0  0.13316  0.37770  0.56753  1.0000
  H   H118      1.0  0.24732  0.11832  0.49766  1.0000
  H   H119      1.0  0.27811  0.04589  0.52221  1.0000
  C   C153      1.0  0.20796  0.46389  0.90395  1.0000
  H   H120      1.0  0.26215  0.45322  0.86893  1.0000
  C   C154      1.0  0.32173  0.45036  0.82508  1.0000
  C   C155      1.0  0.21349  0.02474  0.57461  1.0000
  S   S19       1.0  0.29962  0.99554  0.53891  1.0000
  C   C156      1.0  0.07979  0.41327  0.90922  1.0000
  H   H121      1.0  0.22158  0.40997  0.87583  1.0000
  C   C157      1.0  0.29035  0.99059  0.59190  1.0000
  H   H122      1.0  0.01104  0.09703  0.58525  1.0000
  C   C158      1.0  0.27845  0.10844  0.54491  1.0000
  S   S20       1.0  0.24057  0.41422  0.95715  1.0000
  H   H123      1.0  0.28600  0.10781  0.61438  1.0000
  Fe  Fe7       1.0  0.27897  0.40698  0.96747  1.0000
  H   H124      1.0  0.18832  0.14385  0.54994  1.0000
  C   C159      1.0  0.02942  0.11844  0.49221  1.0000
  H   H125      1.0  0.09935  0.25948  0.49758  1.0000
  H   H126      1.0  0.09075  0.33344  0.63985  1.0000
  C   C160      1.0  0.28225  0.05835  0.50485  1.0000
  C   C161      1.0  0.14788  0.37015  0.60392  1.0000
  C   C162      1.0  0.20021  0.14002  0.56511  1.0000
  C   C163      1.0  0.23208  0.11378  0.58685  1.0000
  C   C164      1.0  0.22604  0.15288  0.49526  1.0000
  H   H127      1.0  0.11494  0.37098  0.66190  1.0000
  C   C165      1.0  0.08340  0.41878  0.66412  1.0000
  C   C166      1.0  0.05327  0.40787  0.70936  1.0000
  H   H128      1.0  0.04132  0.40390  0.72676  1.0000
  H   H129      1.0  0.06718  0.35801  0.90198  1.0000
  C   C167      1.0  0.21352  0.15042  0.60277  1.0000
  H   H130      1.0  0.21239  0.04850  0.52058  1.0000
  S   S21       1.0  0.10589  0.15421  0.54082  1.0000
  Fe  Fe8       1.0  0.09913  0.19280  0.52190  1.0000
  H   H131      1.0  0.15716  0.36334  0.64275  1.0000
  H   H132      1.0  0.16641  0.36665  0.59558  1.0000
  S   S22       1.0  0.04768  0.12399  0.53608  1.0000
  H   H133      1.0  0.04282  0.37133  0.60090  1.0000
  H   H134      1.0  0.24713  0.04533  0.63170  1.0000
  H   H135      1.0  0.09100  0.38553  0.58622  1.0000
  H   H136      1.0  0.04157  0.38121  0.69167  1.0000
  C   C168      1.0  0.10503  0.40841  0.90945  1.0000
  C   C169      1.0  0.29936  0.11202  0.52810  1.0000
  C   C170      1.0  0.03529  0.44115  0.59307  1.0000
  C   C171      1.0  0.28115  0.09165  0.62698  1.0000
  H   H137      1.0  0.30190  0.06046  0.58645  1.0000
  H   H138      1.0  0.06773  0.43634  0.72245  1.0000
  C   C172      1.0  0.09359  0.48115  0.85476  1.0000
  H   H139      1.0  0.09045  0.48140  0.83513  1.0000
  C   C173      1.0  0.00792  0.13240  0.59546  1.0000
  H   H140      1.0  0.19897  0.44687  0.94285  1.0000
  H   H141      1.0  0.27121  0.42688  0.90983  1.0000
  C   C174      1.0  0.15132  0.06069  0.52198  1.0000
  C   C175      1.0  0.07241  0.30817  0.51683  1.0000
  C   C176      1.0  0.05200  0.31970  0.52975  1.0000
  C   C177      1.0  0.05178  0.32192  0.55542  1.0000
  C   C178      1.0  0.07165  0.31214  0.56876  1.0000
  C   C179      1.0  0.09219  0.30076  0.55607  1.0000
  C   C180      1.0  0.09278  0.29913  0.53010  1.0000
  C   C181      1.0  0.07771  0.37203  0.90414  1.0000
  H   H142      1.0  0.15256  0.45828  0.98472  1.0000
  C   C182      1.0  0.02285  0.33322  0.66487  1.0000
  H   H143      1.0  0.00594  0.22002  0.50297  1.0000
  C   C183      1.0  0.31605  0.00441  0.61881  1.0000
  C   C184      1.0  0.10522  0.38090  0.59882  1.0000
  H   H144      1.0  0.04677  0.39905  0.90628  1.0000
  H   H145      1.0  0.32057  0.05205  0.50744  1.0000
  H   H146      1.0  0.03625  0.32732  0.51998  1.0000
  H   H147      1.0  0.03592  0.33094  0.56492  1.0000
  H   H148      1.0  0.07088  0.31301  0.58900  1.0000
  H   H149      1.0  0.10750  0.29279  0.56644  1.0000
  H   H150      1.0  0.13530  0.05163  0.52428  1.0000
  C   C185      1.0  0.09987  0.37925  0.62548  1.0000
  C   C186      1.0  0.19360  0.40330  0.90688  1.0000
  C   C187      1.0  0.23019  0.12953  0.60479  1.0000
  C   C188      1.0  0.04797  0.46005  0.81931  1.0000
  C   C189      1.0  0.18723  0.42969  0.86683  1.0000
  H   H151      1.0  0.07301  0.29508  0.65035  1.0000
  C   C190      1.0  0.29562  0.99361  0.61620  1.0000
  C   C191      1.0  0.31454  0.47329  0.83171  1.0000
  H   H152      1.0  0.00375  0.33306  0.67129  1.0000
  C   C192      1.0  0.02158  0.21829  0.53793  1.0000
  H   H153      1.0  0.28483  0.32559  0.95564  1.0000
  H   H154      1.0  0.20869  0.09325  0.51362  1.0000
  H   H155      1.0  0.18538  0.17165  0.58156  1.0000
  H   H156      1.0  0.26202  0.12032  0.54133  1.0000
  C   C193      1.0  0.27911  0.08999  0.56625  1.0000
  C   C194      1.0  0.05075  0.40216  0.61597  1.0000
  C   C195      1.0  0.25318  0.34787  0.96932  1.0000
  P   P5        1.0  0.25291  0.08624  0.58946  1.0000
  C   C196      1.0  0.02156  0.20797  0.56373  1.0000
  C   C197      1.0  0.03623  0.47942  0.83092  1.0000
  H   H157      1.0  0.20190  0.07719  0.59867  1.0000
  H   H158      1.0  0.08909  0.41784  0.95847  1.0000
  H   H159      1.0  0.02050  0.13881  0.57943  1.0000
  C   C198      1.0  0.23850  0.02412  0.56853  1.0000
  H   H160      1.0  0.13584  0.38086  0.90703  1.0000
  H   H161      1.0  0.03362  0.21344  0.57532  1.0000
  C   C199      1.0  0.16296  0.43551  0.87574  1.0000
  C   C200      1.0  0.06809  0.42617  0.70693  1.0000
  H   H162      1.0  0.06746  0.45794  0.81508  1.0000
  C   C201      1.0  0.02504  0.42965  0.57666  1.0000
  H   H163      1.0  0.31122  0.45769  0.89674  1.0000
  S   S23       1.0  0.16796  0.12940  0.50757  1.0000
  H   H164      1.0  0.08287  0.35300  0.49567  1.0000
  H   H165      1.0  0.04451  0.04402  0.56513  1.0000
  C   C202      1.0  0.05718  0.35561  0.64965  1.0000
  C   C203      1.0  0.16989  0.09780  0.51464  1.0000
  C   C204      1.0  0.23571  0.43515  0.92912  1.0000
  C   C205      1.0  0.14267  0.36830  0.63048  1.0000
  H   H166      1.0  0.01961  0.39557  0.56714  1.0000
  C   C206      1.0  0.29257  0.08388  0.64935  1.0000
  C   C207      1.0  0.31011  0.47622  0.85758  1.0000
  S   S24       1.0  0.01395  0.45122  0.74281  1.0000
  C   C208      1.0  0.28750  0.06244  0.66521  1.0000
  H   H167      1.0  0.03387  0.23124  0.52944  1.0000
  C   C209      1.0  0.26366  0.07032  0.49053  1.0000
  H   H168      1.0  0.24129  0.12567  0.62053  1.0000
  C   C210      1.0  0.19851  0.15563  0.58297  1.0000
  C   C211      1.0  0.19482  0.05891  0.51977  1.0000
  C   C212      1.0  0.19267  0.08420  0.51609  1.0000
  H   H169      1.0  0.29877  0.12635  0.51175  1.0000
  Fe  Fe9       1.0  0.21373  0.99625  0.51631  1.0000
  C   C213      1.0  0.25364  0.43726  0.90833  1.0000
  H   H170      1.0  0.19450  0.43852  0.84829  1.0000
  C   C214      1.0  0.10684  0.00236  0.51944  1.0000
  C   C215      1.0  0.17419  0.04711  0.52240  1.0000
  H   H171      1.0  0.26764  0.03183  0.67077  1.0000
  Fe  Fe10      1.0  0.32761  0.42479  0.95845  1.0000
  H   H172      1.0  0.16284  0.40113  0.93505  1.0000
  H   H173      1.0  0.05517  0.43683  0.62557  1.0000
  H   H174      1.0  0.02966  0.29472  0.66619  1.0000
  C   C216      1.0  0.03717  0.17845  0.64384  1.0000
  H   H175      1.0  0.21204  0.16246  0.61672  1.0000
  H   H176      1.0  0.01459  0.02143  0.59467  1.0000
  S   S25       1.0  0.29416  0.43474  0.98393  1.0000
  H   H177      1.0  0.26989  0.04149  0.56863  1.0000
  H   H178      1.0  0.29707  0.05590  0.68200  1.0000
  C   C217      1.0  0.21234  0.06261  0.59000  1.0000
  C   C218      1.0  0.00928  0.44747  0.81579  1.0000
  C   C219      1.0  0.05536  0.16911  0.60248  1.0000
  C   C220      1.0  0.07832  0.16660  0.61089  1.0000
  C   C221      1.0  0.08077  0.17024  0.63564  1.0000
  S   S26       1.0  0.21895  0.48311  0.85346  1.0000
  H   H179      1.0  0.20580  0.39173  0.91934  1.0000
  C   C222      1.0  0.13912  0.44701  0.95324  1.0000
  H   H180      1.0  0.06208  0.17885  0.67135  1.0000
  S   S27       1.0  0.02535  0.26992  0.62134  1.0000
  C   C223      1.0  0.04066  0.39080  0.59915  1.0000
  C   C224      1.0  0.06020  0.17606  0.65215  1.0000
  C   C225      1.0  0.07184  0.33374  0.64704  1.0000
  C   C226      1.0  0.00588  0.19083  0.57446  1.0000
  C   C227      1.0  0.06193  0.31187  0.65307  1.0000
  C   C228      1.0  0.04800  0.42749  0.61273  1.0000
  C   C229      1.0  0.05344  0.39502  0.68920  1.0000
  C   C230      1.0  0.08313  0.43162  0.68431  1.0000
  C   C231      1.0  0.32501  0.43028  0.84420  1.0000
  S   S28       1.0  0.17652  0.01549  0.52588  1.0000
  C   C232      1.0  0.14915  0.08602  0.51796  1.0000
  C   C233      1.0  0.25928  0.05664  0.63660  1.0000
  H   H181      1.0  0.05385  0.16619  0.58321  1.0000
  H   H182      1.0  0.09424  0.16221  0.59800  1.0000
  H   H183      1.0  0.09861  0.16863  0.64196  1.0000
  C   C234      1.0  0.10868  0.45964  0.89428  1.0000
  S   S29       1.0  0.32234  0.00733  0.64973  1.0000
  Fe  Fe11      1.0  0.13018  0.14885  0.50503  1.0000
  C   C235      1.0  0.21292  0.44858  0.92690  1.0000
  H   H184      1.0  0.04362  0.42982  0.80164  1.0000
  H   H185      1.0  0.20107  0.48454  0.96418  1.0000
  C   C236      1.0  0.10279  0.36703  0.90441  1.0000
  Fe  Fe12      1.0  0.03523  0.48187  0.74385  1.0000
  C   C237      1.0  0.26443  0.07807  0.62039  1.0000
  C   C238      1.0  0.06074  0.99938  0.50640  1.0000
  H   H186      1.0  0.09433  0.44606  0.68237  1.0000
  C   C239      1.0  0.03255  0.35513  0.65822  1.0000
  C   C240      1.0  0.11875  0.37274  0.64126  1.0000
  Fe  Fe13      1.0  0.32468  0.37111  0.97202  1.0000
  C   C241      1.0  0.12916  0.37640  0.58811  1.0000
  C   C242      1.0  0.25047  0.04270  0.57302  1.0000
  P   P6        1.0  0.06902  0.38427  0.63970  1.0000
  C   C243      1.0  0.27080  0.04891  0.65890  1.0000
  C   C244      1.0  0.30625  0.06188  0.49649  1.0000
  C   C245      1.0  0.32106  0.09728  0.53251  1.0000
  H   H187      1.0  0.07060  0.43111  0.91105  1.0000
  P   P7        1.0  0.00507  0.17816  0.60791  1.0000
  P   P8        1.0  0.12237  0.43218  0.91227  1.0000
  C   C246      1.0  0.06621  0.39514  0.90656  1.0000
  H   H188      1.0  0.03071  0.07572  0.53016  1.0000
  C   C247      1.0  0.15373  0.42506  0.90027  1.0000
  C   C248      1.0  0.11644  0.38512  0.90706  1.0000
  H   H189      1.0  0.15316  0.45438  0.93940  1.0000
  H   H190      1.0  0.30595  0.09402  0.65406  1.0000
  H   H191      1.0  0.02077  0.37179  0.65937  1.0000
  H   H192      1.0  0.01924  0.18053  0.48891  1.0000
  H   H193      1.0  0.33059  0.41251  0.83913  1.0000
  H   H194      1.0  0.24518  0.06736  0.49732  1.0000
  C   C249      1.0  0.03464  0.17553  0.61875  1.0000
  C   C250      1.0  0.00853  0.03518  0.57921  1.0000
  H   H195      1.0  0.20419  0.01045  0.57079  1.0000
  H   H196      1.0  0.20224  0.18611  0.48847  1.0000
  C   C251      1.0  0.10337  0.45981  0.86919  1.0000
  S   S30       1.0  0.24750  0.01246  0.49970  1.0000
  C   C252      1.0  0.32125  0.43314  0.86995  1.0000
  Fe  Fe14      1.0  0.00594  0.47025  0.70367  1.0000
  C   C253      1.0  0.00575  0.21187  0.52289  1.0000
  C   C254      1.0  0.03746  0.31161  0.66205  1.0000
  C   C255      1.0  0.13877  0.44942  0.97892  1.0000
  H   H197      1.0  0.01477  0.44017  0.56174  1.0000
  C   C256      1.0  0.10344  0.48098  0.90487  1.0000
  C   C257      1.0  0.10309  0.42666  0.96384  1.0000
  H   H198      1.0  0.02142  0.18268  0.65696  1.0000
  H   H199      1.0  0.05511  0.03811  0.50394  1.0000
  C   C258      1.0  0.09062  0.02330  0.51443  1.0000
  S   S31       1.0  0.00775  0.45389  0.66747  1.0000
  H   H200      1.0  0.32409  0.41767  0.88481  1.0000
  C   C259      1.0  0.30533  0.99867  0.56998  1.0000
  H   H201      1.0  0.32477  0.44818  0.80511  1.0000
  C   C260      1.0  0.02540  0.04782  0.56257  1.0000
  H   H202      1.0  0.12496  0.00399  0.52348  1.0000
  H   H203      1.0  0.04309  0.99828  0.50080  1.0000
  H   H204      1.0  0.10750  0.48153  0.92404  1.0000
  C   C261      1.0  0.27253  0.32954  0.97216  1.0000
  C   C262      1.0  0.33102  0.01250  0.59688  1.0000
  S   S32       1.0  0.00269  0.36822  0.53454  1.0000
  C   C263      1.0  0.00270  0.10862  0.59889  1.0000
  S   S33       1.0  0.04905  0.88019  0.44936  1.0000
  C   C264      1.0  0.02816  0.73108  0.26426  1.0000
  C   C265      1.0  0.12913  0.58526  0.20041  1.0000
  S   S34       1.0  0.05421  0.53383  0.20828  1.0000
  H   H205      1.0  0.02164  0.77532  0.38790  1.0000
  C   C266      1.0  0.03606  0.76718  0.44863  1.0000
  C   C267      1.0  0.16498  0.96538  0.45704  1.0000
  S   S35       1.0  0.26418  0.61753  0.03199  1.0000
  H   H206      1.0  0.22080  0.97452  0.42880  1.0000
  S   S36       1.0  0.19318  0.55346  0.10793  1.0000
  S   S37       1.0  0.15762  0.51723  0.07340  1.0000
  H   H207      1.0  0.09749  0.64526  0.29910  1.0000
  S   S38       1.0  0.05513  0.67403  0.36259  1.0000
  C   C268      1.0  0.15335  0.50813  0.00182  1.0000
  H   H208      1.0  0.08213  0.85326  0.30711  1.0000
  C   C269      1.0  0.09858  0.64761  0.42951  1.0000
  S   S39       1.0  0.03626  0.65142  0.30507  1.0000
  Fe  Fe15      1.0  0.03917  0.71254  0.36344  1.0000
  S   S40       1.0  0.06104  0.74436  0.35656  1.0000
  H   H209      1.0  0.03923  0.70144  0.22063  1.0000
  H   H210      1.0  0.19524  0.90704  0.44134  1.0000
  Fe  Fe16      1.0  0.07848  0.85209  0.46449  1.0000
  S   S41       1.0  0.10957  0.83938  0.43730  1.0000
  Fe  Fe17      1.0  0.18539  0.51769  0.09990  1.0000
  C   C270      1.0  0.05177  0.83707  0.36590  1.0000
  Fe  Fe18      1.0  0.13331  0.84727  0.46520  1.0000
  S   S42       1.0  0.16432  0.86961  0.45009  1.0000
  Fe  Fe19      1.0  0.10780  0.80326  0.46222  1.0000
  S   S43       1.0  0.11050  0.76656  0.44970  1.0000
  C   C271      1.0  0.32069  0.91109  0.46273  1.0000
  S   S44       1.0  0.01186  0.71168  0.33611  1.0000
  C   C272      1.0  0.30859  0.92895  0.37509  1.0000
  C   C273      1.0  0.15860  0.94951  0.44241  1.0000
  C   C274      1.0  0.12114  0.68194  0.42243  1.0000
  H   H211      1.0  0.00311  0.72816  0.45859  1.0000
  C   C275      1.0  0.07717  0.53192  0.27512  1.0000
  H   H212      1.0  0.05677  0.58878  0.31232  1.0000
  C   C276      1.0  0.04552  0.67753  0.44622  1.0000
  C   C277      1.0  0.04520  0.69336  0.46352  1.0000
  H   H213      1.0  0.11596  0.92325  0.48479  1.0000
  H   H214      1.0  0.03969  0.79519  0.46958  1.0000
  C   C278      1.0  0.15406  0.96581  0.48205  1.0000
  H   H215      1.0  0.05348  0.68211  0.42675  1.0000
  H   H216      1.0  0.05272  0.71020  0.45723  1.0000
  H   H217      1.0  0.21903  0.92266  0.46966  1.0000
  C   C279      1.0  0.22441  0.53576  0.00929  1.0000
  C   C280      1.0  0.07548  0.75028  0.38211  1.0000
  C   C281      1.0  0.07952  0.73261  0.40346  1.0000
  C   C282      1.0  0.09016  0.73797  0.42400  1.0000
  C   C283      1.0  0.09657  0.76108  0.42362  1.0000
  C   C284      1.0  0.09282  0.77871  0.40214  1.0000
  C   C285      1.0  0.08258  0.77325  0.38131  1.0000
  H   H218      1.0  0.07419  0.71490  0.40428  1.0000
  H   H219      1.0  0.09303  0.72429  0.44054  1.0000
  H   H220      1.0  0.09819  0.79637  0.40150  1.0000
  H   H221      1.0  0.07971  0.78700  0.36482  1.0000
  H   H222      1.0  0.22701  0.88962  0.41228  1.0000
  C   C286      1.0  0.25289  0.92722  0.40336  1.0000
  H   H223      1.0  0.01856  0.84245  0.47298  1.0000
  H   H224      1.0  0.06532  0.63915  0.14805  1.0000
  C   C287      1.0  0.20148  0.64630  0.01509  1.0000
  C   C288      1.0  0.22640  0.96192  0.41551  1.0000
  C   C289      1.0  0.24535  0.59836  0.05261  1.0000
  C   C290      1.0  0.24373  0.57473  0.04903  1.0000
  C   C291      1.0  0.22775  0.56056  0.06583  1.0000
  C   C292      1.0  0.21342  0.57007  0.08611  1.0000
  C   C293      1.0  0.21516  0.59364  0.08949  1.0000
  C   C294      1.0  0.23092  0.60770  0.07281  1.0000
  H   H225      1.0  0.25456  0.56746  0.03325  1.0000
  H   H226      1.0  0.22656  0.54233  0.06313  1.0000
  H   H227      1.0  0.20417  0.60112  0.10505  1.0000
  H   H228      1.0  0.23195  0.62595  0.07563  1.0000
  C   C295      1.0  0.06731  0.52066  0.18144  1.0000
  C   C296      1.0  0.02338  0.62304  0.27368  1.0000
  H   H229      1.0  0.13383  0.69064  0.45560  1.0000
  Fe  Fe20      1.0  0.02716  0.66513  0.39554  1.0000
  H   H230      1.0  0.08744  0.69971  0.48380  1.0000
  H   H231      1.0  0.21595  0.64783  0.02619  1.0000
  H   H232      1.0  0.13644  0.92159  0.44155  1.0000
  C   C297      1.0  0.02695  0.80445  0.40751  1.0000
  H   H233      1.0  0.04260  0.61903  0.26863  1.0000
  H   H234      1.0  0.21886  0.49399  0.16588  1.0000
  S   S45       1.0  0.03387  0.63804  0.43076  1.0000
  C   C298      1.0  0.14105  0.93428  0.45266  1.0000
  S   S46       1.0  0.01335  0.70378  0.39853  1.0000
  C   C299      1.0  0.06199  0.62631  0.16533  1.0000
  C   C300      1.0  0.03888  0.61933  0.17256  1.0000
  C   C301      1.0  0.19461  0.89943  0.46143  1.0000
  C   C302      1.0  0.17706  0.62099  0.99929  1.0000
  C   C303      1.0  0.30061  0.54314  0.07227  1.0000
  C   C304      1.0  0.27060  0.83054  0.42536  1.0000
  C   C305      1.0  0.31061  0.56487  0.06766  1.0000
  H   H235      1.0  0.02425  0.62665  0.16092  1.0000
  H   H236      1.0  0.10229  0.53110  0.18357  1.0000
  H   H237      1.0  0.29978  0.87131  0.37190  1.0000
  H   H238      1.0  0.28285  0.54284  0.06651  1.0000
  H   H239      1.0  0.30034  0.58119  0.05889  1.0000
  C   C306      1.0  0.02529  0.57042  0.31396  1.0000
  C   C307      1.0  0.01496  0.63847  0.29164  1.0000
  H   H240      1.0  0.11330  0.57122  0.17189  1.0000
  C   C308      1.0  0.01587  0.78429  0.18893  1.0000
  H   H241      1.0  0.31406  0.51092  0.03541  1.0000
  H   H242      1.0  0.29895  0.50499  0.99605  1.0000
  H   H243      1.0  0.04207  0.60677  0.35135  1.0000
  C   C309      1.0  0.02557  0.78035  0.40535  1.0000
  H   H244      1.0  0.15084  0.59792  0.22501  1.0000
  H   H245      1.0  0.16490  0.65185  0.46606  1.0000
  C   C310      1.0  0.33411  0.69505  0.01544  1.0000
  H   H246      1.0  0.23826  0.81278  0.43128  1.0000
  H   H247      1.0  0.32248  0.91711  0.42192  1.0000
  H   H248      1.0  0.06363  0.52995  0.29148  1.0000
  C   C311      1.0  0.10328  0.51153  0.15236  1.0000
  H   H249      1.0  0.31082  0.68118  0.07774  1.0000
  Fe  Fe21      1.0  0.25244  0.98599  0.47241  1.0000
  C   C312      1.0  0.30363  0.66443  0.04681  1.0000
  P   P9        1.0  0.02276  0.82858  0.38070  1.0000
  C   C313      1.0  0.16781  0.64216  0.48498  1.0000
  C   C314      1.0  0.01245  0.87735  0.38600  1.0000
  P   P10       1.0  0.27674  0.90279  0.40960  1.0000
  H   H250      1.0  0.32210  0.76674  0.03203  1.0000
  P   P11       1.0  0.30004  0.49400  0.08983  1.0000
  P   P12       1.0  0.16955  0.59117  0.99847  1.0000
  H   H251      1.0  0.20120  0.97939  0.38881  1.0000
  C   C315      1.0  0.10200  0.60645  0.24490  1.0000
  C   C316      1.0  0.31882  0.73215  0.07599  1.0000
  P   P13       1.0  0.10137  0.58697  0.22161  1.0000
  C   C317      1.0  0.30789  0.66368  0.02058  1.0000
  C   C318      1.0  0.09193  0.52198  0.17344  1.0000
  C   C319      1.0  0.28854  0.49028  0.06088  1.0000
  H   H252      1.0  0.14785  0.51032  0.02151  1.0000
  C   C320      1.0  0.06973  0.83936  0.38111  1.0000
  H   H253      1.0  0.30239  0.94356  0.38589  1.0000
  C   C321      1.0  0.11190  0.53663  0.23267  1.0000
  H   H254      1.0  0.07728  0.66132  0.25996  1.0000
  C   C322      1.0  0.22327  0.94891  0.37536  1.0000
  Fe  Fe22      1.0  0.29326  0.60319  0.00326  1.0000
  C   C323      1.0  0.29932  0.90670  0.38227  1.0000
  C   C324      1.0  0.01790  0.80131  0.34334  1.0000
  C   C325      1.0  0.27550  0.89578  0.46264  1.0000
  H   H255      1.0  0.07970  0.63702  0.22566  1.0000
  H   H256      1.0  0.12356  0.57963  0.26957  1.0000
  C   C326      1.0  0.09664  0.85101  0.34305  1.0000
  H   H257      1.0  0.21080  0.85078  0.42268  1.0000
  C   C327      1.0  0.11454  0.65917  0.46532  1.0000
  C   C328      1.0  0.10886  0.51384  0.24681  1.0000
  C   C329      1.0  0.09155  0.51149  0.26803  1.0000
  C   C330      1.0  0.17214  0.58871  0.19098  1.0000
  C   C331      1.0  0.27664  0.74830  0.08467  1.0000
  H   H258      1.0  0.08792  0.63622  0.42231  1.0000
  H   H259      1.0  0.01435  0.91974  0.45898  1.0000
  H   H260      1.0  0.03031  0.74330  0.42338  1.0000
  H   H261      1.0  0.03833  0.69250  0.26908  1.0000
  H   H262      1.0  0.06660  0.83589  0.40180  1.0000
  C   C332      1.0  0.03564  0.65586  0.45395  1.0000
  H   H263      1.0  0.03140  0.79310  0.17981  1.0000
  H   H264      1.0  0.11405  0.85616  0.33433  1.0000
  C   C333      1.0  0.29906  0.50055  0.03689  1.0000
  H   H265      1.0  0.04975  0.57975  0.22656  1.0000
  C   C334      1.0  0.05349  0.59281  0.20966  1.0000
  H   H266      1.0  0.09864  0.62222  0.17441  1.0000
  S   S47       1.0  0.17044  0.48961  0.13095  1.0000
  H   H267      1.0  0.16749  0.94869  0.42329  1.0000
  H   H268      1.0  0.03261  0.82813  0.43343  1.0000
  H   H269      1.0  0.02138  0.76936  0.26586  1.0000
  H   H270      1.0  0.03652  0.79376  0.34549  1.0000
  C   C335      1.0  0.12426  0.67826  0.44850  1.0000
  H   H271      1.0  0.25788  0.88987  0.46307  1.0000
  H   H272      1.0  0.04075  0.75273  0.46406  1.0000
  H   H273      1.0  0.28252  0.81395  0.42974  1.0000
  S   S48       1.0  0.29575  0.56884  0.98725  1.0000
  H   H274      1.0  0.03607  0.76067  0.21687  1.0000
  H   H275      1.0  0.15142  0.56651  0.14363  1.0000
  C   C336      1.0  0.03123  0.59514  0.34477  1.0000
  H   H276      1.0  0.06870  0.57041  0.26655  1.0000
  C   C337      1.0  0.15112  0.57368  0.16126  1.0000
  H   H277      1.0  0.11978  0.49796  0.24111  1.0000
  C   C338      1.0  0.03181  0.80971  0.43101  1.0000
  H   H278      1.0  0.09324  0.62948  0.46812  1.0000
  C   C339      1.0  0.08088  0.61649  0.18023  1.0000
  C   C340      1.0  0.06168  0.70960  0.28702  1.0000
  C   C341      1.0  0.06657  0.73120  0.29329  1.0000
  C   C342      1.0  0.05223  0.75274  0.28527  1.0000
  C   C343      1.0  0.03294  0.75268  0.27100  1.0000
  C   C344      1.0  0.02276  0.69301  0.22297  1.0000
  C   C345      1.0  0.04249  0.70953  0.27268  1.0000
  C   C346      1.0  0.09014  0.49931  0.13931  1.0000
  C   C347      1.0  0.21549  0.96475  0.39287  1.0000
  C   C348      1.0  0.20219  0.55018  0.01207  1.0000
  H   H279      1.0  0.03982  0.50334  0.25930  1.0000
  C   C349      1.0  0.02294  0.67159  0.21327  1.0000
  H   H280      1.0  0.20622  0.60767  0.02296  1.0000
  C   C350      1.0  0.01932  0.88095  0.46464  1.0000
  H   H281      1.0  0.12927  0.56144  0.01029  1.0000
  H   H282      1.0  0.10595  0.84767  0.38157  1.0000
  C   C351      1.0  0.27499  0.49451  0.11482  1.0000
  C   C352      1.0  0.05398  0.50879  0.16816  1.0000
  C   C353      1.0  0.31439  0.68070  0.05738  1.0000
  C   C354      1.0  0.32398  0.73957  0.09831  1.0000
  H   H283      1.0  0.26460  0.53330  0.10806  1.0000
  C   C355      1.0  0.08001  0.55474  0.26089  1.0000
  H   H284      1.0  0.03494  0.50771  0.17414  1.0000
  C   C356      1.0  0.26461  0.87426  0.41409  1.0000
  C   C357      1.0  0.03031  0.76186  0.42573  1.0000
  H   H285      1.0  0.30298  0.97006  0.45375  1.0000
  H   H286      1.0  0.07208  0.69273  0.29423  1.0000
  H   H287      1.0  0.08090  0.73114  0.30521  1.0000
  H   H288      1.0  0.05561  0.76927  0.29104  1.0000
  C   C358      1.0  0.08929  0.62978  0.24221  1.0000
  C   C359      1.0  0.20805  0.90838  0.47747  1.0000
  C   C360      1.0  0.33209  0.96801  0.42377  1.0000
  C   C361      1.0  0.03606  0.79113  0.45151  1.0000
  C   C362      1.0  0.00710  0.61229  0.26260  1.0000
  Fe  Fe23      1.0  0.02560  0.67219  0.33827  1.0000
  Fe  Fe24      1.0  0.01416  0.53534  0.22105  1.0000
  C   C363      1.0  0.19590  0.62347  0.01326  1.0000
  H   H289      1.0  0.01375  0.60028  0.24900  1.0000
  H   H290      1.0  0.04249  0.84176  0.32691  1.0000
  C   C364      1.0  0.03956  0.58490  0.32282  1.0000
  C   C365      1.0  0.10821  0.66670  0.41295  1.0000
  C   C366      1.0  0.30717  0.88833  0.36747  1.0000
  C   C367      1.0  0.32975  0.69615  0.04175  1.0000
  H   H291      1.0  0.12223  0.51279  0.14633  1.0000
  H   H292      1.0  0.18909  0.57758  0.15550  1.0000
  C   C368      1.0  0.02585  0.64970  0.47940  1.0000
  H   H293      1.0  0.12809  0.69713  0.40973  1.0000
  H   H294      1.0  0.01674  0.59732  0.20048  1.0000
  C   C369      1.0  0.17240  0.57986  0.16804  1.0000
  C   C370      1.0  0.29049  0.49717  0.01447  1.0000
  C   C371      1.0  0.05627  0.84255  0.33911  1.0000
  C   C372      1.0  0.19785  0.57197  0.99534  1.0000
  C   C373      1.0  0.00866  0.59092  0.35789  1.0000
  C   C374      1.0  0.32457  0.89199  0.34632  1.0000
  H   H295      1.0  0.29923  0.85304  0.41983  1.0000
  C   C375      1.0  0.09725  0.55727  0.23935  1.0000
  H   H296      1.0  0.12554  0.53786  0.21644  1.0000
  H   H297      1.0  0.29199  0.65229  0.05884  1.0000
  C   C376      1.0  0.32297  0.67906  0.00492  1.0000
  C   C377      1.0  0.31160  0.91111  0.43948  1.0000
  C   C378      1.0  0.28001  0.85267  0.41954  1.0000
  C   C379      1.0  0.11241  0.61169  0.28634  1.0000
  C   C380      1.0  0.29503  0.73683  0.06916  1.0000
  C   C381      1.0  0.12958  0.57637  0.17734  1.0000
  C   C382      1.0  0.24570  0.82984  0.42624  1.0000
  C   C383      1.0  0.11378  0.59762  0.26700  1.0000
  H   H298      1.0  0.24315  0.66774  0.98744  1.0000
  C   C384      1.0  0.24204  0.54264  0.98946  1.0000
  C   C385      1.0  0.23958  0.87336  0.41523  1.0000
  H   H299      1.0  0.29968  0.65099  0.01241  1.0000
  C   C386      1.0  0.23022  0.85124  0.42124  1.0000
  C   C387      1.0  0.24512  0.94331  0.42076  1.0000
  C   C388      1.0  0.28883  0.90358  0.43925  1.0000
  H   H300      1.0  0.30966  0.75663  0.13101  1.0000
  C   C389      1.0  0.10160  0.64389  0.45562  1.0000
  C   C390      1.0  0.24198  0.93027  0.38051  1.0000
  H   H301      1.0  0.22987  0.53271  0.14073  1.0000
  H   H302      1.0  0.25357  0.94186  0.43822  1.0000
  H   H303      1.0  0.03140  0.56292  0.29665  1.0000
  C   C391      1.0  0.11700  0.56131  0.05002  1.0000
  C   C392      1.0  0.12109  0.56796  0.07301  1.0000
  C   C393      1.0  0.14063  0.58057  0.07366  1.0000
  C   C394      1.0  0.15562  0.58722  0.05123  1.0000
  C   C395      1.0  0.15110  0.58140  0.02785  1.0000
  C   C396      1.0  0.13221  0.56758  0.02764  1.0000
  C   C397      1.0  0.26083  0.51618  0.11917  1.0000
  H   H304      1.0  0.29069  0.73168  0.05179  1.0000
  H   H305      1.0  0.24790  0.91813  0.36676  1.0000
  H   H306      1.0  0.03948  0.66333  0.20393  1.0000
  C   C398      1.0  0.28189  0.75538  0.10698  1.0000
  C   C399      1.0  0.30839  0.97511  0.43367  1.0000
  C   C400      1.0  0.07869  0.84931  0.32776  1.0000
  C   C401      1.0  0.30555  0.75105  0.11376  1.0000
  H   H307      1.0  0.11978  0.61015  0.98869  1.0000
  H   H308      1.0  0.10513  0.67004  0.39291  1.0000
  C   C402      1.0  0.06542  0.49820  0.14708  1.0000
  H   H309      1.0  0.21490  0.95115  0.35773  1.0000
  H   H310      1.0  0.18857  0.54419  0.02718  1.0000
  C   C403      1.0  0.18022  0.88086  0.47124  1.0000
  C   C404      1.0  0.09210  0.84618  0.36969  1.0000
  H   H311      1.0  0.25831  0.75175  0.07934  1.0000
  C   C405      1.0  0.08794  0.64376  0.26160  1.0000
  H   H312      1.0  0.12107  0.60460  0.30362  1.0000
  C   C406      1.0  0.15060  0.59132  0.20722  1.0000
  H   H313      1.0  0.10261  0.55047  0.04978  1.0000
  H   H314      1.0  0.10985  0.56226  0.09052  1.0000
  H   H315      1.0  0.14465  0.58458  0.09170  1.0000
  H   H316      1.0  0.17087  0.59654  0.05241  1.0000
  C   C407      1.0  0.09930  0.63466  0.28374  1.0000
  C   C408      1.0  0.31354  0.52186  0.08385  1.0000
  C   C409      1.0  0.01841  0.76600  0.21009  1.0000
  C   C410      1.0  0.03464  0.60273  0.19479  1.0000
  C   C411      1.0  0.24093  0.51597  0.13782  1.0000
  C   C412      1.0  0.17650  0.49690  0.99486  1.0000
  H   H317      1.0  0.18872  0.59334  0.19625  1.0000
  H   H318      1.0  0.26764  0.76428  0.11899  1.0000
  C   C413      1.0  0.07685  0.59935  0.20235  1.0000
  H   H319      1.0  0.01316  0.77682  0.31833  1.0000
  H   H320      1.0  0.00273  0.59875  0.37508  1.0000
  H   H321      1.0  0.20583  0.63266  0.47440  1.0000
  C   C414      1.0  0.00826  0.85994  0.47368  1.0000
  Fe  Fe25      1.0  0.18360  0.48824  0.05822  1.0000
  H   H322      1.0  0.01799  0.63301  0.48537  1.0000
  H   H323      1.0  0.08911  0.49378  0.27882  1.0000
  H   H324      1.0  0.17851  0.97723  0.44911  1.0000
  H   H325      1.0  0.02811  0.88064  0.37243  1.0000
  S   S49       1.0  0.33232  0.59869  0.01065  1.0000
  H   H326      1.0  0.22785  0.51908  0.02239  1.0000
  S   S50       1.0  0.21251  0.49108  0.08238  1.0000
  C   C415      1.0  0.18858  0.66693  0.00254  1.0000
  H   H327      1.0  0.19300  0.68462  0.00389  1.0000
  C   C416      1.0  0.12981  0.93494  0.47750  1.0000
  H   H328      1.0  0.33056  0.87786  0.33486  1.0000
  C   C417      1.0  0.32615  0.93244  0.35416  1.0000
  C   C418      1.0  0.23477  0.49418  0.15207  1.0000
  H   H329      1.0  0.00489  0.91455  0.39137  1.0000
  C   C419      1.0  0.00476  0.79180  0.32772  1.0000
  C   C420      1.0  0.00590  0.90351  0.46599  1.0000
  H   H330      1.0  0.05515  0.48915  0.13669  1.0000
  S   S51       1.0  0.00275  0.54645  0.25956  1.0000
  C   C421      1.0  0.00273  0.56611  0.32704  1.0000
  C   C422      1.0  0.00668  0.81931  0.35744  1.0000
  C   C423      1.0  0.00567  0.85401  0.39346  1.0000
  C   C424      1.0  0.33401  0.56542  0.07371  1.0000
  C   C425      1.0  0.28478  0.89556  0.48581  1.0000
  S   S52       1.0  0.21665  0.97248  0.48644  1.0000
  C   C426      1.0  0.30730  0.90331  0.48588  1.0000
  H   H331      1.0  0.33362  0.94948  0.34912  1.0000
  C   C427      1.0  0.33415  0.91399  0.33976  1.0000
  H   H332      1.0  0.11937  0.52523  0.98835  1.0000
  C   C428      1.0  0.17018  0.66467  0.98802  1.0000
  S   S53       1.0  0.23257  0.96846  0.54506  1.0000
  H   H333      1.0  0.05747  0.90708  0.57521  1.0000
  C   C429      1.0  0.20796  0.89820  0.50333  1.0000
  S   S54       1.0  0.29359  0.58578  0.91189  1.0000
  H   H334      1.0  0.13882  0.62678  0.54463  1.0000
  C   C430      1.0  0.07171  0.53981  0.71281  1.0000
  S   S55       1.0  0.02931  0.61839  0.60834  1.0000
  H   H335      1.0  0.07031  0.66521  0.52649  1.0000
  S   S56       1.0  0.13727  0.56337  0.86932  1.0000
  P   P14       1.0  0.11845  0.65476  0.49906  1.0000
  C   C431      1.0  0.16727  0.50179  0.95098  1.0000
  C   C432      1.0  0.01663  0.60268  0.63733  1.0000
  Fe  Fe26      1.0  0.17721  0.56558  0.86344  1.0000
  S   S57       1.0  0.19108  0.59894  0.87107  1.0000
  S   S58       1.0  0.09727  0.81962  0.55432  1.0000
  Fe  Fe27      1.0  0.01989  0.65877  0.59770  1.0000
  C   C433      1.0  0.31103  0.67246  0.88147  1.0000
  S   S59       1.0  0.12468  0.52395  0.93391  1.0000
  Fe  Fe28      1.0  0.03534  0.70728  0.60170  1.0000
  C   C434      1.0  0.27257  0.71407  0.83819  1.0000
  S   S60       1.0  0.05959  0.72551  0.62061  1.0000
  S   S61       1.0  0.03454  0.70862  0.50925  1.0000
  H   H336      1.0  0.27941  0.68854  0.97199  1.0000
  S   S62       1.0  0.18609  0.53239  0.89136  1.0000
  S   S63       1.0  0.18269  0.54650  0.82908  1.0000
  S   S64       1.0  0.05035  0.67916  0.57763  1.0000
  C   C435      1.0  0.08548  0.59564  0.53375  1.0000
  C   C436      1.0  0.26339  0.72907  0.87862  1.0000
  H   H337      1.0  0.17064  0.93003  0.53004  1.0000
  C   C437      1.0  0.09521  0.72532  0.50571  1.0000
  S   S65       1.0  0.22659  0.90741  0.52337  1.0000
  H   H338      1.0  0.24420  0.56593  0.79339  1.0000
  H   H339      1.0  0.26804  0.74057  0.80431  1.0000
  C   C438      1.0  0.10241  0.52839  0.79677  1.0000
  C   C439      1.0  0.21602  0.57915  0.97597  1.0000
  C   C440      1.0  0.23671  0.66292  0.94973  1.0000
  C   C441      1.0  0.17659  0.61713  0.53366  1.0000
  C   C442      1.0  0.25747  0.50732  0.89759  1.0000
  H   H340      1.0  0.02325  0.65040  0.67441  1.0000
  H   H341      1.0  0.03017  0.76757  0.65116  1.0000
  C   C443      1.0  0.24508  0.66614  0.92364  1.0000
  C   C444      1.0  0.25283  0.53007  0.81372  1.0000
  H   H342      1.0  0.28867  0.48892  0.96008  1.0000
  C   C445      1.0  0.11617  0.50641  0.79337  1.0000
  H   H343      1.0  0.11754  0.97852  0.56789  1.0000
  C   C446      1.0  0.07043  0.75106  0.60123  1.0000
  C   C447      1.0  0.06854  0.75606  0.57479  1.0000
  C   C448      1.0  0.15325  0.62798  0.52906  1.0000
  C   C449      1.0  0.06977  0.51695  0.77681  1.0000
  C   C450      1.0  0.08902  0.78778  0.59807  1.0000
  C   C451      1.0  0.08096  0.76683  0.61271  1.0000
  H   H344      1.0  0.06068  0.74381  0.56573  1.0000
  H   H345      1.0  0.18668  0.95579  0.59620  1.0000
  H   H346      1.0  0.09688  0.80001  0.60718  1.0000
  H   H347      1.0  0.08254  0.76303  0.63306  1.0000
  H   H348      1.0  0.10775  0.54599  0.69634  1.0000
  Fe  Fe29      1.0  0.30485  0.59172  0.94932  1.0000
  C   C452      1.0  0.13534  0.96845  0.56601  1.0000
  C   C453      1.0  0.07703  0.77695  0.56000  1.0000
  H   H349      1.0  0.01904  0.83332  0.59825  1.0000
  C   C454      1.0  0.01353  0.64635  0.69320  1.0000
  H   H350      1.0  0.12012  0.86456  0.54451  1.0000
  H   H351      1.0  0.06867  0.55066  0.79069  1.0000
  H   H352      1.0  0.27428  0.88964  0.50376  1.0000
  H   H353      1.0  0.19827  0.93031  0.56231  1.0000
  C   C455      1.0  0.05849  0.63094  0.54283  1.0000
  C   C456      1.0  0.24907  0.67101  0.96713  1.0000
  H   H354      1.0  0.07968  0.86712  0.56912  1.0000
  C   C457      1.0  0.26329  0.58663  0.90562  1.0000
  C   C458      1.0  0.25788  0.57078  0.89030  1.0000
  C   C459      1.0  0.23512  0.57346  0.88116  1.0000
  C   C460      1.0  0.21772  0.59252  0.88670  1.0000
  C   C461      1.0  0.22270  0.60788  0.90290  1.0000
  C   C462      1.0  0.24535  0.60469  0.91266  1.0000
  H   H355      1.0  0.27154  0.55673  0.88492  1.0000
  H   H356      1.0  0.23153  0.56154  0.86867  1.0000
  H   H357      1.0  0.20927  0.62261  0.90730  1.0000
  H   H358      1.0  0.24942  0.61677  0.92464  1.0000
  H   H359      1.0  0.05196  0.66459  0.73516  1.0000
  H   H360      1.0  0.04095  0.57024  0.63373  1.0000
  C   C463      1.0  0.06406  0.65067  0.74540  1.0000
  H   H361      1.0  0.07539  0.94443  0.55611  1.0000
  H   H362      1.0  0.19337  0.87164  0.53319  1.0000
  H   H363      1.0  0.16851  0.85684  0.50508  1.0000
  H   H364      1.0  0.10673  0.74731  0.52982  1.0000
  H   H365      1.0  0.05113  0.59456  0.55711  1.0000
  C   C464      1.0  0.01307  0.51608  0.87172  1.0000
  C   C465      1.0  0.07693  0.97840  0.51140  1.0000
  C   C466      1.0  0.08371  0.49524  0.77279  1.0000
  C   C467      1.0  0.26633  0.67685  0.91491  1.0000
  Fe  Fe30      1.0  0.18839  0.51271  0.85817  1.0000
  P   P15       1.0  0.27860  0.67954  0.88165  1.0000
  H   H366      1.0  0.09055  0.51892  0.89825  1.0000
  C   C468      1.0  0.02505  0.88898  0.53491  1.0000
  Fe  Fe31      1.0  0.26700  0.98289  0.52607  1.0000
  C   C469      1.0  0.01286  0.54432  0.81046  1.0000
  H   H367      1.0  0.01726  0.66143  0.51629  1.0000
  C   C470      1.0  0.23787  0.56432  0.97286  1.0000
  C   C471      1.0  0.25928  0.75652  0.83866  1.0000
  C   C472      1.0  0.02652  0.54584  0.89273  1.0000
  C   C473      1.0  0.27087  0.70974  0.86508  1.0000
  C   C474      1.0  0.19552  0.61876  0.51396  1.0000
  H   H368      1.0  0.31244  0.48869  0.81664  1.0000
  C   C475      1.0  0.25450  0.49815  0.94392  1.0000
  C   C476      1.0  0.26650  0.65892  0.86567  1.0000
  C   C477      1.0  0.24298  0.66461  0.85811  1.0000
  C   C478      1.0  0.23326  0.64874  0.84599  1.0000
  C   C479      1.0  0.24699  0.62723  0.84107  1.0000
  C   C480      1.0  0.27042  0.62153  0.84835  1.0000
  C   C481      1.0  0.28016  0.63724  0.86061  1.0000
  C   C482      1.0  0.02065  0.76924  0.52123  1.0000
  H   H369      1.0  0.00502  0.55479  0.86109  1.0000
  C   C483      1.0  0.16307  0.58100  0.95035  1.0000
  C   C484      1.0  0.11405  0.68373  0.50986  1.0000
  H   H370      1.0  0.23537  0.65946  0.91061  1.0000
  P   P16       1.0  0.30165  0.50597  0.86608  1.0000
  C   C485      1.0  0.15143  0.96905  0.58383  1.0000
  H   H371      1.0  0.23889  0.52258  0.80636  1.0000
  C   C486      1.0  0.02551  0.80197  0.62645  1.0000
  C   C487      1.0  0.19113  0.63128  0.48965  1.0000
  H   H372      1.0  0.30087  0.55728  0.84252  1.0000
  H   H373      1.0  0.22389  0.50735  0.92220  1.0000
  H   H374      1.0  0.04726  0.53171  0.92464  1.0000
  C   C488      1.0  0.32757  0.53637  0.88481  1.0000
  H   H375      1.0  0.23196  0.68105  0.86208  1.0000
  H   H376      1.0  0.21477  0.65262  0.84113  1.0000
  H   H377      1.0  0.23902  0.61448  0.83269  1.0000
  H   H378      1.0  0.28069  0.60436  0.84572  1.0000
  H   H379      1.0  0.21308  0.59595  0.96291  1.0000
  C   C489      1.0  0.07488  0.90608  0.56384  1.0000
  C   C490      1.0  0.08742  0.88355  0.56060  1.0000
  C   C491      1.0  0.11022  0.88208  0.54662  1.0000
  C   C492      1.0  0.12022  0.90310  0.53524  1.0000
  C   C493      1.0  0.10732  0.92584  0.53750  1.0000
  C   C494      1.0  0.08495  0.92718  0.55268  1.0000
  P   P17       1.0  0.12118  0.95274  0.52395  1.0000
  C   C495      1.0  0.14228  0.95490  0.54604  1.0000
  C   C496      1.0  0.01602  0.56534  0.66793  1.0000
  H   H380      1.0  0.13407  0.50225  0.79972  1.0000
  H   H381      1.0  0.10627  0.60091  0.78373  1.0000
  H   H382      1.0  0.03774  0.75766  0.52031  1.0000
  C   C497      1.0  0.02119  0.77810  0.63527  1.0000
  C   C498      1.0  0.07020  0.62814  0.73724  1.0000
  C   C499      1.0  0.16508  0.94114  0.54485  1.0000
  C   C500      1.0  0.18083  0.94125  0.56313  1.0000
  C   C501      1.0  0.08714  0.79290  0.57170  1.0000
  H   H383      1.0  0.02047  0.61747  0.75403  1.0000
  C   C502      1.0  0.01612  0.78586  0.53822  1.0000
  C   C503      1.0  0.02409  0.49763  0.88924  1.0000
  C   C504      1.0  0.08990  0.55428  0.70258  1.0000
  H   H384      1.0  0.25478  0.77457  0.82845  1.0000
  S   S66       1.0  0.01074  0.72772  0.57347  1.0000
  Fe  Fe32      1.0  0.23710  0.94536  0.51399  1.0000
  S   S67       1.0  0.13448  0.80980  0.48795  1.0000
  H   H385      1.0  0.27843  0.69940  0.82739  1.0000
  C   C505      1.0  0.04873  0.55046  0.72100  1.0000
  C   C506      1.0  0.08518  0.57936  0.70086  1.0000
  C   C507      1.0  0.02310  0.84666  0.53467  1.0000
  H   H386      1.0  0.07552  0.78085  0.53964  1.0000
  H   H387      1.0  0.25183  0.76723  0.87594  1.0000
  C   C508      1.0  0.10193  0.61048  0.51940  1.0000
  C   C509      1.0  0.13723  0.51643  0.98312  1.0000
  C   C510      1.0  0.01484  0.81513  0.60513  1.0000
  C   C511      1.0  0.06384  0.60590  0.54565  1.0000
  C   C512      1.0  0.04392  0.57546  0.71928  1.0000
  H   H388      1.0  0.15921  0.97820  0.49321  1.0000
  C   C513      1.0  0.07927  0.53361  0.78831  1.0000
  H   H389      1.0  0.03368  0.90511  0.52771  1.0000
  C   C514      1.0  0.13653  0.95046  0.49252  1.0000
  C   C515      1.0  0.06220  0.59009  0.70955  1.0000
  S   S68       1.0  0.10222  0.86264  0.49034  1.0000
  S   S69       1.0  0.11351  0.55013  0.81085  1.0000
  C   C516      1.0  0.08873  0.63749  0.78062  1.0000
  C   C517      1.0  0.09698  0.63570  0.51722  1.0000
  H   H390      1.0  0.02589  0.58311  0.72549  1.0000
  H   H391      1.0  0.05179  0.52103  0.77076  1.0000
  H   H392      1.0  0.02978  0.78705  0.55037  1.0000
  C   C518      1.0  0.17945  0.87122  0.49731  1.0000
  C   C519      1.0  0.09984  0.97965  0.51872  1.0000
  H   H393      1.0  0.22100  0.65352  0.95651  1.0000
  C   C520      1.0  0.26676  0.73737  0.82506  1.0000
  S   S70       1.0  0.29950  0.62646  0.96488  1.0000
  C   C521      1.0  0.12392  0.71072  0.53677  1.0000
  C   C522      1.0  0.19355  0.87964  0.51320  1.0000
  H   H394      1.0  0.13804  0.90151  0.52466  1.0000
  C   C523      1.0  0.28469  0.52491  0.84185  1.0000
  C   C524      1.0  0.03438  0.86747  0.52605  1.0000
  C   C525      1.0  0.12675  0.68789  0.52945  1.0000
  H   H395      1.0  0.09215  0.67411  0.61433  1.0000
  Fe  Fe33      1.0  0.02330  0.69768  0.55098  1.0000
  S   S71       1.0  0.00366  0.50437  0.76161  1.0000
  H   H396      1.0  0.31072  0.54201  0.89554  1.0000
  H   H397      1.0  0.27569  0.58294  0.81102  1.0000
  H   H398      1.0  0.21362  0.61042  0.51756  1.0000
  C   C526      1.0  0.01405  0.54025  0.87383  1.0000
  P   P18       1.0  0.05713  0.62213  0.70999  1.0000
  C   C527      1.0  0.28285  0.50342  0.89639  1.0000
  C   C528      1.0  0.08672  0.66354  0.63264  1.0000
  C   C529      1.0  0.08838  0.67211  0.65529  1.0000
  C   C530      1.0  0.08040  0.65914  0.67895  1.0000
  H   H399      1.0  0.08137  0.66650  0.69609  1.0000
  H   H400      1.0  0.06080  0.61273  0.65742  1.0000
  C   C531      1.0  0.18341  0.49377  0.96946  1.0000
  Fe  Fe34      1.0  0.10143  0.82472  0.51122  1.0000
  C   C532      1.0  0.02519  0.63278  0.71383  1.0000
  C   C533      1.0  0.07721  0.64189  0.63361  1.0000
  C   C534      1.0  0.07070  0.63741  0.68009  1.0000
  H   H401      1.0  0.03782  0.80997  0.63561  1.0000
  C   C535      1.0  0.25579  0.55446  0.80654  1.0000
  C   C536      1.0  0.28781  0.54937  0.83432  1.0000
  C   C537      1.0  0.27345  0.56404  0.81661  1.0000
  H   H402      1.0  0.15018  0.64056  0.97498  1.0000
  C   C538      1.0  0.06908  0.62894  0.65719  1.0000
  H   H403      1.0  0.07534  0.63552  0.61602  1.0000
  H   H404      1.0  0.00569  0.75309  0.49412  1.0000
  C   C539      1.0  0.15262  0.59170  0.97161  1.0000
  Fe  Fe35      1.0  0.14315  0.54100  0.83773  1.0000
  H   H405      1.0  0.31415  0.90360  0.50391  1.0000
  H   H406      1.0  0.18142  0.57212  0.94925  1.0000
  H   H407      1.0  0.09607  0.60977  0.95274  1.0000
  H   H408      1.0  0.03451  0.53940  0.72879  1.0000
  H   H409      1.0  0.07543  0.52033  0.71458  1.0000
  C   C540      1.0  0.32681  0.68819  0.86714  1.0000
  H   H410      1.0  0.30880  0.63929  0.90844  1.0000
  S   S72       1.0  0.27349  0.95687  0.49778  1.0000
  C   C541      1.0  0.08544  0.61021  0.75135  1.0000
  C   C542      1.0  0.26964  0.68261  0.95844  1.0000
  H   H411      1.0  0.26194  0.72629  0.89932  1.0000
  Fe  Fe36      1.0  0.14653  0.52882  0.89530  1.0000
  H   H412      1.0  0.09016  0.59241  0.74619  1.0000
  S   S73       1.0  0.02985  0.49901  0.70331  1.0000
  C   C543      1.0  0.09463  0.61492  0.77290  1.0000
  H   H413      1.0  0.05014  0.86698  0.51204  1.0000
  C   C544      1.0  0.12834  0.60217  0.97229  1.0000
  H   H414      1.0  0.02698  0.57028  0.77960  1.0000
  H   H415      1.0  0.15789  0.57287  0.91379  1.0000
  C   C545      1.0  0.25762  0.75237  0.86541  1.0000
  H   H416      1.0  0.02980  0.54018  0.81897  1.0000
  H   H417      1.0  0.09506  0.68932  0.65433  1.0000
  H   H418      1.0  0.13380  0.71400  0.55175  1.0000
  C   C546      1.0  0.01180  0.62784  0.73786  1.0000
  H   H419      1.0  0.11511  0.59100  0.91520  1.0000
  C   C547      1.0  0.24342  0.50471  0.92131  1.0000
  H   H420      1.0  0.02331  0.54682  0.67369  1.0000
  H   H421      1.0  0.17998  0.60755  0.55256  1.0000
  H   H422      1.0  0.06874  0.67282  0.77298  1.0000
  C   C548      1.0  0.12551  0.59149  0.93086  1.0000
  C   C549      1.0  0.14961  0.58114  0.93004  1.0000
  C   C550      1.0  0.02598  0.57865  0.64524  1.0000
  C   C551      1.0  0.11484  0.60200  0.95200  1.0000
  H   H423      1.0  0.13894  0.67373  0.53904  1.0000
  C   C552      1.0  0.32869  0.51875  0.86911  1.0000
  H   H424      1.0  0.29487  0.69359  0.92623  1.0000
  H   H425      1.0  0.25167  0.56957  0.95759  1.0000
  H   H426      1.0  0.09595  0.64102  0.79734  1.0000
  C   C553      1.0  0.00627  0.76733  0.62275  1.0000
  C   C554      1.0  0.07491  0.64583  0.52857  1.0000
  H   H427      1.0  0.09959  0.59034  0.69338  1.0000
  C   C555      1.0  0.03621  0.50328  0.90836  1.0000
  H   H428      1.0  0.08300  0.73982  0.49642  1.0000
  C   C556      1.0  0.07343  0.65535  0.76690  1.0000
  C   C557      1.0  0.09793  0.70254  0.49843  1.0000
  C   C558      1.0  0.17419  0.95544  0.58239  1.0000
  H   H429      1.0  0.31998  0.70447  0.85507  1.0000
  H   H430      1.0  0.04155  0.63879  0.55183  1.0000
  H   H431      1.0  0.07174  0.96126  0.50913  1.0000
  S   S74       1.0  0.14952  0.50591  0.86441  1.0000
  C   C559      1.0  0.27837  0.68537  0.93247  1.0000
  C   C560      1.0  0.27973  0.49435  0.94283  1.0000
  C   C561      1.0  0.03755  0.52737  0.91002  1.0000
  C   C562      1.0  0.10843  0.72950  0.52464  1.0000
  H   H432      1.0  0.24830  0.51212  0.88045  1.0000
  H   H433      1.0  0.08947  0.57621  0.53570  1.0000
  S   S75       1.0  0.00705  0.68552  0.62435  1.0000
  C   C563      1.0  0.14434  0.51342  0.95761  1.0000
  H   H434      1.0  0.03068  0.83035  0.52729  1.0000
  H   H435      1.0  0.02752  0.56451  0.89408  1.0000
  H   H436      1.0  0.29807  0.63188  0.86657  1.0000
  C   C564      1.0  0.29378  0.49707  0.91924  1.0000
  C   C565      1.0  0.32062  0.65167  0.89718  1.0000
  C   C566      1.0  0.14865  0.64055  0.50465  1.0000
  H   H437      1.0  0.16034  0.68064  0.97804  1.0000
  C   C567      1.0  0.26739  0.51534  0.83108  1.0000
  H   H438      1.0  0.31324  0.49388  0.91882  1.0000
  H   H439      1.0  0.04483  0.48900  0.92174  1.0000
  C   C568      1.0  0.10689  0.48999  0.78124  1.0000
  C   C569      1.0  0.01137  0.56133  0.78809  1.0000
  H   H440      1.0  0.17235  0.49829  0.93174  1.0000
  H   H441      1.0  0.27483  0.98183  0.59023  1.0000
  H   H442      1.0  0.26469  0.49654  0.83671  1.0000
  C   C570      1.0  0.02539  0.66575  0.49684  1.0000
  H   H443      1.0  0.11852  0.60229  0.51009  1.0000
  H   H444      1.0  0.28399  0.98728  0.63310  1.0000
  H   H445      1.0  0.14625  0.97999  0.59880  1.0000
  H   H446      1.0  0.04679  0.49235  0.83549  1.0000
  H   H447      1.0  0.24342  0.49582  0.96214  1.0000
  C   C571      1.0  0.08869  0.50240  0.86527  1.0000
  C   C572      1.0  0.09356  0.50227  0.89035  1.0000
  C   C573      1.0  0.00462  0.88959  0.55285  1.0000
  H   H448      1.0  0.08184  0.51911  0.85376  1.0000
  C   C574      1.0  0.00271  0.76676  0.50631  1.0000
  H   H449      1.0  0.00364  0.74855  0.62903  1.0000
  C   C575      1.0  0.03506  0.68762  0.48877  1.0000
  H   H450      1.0  0.32640  0.67828  0.98462  1.0000
  C   C576      1.0  0.00225  0.84720  0.55227  1.0000
  S   S76       1.0  0.07484  0.81556  0.48762  1.0000
  H   H451      1.0  0.25899  0.53127  0.98689  1.0000
  C   C577      1.0  0.16441  0.64180  0.98638  1.0000
  H   H452      1.0  0.60061  0.44898  0.04086  1.0000
  S   S77       1.0  0.47057  0.22691  0.03117  1.0000
  S   S78       1.0  0.65729  0.31081  0.01331  1.0000
  C   C578      1.0  0.63235  0.00830  0.15550  1.0000
  C   C579      1.0  0.34649  0.44468  0.13125  1.0000
  H   H453      1.0  0.34617  0.44981  0.99032  1.0000
  S   S79       1.0  0.39718  0.04371  0.27917  1.0000
  Fe  Fe37      1.0  0.47990  0.08642  0.15564  1.0000
  S   S80       1.0  0.49994  0.11613  0.16230  1.0000
  S   S81       1.0  0.43972  0.08644  0.16670  1.0000
  Fe  Fe38      1.0  0.52523  0.05889  0.13302  1.0000
  S   S82       1.0  0.54906  0.08532  0.13930  1.0000
  C   C580      1.0  0.60742  0.03622  0.24141  1.0000
  Fe  Fe39      1.0  0.52726  0.08564  0.17735  1.0000
  S   S83       1.0  0.54020  0.08577  0.21576  1.0000
  Fe  Fe40      1.0  0.51984  0.11309  0.12349  1.0000
  S   S84       1.0  0.53536  0.14129  0.09296  1.0000
  S   S85       1.0  0.50592  0.05631  0.17275  1.0000
  S   S86       1.0  0.49716  0.08642  0.11509  1.0000
  H   H454      1.0  0.35297  0.44218  0.14994  1.0000
  P   P19       1.0  0.65403  0.46053  0.12111  1.0000
  H   H455      1.0  0.42927  0.44809  0.99269  1.0000
  H   H456      1.0  0.39446  0.03868  0.18025  1.0000
  C   C581      1.0  0.60627  0.04542  0.21530  1.0000
  C   C582      1.0  0.58551  0.06024  0.20697  1.0000
  C   C583      1.0  0.56636  0.06677  0.22492  1.0000
  C   C584      1.0  0.56811  0.05846  0.25103  1.0000
  H   H457      1.0  0.42628  0.35065  0.00101  1.0000
  H   H458      1.0  0.58440  0.06675  0.18679  1.0000
  H   H459      1.0  0.55357  0.06383  0.26490  1.0000
  C   C585      1.0  0.41024  0.05465  0.24812  1.0000
  C   C586      1.0  0.43135  0.04299  0.23646  1.0000
  C   C587      1.0  0.44096  0.05264  0.21155  1.0000
  C   C588      1.0  0.42926  0.07383  0.19825  1.0000
  C   C589      1.0  0.40817  0.08527  0.21004  1.0000
  C   C590      1.0  0.39905  0.07605  0.23498  1.0000
  C   C591      1.0  0.65074  0.09444  0.44894  1.0000
  H   H460      1.0  0.39903  0.10158  0.19996  1.0000
  H   H461      1.0  0.38289  0.08529  0.24393  1.0000
  H   H462      1.0  0.64445  0.07861  0.39557  1.0000
  H   H463      1.0  0.62727  0.44973  0.17276  1.0000
  S   S87       1.0  0.54397  0.02834  0.11356  1.0000
  C   C592      1.0  0.41293  0.02141  0.10018  1.0000
  C   C593      1.0  0.60941  0.32998  0.01204  1.0000
  C   C594      1.0  0.51477  0.98955  0.99942  1.0000
  H   H464      1.0  0.63677  0.30273  0.07123  1.0000
  H   H465      1.0  0.34855  0.02732  0.25070  1.0000
  H   H466      1.0  0.34698  0.36148  0.05312  1.0000
  C   C595      1.0  0.35385  0.42736  0.11526  1.0000
  H   H467      1.0  0.62538  0.41371  0.06317  1.0000
  H   H468      1.0  0.54869  0.11998  0.44699  1.0000
  C   C596      1.0  0.58826  0.04278  0.25926  1.0000
  C   C597      1.0  0.48859  0.20357  0.04905  1.0000
  C   C598      1.0  0.47767  0.18772  0.06901  1.0000
  C   C599      1.0  0.49172  0.16834  0.08266  1.0000
  C   C600      1.0  0.51681  0.16506  0.07659  1.0000
  C   C601      1.0  0.52773  0.18127  0.05711  1.0000
  C   C602      1.0  0.51370  0.20054  0.04356  1.0000
  H   H469      1.0  0.45829  0.19036  0.07386  1.0000
  H   H470      1.0  0.48319  0.15603  0.09786  1.0000
  H   H471      1.0  0.54714  0.17884  0.05235  1.0000
  H   H472      1.0  0.52237  0.21310  0.02899  1.0000
  C   C603      1.0  0.51090  0.10205  0.01520  1.0000
  H   H473      1.0  0.65367  0.10872  0.43290  1.0000
  H   H474      1.0  0.45727  0.04368  0.20261  1.0000
  C   C604      1.0  0.63945  0.43399  0.16893  1.0000
  C   C605      1.0  0.65594  0.39269  0.18343  1.0000
  H   H475      1.0  0.53680  0.08849  0.07140  1.0000
  H   H476      1.0  0.35055  0.41689  0.07901  1.0000
  H   H477      1.0  0.40595  0.01811  0.08326  1.0000
  H   H478      1.0  0.65082  0.26544  0.05309  1.0000
  P   P20       1.0  0.59899  0.01090  0.43662  1.0000
  C   C606      1.0  0.58058  0.20323  0.15332  1.0000
  C   C607      1.0  0.57148  0.18108  0.15611  1.0000
  C   C608      1.0  0.56301  0.17426  0.13525  1.0000
  C   C609      1.0  0.56369  0.18950  0.11162  1.0000
  C   C610      1.0  0.57292  0.21171  0.10852  1.0000
  C   C611      1.0  0.58123  0.21856  0.12965  1.0000
  P   P21       1.0  0.57295  0.23155  0.07794  1.0000
  C   C612      1.0  0.58286  0.21477  0.05185  1.0000
  C   C613      1.0  0.54281  0.24668  0.07358  1.0000
  C   C614      1.0  0.53966  0.26906  0.05745  1.0000
  C   C615      1.0  0.51644  0.28035  0.05312  1.0000
  C   C616      1.0  0.49616  0.26929  0.06451  1.0000
  C   C617      1.0  0.49909  0.24711  0.08065  1.0000
  C   C618      1.0  0.52229  0.23581  0.08520  1.0000
  C   C619      1.0  0.57730  0.22469  0.02694  1.0000
  C   C620      1.0  0.63277  0.26776  0.06306  1.0000
  H   H479      1.0  0.39958  0.46318  0.08869  1.0000
  C   C621      1.0  0.39472  0.43734  0.03690  1.0000
  C   C622      1.0  0.59698  0.19220  0.05593  1.0000
  C   C623      1.0  0.59346  0.25375  0.07653  1.0000
  C   C624      1.0  0.61718  0.25025  0.06460  1.0000
  H   H480      1.0  0.34949  0.47960  0.01817  1.0000
  H   H481      1.0  0.46687  0.00021  0.10579  1.0000
  C   C625      1.0  0.60137  0.29236  0.08552  1.0000
  C   C626      1.0  0.58576  0.27480  0.08729  1.0000
  H   H482      1.0  0.58708  0.20854  0.16953  1.0000
  H   H483      1.0  0.57089  0.16920  0.17443  1.0000
  H   H484      1.0  0.55579  0.15715  0.13732  1.0000
  H   H485      1.0  0.55695  0.18395  0.09574  1.0000
  H   H486      1.0  0.58825  0.23563  0.12798  1.0000
  H   H487      1.0  0.55511  0.27761  0.04764  1.0000
  H   H488      1.0  0.51427  0.29736  0.04026  1.0000
  H   H489      1.0  0.47819  0.27754  0.06029  1.0000
  H   H490      1.0  0.48337  0.23817  0.08883  1.0000
  H   H491      1.0  0.52394  0.21830  0.09712  1.0000
  H   H492      1.0  0.56694  0.24228  0.02311  1.0000
  C   C627      1.0  0.62483  0.28887  0.07332  1.0000
  C   C628      1.0  0.56250  0.04804  0.44683  1.0000
  C   C629      1.0  0.44032  0.13680  0.05640  1.0000
  H   H493      1.0  0.60219  0.18439  0.07475  1.0000
  H   H494      1.0  0.62364  0.23427  0.05607  1.0000
  C   C630      1.0  0.43192  0.16129  0.05045  1.0000
  H   H495      1.0  0.41786  0.16962  0.06311  1.0000
  C   C631      1.0  0.37027  0.03548  0.21470  1.0000
  H   H496      1.0  0.56760  0.27781  0.09673  1.0000
  S   S88       1.0  0.48828  0.28928  0.99616  1.0000
  C   C632      1.0  0.37944  0.37749  0.03761  1.0000
  Fe  Fe41      1.0  0.48966  0.24947  0.99734  1.0000
  H   H497      1.0  0.61498  0.16178  0.03899  1.0000
  C   C633      1.0  0.62313  0.47665  0.08282  1.0000
  H   H498      1.0  0.44518  0.35626  0.04705  1.0000
  H   H499      1.0  0.60925  0.04699  0.34494  1.0000
  H   H500      1.0  0.51037  0.12072  0.04760  1.0000
  H   H501      1.0  0.61856  0.06840  0.13410  1.0000
  C   C634      1.0  0.58626  0.40010  0.01159  1.0000
  H   H502      1.0  0.56288  0.01117  0.23845  1.0000
  H   H503      1.0  0.58988  0.27334  0.99215  1.0000
  C   C635      1.0  0.61836  0.03053  0.14847  1.0000
  S   S89       1.0  0.63242  0.01588  0.25148  1.0000
  C   C636      1.0  0.49440  0.38461  0.99786  1.0000
  C   C637      1.0  0.45235  0.38531  0.01585  1.0000
  C   C638      1.0  0.50042  0.01300  0.10987  1.0000
  C   C639      1.0  0.44213  0.17523  0.02854  1.0000
  C   C640      1.0  0.40195  0.37467  0.02291  1.0000
  C   C641      1.0  0.41921  0.00938  0.14514  1.0000
  H   H504      1.0  0.55828  0.99478  0.41706  1.0000
  C   C642      1.0  0.36462  0.35896  0.04238  1.0000
  C   C643      1.0  0.62768  0.06473  0.36795  1.0000
  H   H505      1.0  0.56190  0.42310  0.03398  1.0000
  H   H506      1.0  0.62108  0.04042  0.20145  1.0000
  C   C644      1.0  0.53631  0.06346  0.01799  1.0000
  C   C645      1.0  0.60432  0.03152  0.38490  1.0000
  C   C646      1.0  0.39458  0.33454  0.01812  1.0000
  H   H507      1.0  0.55301  0.05157  0.05320  1.0000
  H   H508      1.0  0.59877  0.03205  0.15042  1.0000
  H   H509      1.0  0.53051  0.00938  0.17006  1.0000
  Fe  Fe42      1.0  0.66235  0.40152  0.99857  1.0000
  H   H510      1.0  0.51448  0.16241  0.01597  1.0000
  H   H511      1.0  0.59943  0.39567  0.02541  1.0000
  C   C647      1.0  0.57808  0.30914  0.00057  1.0000
  H   H512      1.0  0.36033  0.32352  0.03557  1.0000
  H   H513      1.0  0.60445  0.17934  0.99519  1.0000
  C   C648      1.0  0.34523  0.43045  0.09131  1.0000
  C   C649      1.0  0.54037  0.13707  0.48057  1.0000
  C   C650      1.0  0.56520  0.41566  0.01631  1.0000
  C   C651      1.0  0.45886  0.12621  0.04034  1.0000
  H   H514      1.0  0.40035  0.31801  0.01038  1.0000
  H   H515      1.0  0.66101  0.45968  0.99904  1.0000
  C   C652      1.0  0.64271  0.46813  0.99687  1.0000
  C   C653      1.0  0.62955  0.05129  0.13906  1.0000
  H   H516      1.0  0.36606  0.41143  0.12145  1.0000
  C   C654      1.0  0.59859  0.18926  0.01094  1.0000
  H   H517      1.0  0.53257  0.43439  0.00146  1.0000
  C   C655      1.0  0.62098  0.00407  0.45973  1.0000
  C   C656      1.0  0.37212  0.33757  0.03252  1.0000
  C   C657      1.0  0.43139  0.02967  0.14372  1.0000
  C   C658      1.0  0.53211  0.08638  0.05285  1.0000
  C   C659      1.0  0.40933  0.35308  0.01305  1.0000
  H   H518      1.0  0.59348  0.01827  0.38140  1.0000
  H   H519      1.0  0.43266  0.12610  0.07363  1.0000
  C   C660      1.0  0.63658  0.45663  0.09617  1.0000
  C   C661      1.0  0.62380  0.04975  0.41351  1.0000
  S   S90       1.0  0.55042  0.99478  0.35441  1.0000
  C   C662      1.0  0.61320  0.04780  0.36413  1.0000
  C   C663      1.0  0.60973  0.47373  0.06345  1.0000
  C   C664      1.0  0.63750  0.43393  0.08871  1.0000
  C   C665      1.0  0.60452  0.17938  0.03560  1.0000
  C   C666      1.0  0.60977  0.03224  0.40973  1.0000
  H   H520      1.0  0.44042  0.02685  0.24682  1.0000
  C   C667      1.0  0.63292  0.06574  0.39264  1.0000
  C   C668      1.0  0.62438  0.43119  0.06899  1.0000
  C   C669      1.0  0.63123  0.09742  0.46768  1.0000
  H   H521      1.0  0.33889  0.05401  0.40036  1.0000
  H   H522      1.0  0.58905  0.03593  0.27943  1.0000
  H   H523      1.0  0.48753  0.33708  0.04567  1.0000
  C   C670      1.0  0.66393  0.05543  0.47261  1.0000
  H   H524      1.0  0.64859  0.41836  0.09768  1.0000
  C   C671      1.0  0.47040  0.39542  0.99823  1.0000
  C   C672      1.0  0.54146  0.06566  0.04241  1.0000
  C   C673      1.0  0.58523  0.21201  0.00658  1.0000
  C   C674      1.0  0.52124  0.16268  0.99600  1.0000
  C   C675      1.0  0.38690  0.02621  0.19597  1.0000
  H   H525      1.0  0.42715  0.05414  0.08128  1.0000
  C   C676      1.0  0.54596  0.00571  0.18102  1.0000
  C   C677      1.0  0.64020  0.41332  0.18767  1.0000
  H   H526      1.0  0.52686  0.01913  0.21444  1.0000
  C   C678      1.0  0.35585  0.03254  0.43235  1.0000
  C   C679      1.0  0.51701  0.10458  0.03929  1.0000
  C   C680      1.0  0.40347  0.45061  0.07516  1.0000
  C   C681      1.0  0.46948  0.14022  0.01850  1.0000
  H   H527      1.0  0.44343  0.06144  0.12008  1.0000
  C   C682      1.0  0.43414  0.04576  0.12080  1.0000
  H   H528      1.0  0.59520  0.30887  0.09321  1.0000
  H   H529      1.0  0.57202  0.34485  0.01055  1.0000
  C   C683      1.0  0.49401  0.02770  0.29031  1.0000
  C   C684      1.0  0.47604  0.01287  0.29013  1.0000
  P   P22       1.0  0.48576  0.05723  0.29956  1.0000
  C   C685      1.0  0.46348  0.05421  0.32732  1.0000
  C   C686      1.0  0.51234  0.06852  0.30665  1.0000
  C   C687      1.0  0.52829  0.05361  0.32258  1.0000
  C   C688      1.0  0.54979  0.06133  0.32683  1.0000
  C   C689      1.0  0.55553  0.08418  0.31522  1.0000
  C   C690      1.0  0.53967  0.09931  0.29947  1.0000
  C   C691      1.0  0.51814  0.09155  0.29516  1.0000
  C   C692      1.0  0.47016  0.05127  0.35232  1.0000
  C   C693      1.0  0.45285  0.04747  0.37350  1.0000
  C   C694      1.0  0.42874  0.04671  0.36992  1.0000
  C   C695      1.0  0.42187  0.05003  0.34515  1.0000
  C   C696      1.0  0.43914  0.05369  0.32400  1.0000
  C   C697      1.0  0.47308  0.07734  0.27317  1.0000
  C   C698      1.0  0.48197  0.07462  0.24795  1.0000
  C   C699      1.0  0.47255  0.09043  0.22746  1.0000
  C   C700      1.0  0.45418  0.10898  0.23186  1.0000
  C   C701      1.0  0.44545  0.11204  0.25694  1.0000
  C   C702      1.0  0.45506  0.09646  0.27758  1.0000
  C   C703      1.0  0.66699  0.07335  0.45131  1.0000
  H   H530      1.0  0.46499  0.10716  0.04512  1.0000
  C   C704      1.0  0.42493  0.04165  0.09902  1.0000
  H   H531      1.0  0.53252  0.03043  0.28184  1.0000
  H   H532      1.0  0.45717  0.01883  0.29517  1.0000
  H   H533      1.0  0.52435  0.03565  0.33104  1.0000
  H   H534      1.0  0.56219  0.04924  0.33862  1.0000
  H   H535      1.0  0.57248  0.08995  0.31797  1.0000
  H   H536      1.0  0.54437  0.11678  0.28989  1.0000
  H   H537      1.0  0.50659  0.10326  0.28218  1.0000
  H   H538      1.0  0.48867  0.05150  0.35567  1.0000
  H   H539      1.0  0.45823  0.04480  0.39269  1.0000
  H   H540      1.0  0.41543  0.04333  0.38628  1.0000
  H   H541      1.0  0.40325  0.04922  0.34214  1.0000
  H   H542      1.0  0.43352  0.05575  0.30497  1.0000
  H   H543      1.0  0.49634  0.06048  0.24399  1.0000
  H   H544      1.0  0.47922  0.08800  0.20808  1.0000
  H   H545      1.0  0.44661  0.12076  0.21575  1.0000
  H   H546      1.0  0.43114  0.12639  0.26034  1.0000
  H   H547      1.0  0.44836  0.09932  0.29687  1.0000
  Fe  Fe43      1.0  0.40160  0.00426  0.29649  1.0000
  C   C705      1.0  0.61943  0.28961  0.00200  1.0000
  C   C706      1.0  0.65477  0.05001  0.13632  1.0000
  C   C707      1.0  0.41004  0.00530  0.12317  1.0000
  C   C708      1.0  0.54003  0.05727  0.45811  1.0000
  C   C709      1.0  0.59519  0.28906  0.99783  1.0000
  H   H548      1.0  0.43605  0.19437  0.02436  1.0000
  H   H549      1.0  0.37285  0.39414  0.04478  1.0000
  H   H550      1.0  0.37111  0.05545  0.47176  1.0000
  H   H551      1.0  0.37562  0.46851  0.05173  1.0000
  H   H552      1.0  0.63269  0.27415  0.99967  1.0000
  S   S91       1.0  0.65252  0.37653  0.03486  1.0000
  H   H553      1.0  0.58093  0.21985  0.98739  1.0000
  H   H554      1.0  0.62810  0.05078  0.43250  1.0000
  H   H555      1.0  0.51911  0.35487  0.01413  1.0000
  C   C710      1.0  0.55518  0.00774  0.46750  1.0000
  C   C711      1.0  0.48276  0.35350  0.03261  1.0000
  C   C712      1.0  0.57023  0.02317  0.45143  1.0000
  P   P23       1.0  0.37791  0.00305  0.47300  1.0000
  H   H556      1.0  0.61953  0.11436  0.46608  1.0000
  C   C713      1.0  0.54389  0.01097  0.20592  1.0000
  H   H557      1.0  0.37386  0.03572  0.42373  1.0000
  P   P24       1.0  0.49262  0.12634  0.99721  1.0000
  C   C714      1.0  0.45877  0.36439  0.03325  1.0000
  H   H558      1.0  0.49820  0.00408  0.36110  1.0000
  C   C715      1.0  0.66304  0.99615  0.46856  1.0000
  C   C716      1.0  0.65446  0.43411  0.14573  1.0000
  C   C717      1.0  0.51821  0.01937  0.28270  1.0000
  H   H559      1.0  0.38380  0.43980  0.02103  1.0000
  H   H560      1.0  0.57368  0.06031  0.43445  1.0000
  C   C718      1.0  0.50057  0.36355  0.01486  1.0000
  C   C719      1.0  0.46089  0.16479  0.01261  1.0000
  C   C720      1.0  0.38993  0.45359  0.05434  1.0000
  C   C721      1.0  0.55330  0.12032  0.46604  1.0000
  C   C722      1.0  0.54872  0.42202  0.99797  1.0000
  C   C723      1.0  0.35118  0.48490  0.99762  1.0000
  S   S92       1.0  0.34388  0.39624  0.98806  1.0000
  C   C724      1.0  0.35234  0.01743  0.45609  1.0000
  C   C725      1.0  0.39393  0.00124  0.19812  1.0000
  H   H561      1.0  0.62861  0.41332  0.20552  1.0000
  C   C726      1.0  0.58523  0.32940  0.00805  1.0000
  H   H562      1.0  0.63504  0.07688  0.35172  1.0000
  C   C727      1.0  0.36081  0.02000  0.23580  1.0000
  C   C728      1.0  0.42711  0.41535  0.06082  1.0000
  C   C729      1.0  0.42195  0.43141  0.07850  1.0000
  H   H563      1.0  0.49237  0.03142  0.11037  1.0000
  H   H564      1.0  0.54417  0.04774  0.00956  1.0000
  H   H565      1.0  0.43875  0.03316  0.16039  1.0000
  C   C730      1.0  0.64575  0.00189  0.45110  1.0000
  H   H566      1.0  0.58179  0.09088  0.46479  1.0000
  H   H567      1.0  0.44168  0.40081  0.06356  1.0000
  H   H568      1.0  0.56968  0.99370  0.14997  1.0000
  C   C731      1.0  0.56403  0.00618  0.21967  1.0000
  C   C732      1.0  0.61040  0.45103  0.05646  1.0000
  C   C733      1.0  0.52137  0.08174  0.00425  1.0000
  H   H569      1.0  0.47247  0.08126  0.99669  1.0000
  C   C734      1.0  0.44852  0.98986  0.21031  1.0000
  P   P25       1.0  0.42110  0.39861  0.01595  1.0000
  H   H570      1.0  0.60412  0.47742  0.13889  1.0000
  H   H571      1.0  0.65174  0.00458  0.43079  1.0000
  H   H572      1.0  0.43246  0.42911  0.09464  1.0000
  H   H573      1.0  0.36523  0.05477  0.21320  1.0000
  H   H574      1.0  0.53406  0.07644  0.45447  1.0000
  H   H575      1.0  0.61471  0.34560  0.01791  1.0000
  C   C735      1.0  0.40216  0.99100  0.42717  1.0000
  P   P26       1.0  0.41618  0.98872  0.17495  1.0000
  H   H576      1.0  0.65656  0.37668  0.19792  1.0000
  C   C736      1.0  0.52523  0.00670  0.11167  1.0000
  C   C737      1.0  0.41367  0.41833  0.03975  1.0000
  H   H577      1.0  0.49326  0.01470  0.05279  1.0000
  C   C738      1.0  0.62669  0.31025  0.00869  1.0000
  S   S93       1.0  0.61866  0.99908  0.32789  1.0000
  H   H578      1.0  0.66115  0.00360  0.35500  1.0000
  S   S94       1.0  0.54755  0.31028  0.99486  1.0000
  H   H579      1.0  0.66338  0.06619  0.12924  1.0000
  C   C739      1.0  0.52429  0.99614  0.27660  1.0000
  C   C740      1.0  0.52518  0.04179  0.47408  1.0000
  H   H580      1.0  0.46877  0.17600  0.99589  1.0000
  C   C741      1.0  0.65770  0.00708  0.15224  1.0000
  C   C742      1.0  0.58618  0.99620  0.20869  1.0000
  C   C743      1.0  0.59091  0.39088  0.98855  1.0000
  C   C744      1.0  0.53273  0.01702  0.47870  1.0000
  H   H581      1.0  0.42954  0.00846  0.47330  1.0000
  H   H582      1.0  0.47908  0.00397  0.01479  1.0000
  H   H583      1.0  0.53678  0.00767  0.05893  1.0000
  C   C745      1.0  0.50610  0.00667  0.03879  1.0000
  C   C746      1.0  0.44758  0.99892  0.43787  1.0000
  H   H584      1.0  0.46526  0.00179  0.44204  1.0000
  H   H585      1.0  0.60155  0.99311  0.21971  1.0000
  C   C747      1.0  0.53067  0.00265  0.04232  1.0000
  C   C748      1.0  0.40435  0.99876  0.45027  1.0000
  Fe  Fe44      1.0  0.62264  0.99059  0.28782  1.0000
  C   C749      1.0  0.56826  0.99641  0.16970  1.0000
  C   C750      1.0  0.42726  0.00269  0.45554  1.0000
  C   C751      1.0  0.49814  0.00032  0.01733  1.0000
  C   C752      1.0  0.57216  0.10401  0.47609  1.0000
  H   H586      1.0  0.52570  0.14966  0.47286  1.0000
  C   C753      1.0  0.44519  0.99107  0.41496  1.0000
  H   H587      1.0  0.56083  0.98849  0.47135  1.0000
  C   C754      1.0  0.48607  0.99542  0.10705  1.0000
  C   C755      1.0  0.54739  0.99255  0.02426  1.0000
  H   H588      1.0  0.64872  0.99106  0.20510  1.0000
  H   H589      1.0  0.54366  0.19054  0.99567  1.0000
  H   H590      1.0  0.50787  0.04899  0.48298  1.0000
  C   C756      1.0  0.58855  0.99153  0.18348  1.0000
  H   H591      1.0  0.43305  0.99577  0.22291  1.0000
  C   C757      1.0  0.33605  0.04323  0.41913  1.0000
  H   H592      1.0  0.47381  0.99402  0.23575  1.0000
  S   S95       1.0  0.41639  0.99248  0.33464  1.0000
  H   H593      1.0  0.56646  0.98972  0.02696  1.0000
  H   H594      1.0  0.54290  0.98926  0.27193  1.0000
  C   C758      1.0  0.36759  0.99515  0.23795  1.0000
  C   C759      1.0  0.61380  0.00043  0.48622  1.0000
  H   H595      1.0  0.40096  0.98962  0.12358  1.0000
  C   C760      1.0  0.47167  0.98881  0.21775  1.0000
  C   C761      1.0  0.48237  0.98975  0.28392  1.0000
  C   C762      1.0  0.64051  0.48726  0.13410  1.0000
  C   C763      1.0  0.62651  0.45620  0.98720  1.0000
  Fe  Fe45      1.0  0.47921  0.29313  0.95600  1.0000
  S   S96       1.0  0.51797  0.29085  0.93905  1.0000
  S   S97       1.0  0.45475  0.32563  0.93934  1.0000
  H   H596      1.0  0.62855  0.45479  0.86706  1.0000
  H   H597      1.0  0.55886  0.06271  0.50647  1.0000
  C   C764      1.0  0.41938  0.19057  0.96179  1.0000
  Fe  Fe46      1.0  0.51612  0.25078  0.94422  1.0000
  S   S98       1.0  0.53202  0.22881  0.91282  1.0000
  S   S99       1.0  0.63581  0.99020  0.60638  1.0000
  H   H598      1.0  0.52982  0.00505  0.84174  1.0000
  C   C765      1.0  0.44588  0.01901  0.80524  1.0000
  C   C766      1.0  0.57159  0.01262  0.54978  1.0000
  H   H599      1.0  0.64705  0.48588  0.92618  1.0000
  Fe  Fe47      1.0  0.40137  0.04424  0.62989  1.0000
  S   S100      1.0  0.36327  0.06096  0.63917  1.0000
  H   H600      1.0  0.55903  0.19202  0.94974  1.0000
  Fe  Fe48      1.0  0.37500  0.06214  0.67782  1.0000
  S   S101      1.0  0.36555  0.09580  0.69637  1.0000
  Fe  Fe49      1.0  0.35616  0.02295  0.65487  1.0000
  S   S102      1.0  0.41345  0.04865  0.66696  1.0000
  H   H601      1.0  0.43921  0.09704  0.92636  1.0000
  Fe  Fe50      1.0  0.55346  0.03781  0.61579  1.0000
  C   C767      1.0  0.37830  0.04708  0.48952  1.0000
  S   S103      1.0  0.53374  0.05639  0.58216  1.0000
  Fe  Fe51      1.0  0.57933  0.04747  0.65909  1.0000
  H   H602      1.0  0.56289  0.09202  0.83845  1.0000
  S   S104      1.0  0.59127  0.07899  0.67317  1.0000
  Fe  Fe52      1.0  0.60239  0.00884  0.62682  1.0000
  C   C768      1.0  0.59272  0.08495  0.77008  1.0000
  C   C769      1.0  0.47841  0.99434  0.78383  1.0000
  C   C770      1.0  0.53777  0.36516  0.94910  1.0000
  S   S105      1.0  0.59020  0.04819  0.61699  1.0000
  S   S106      1.0  0.54144  0.03988  0.65710  1.0000
  Fe  Fe53      1.0  0.49563  0.09040  0.82412  1.0000
  S   S107      1.0  0.46005  0.10876  0.83901  1.0000
  S   S108      1.0  0.51660  0.05533  0.83996  1.0000
  Fe  Fe54      1.0  0.50576  0.13221  0.78289  1.0000
  S   S109      1.0  0.47124  0.15493  0.79474  1.0000
  S   S110      1.0  0.53461  0.14508  0.75184  1.0000
  Fe  Fe55      1.0  0.47953  0.14151  0.83539  1.0000
  S   S111      1.0  0.46978  0.16185  0.86935  1.0000
  Fe  Fe56      1.0  0.45403  0.12086  0.79741  1.0000
  S   S112      1.0  0.41606  0.12619  0.78479  1.0000
  S   S113      1.0  0.51551  0.12213  0.82329  1.0000
  S   S114      1.0  0.48802  0.09923  0.78282  1.0000
  C   C771      1.0  0.64419  0.05811  0.49114  1.0000
  H   H603      1.0  0.61588  0.46284  0.91142  1.0000
  H   H604      1.0  0.66231  0.11917  0.55192  1.0000
  H   H605      1.0  0.66244  0.34141  0.94450  1.0000
  H   H606      1.0  0.38314  0.33395  0.87552  1.0000
  C   C772      1.0  0.50114  0.03086  0.85468  1.0000
  C   C773      1.0  0.51246  0.00753  0.85291  1.0000
  H   H607      1.0  0.55344  0.40253  0.89386  1.0000
  H   H608      1.0  0.59374  0.12338  0.76443  1.0000
  H   H609      1.0  0.56359  0.99677  0.55963  1.0000
  C   C774      1.0  0.47858  0.03410  0.86900  1.0000
  C   C775      1.0  0.38345  0.02189  0.49524  1.0000
  C   C776      1.0  0.53138  0.10910  0.60477  1.0000
  H   H610      1.0  0.52125  0.00501  0.49114  1.0000
  H   H611      1.0  0.46983  0.05213  0.87048  1.0000
  C   C777      1.0  0.42326  0.32687  0.94737  1.0000
  H   H612      1.0  0.41730  0.36490  0.93304  1.0000
  H   H613      1.0  0.64265  0.04426  0.50781  1.0000
  H   H614      1.0  0.54179  0.02584  0.52754  1.0000
  C   C778      1.0  0.57412  0.09705  0.69458  1.0000
  C   C779      1.0  0.55147  0.09203  0.70701  1.0000
  C   C780      1.0  0.53898  0.10654  0.72471  1.0000
  C   C781      1.0  0.54913  0.12621  0.72983  1.0000
  C   C782      1.0  0.57142  0.13157  0.71668  1.0000
  C   C783      1.0  0.58395  0.11694  0.69945  1.0000
  H   H615      1.0  0.54377  0.07692  0.70298  1.0000
  H   H616      1.0  0.52142  0.10277  0.73409  1.0000
  H   H617      1.0  0.57925  0.14693  0.72015  1.0000
  H   H618      1.0  0.60137  0.12110  0.68984  1.0000
  C   C784      1.0  0.35993  0.29009  0.91992  1.0000
  H   H619      1.0  0.63829  0.11726  0.59454  1.0000
  C   C785      1.0  0.50226  0.05593  0.58566  1.0000
  C   C786      1.0  0.49009  0.04449  0.60809  1.0000
  C   C787      1.0  0.46480  0.04452  0.61007  1.0000
  C   C788      1.0  0.45182  0.05579  0.58951  1.0000
  C   C789      1.0  0.46412  0.06700  0.56711  1.0000
  C   C790      1.0  0.48922  0.06717  0.56523  1.0000
  H   H620      1.0  0.50016  0.03558  0.62383  1.0000
  C   C791      1.0  0.64364  0.34028  0.94273  1.0000
  H   H621      1.0  0.45418  0.07571  0.55120  1.0000
  H   H622      1.0  0.49857  0.07600  0.54789  1.0000
  C   C792      1.0  0.40390  0.11681  0.75947  1.0000
  C   C793      1.0  0.41400  0.09659  0.74824  1.0000
  C   C794      1.0  0.40320  0.09024  0.72806  1.0000
  C   C795      1.0  0.38162  0.10348  0.71995  1.0000
  C   C796      1.0  0.37164  0.12348  0.73147  1.0000
  C   C797      1.0  0.38263  0.13006  0.75099  1.0000
  H   H623      1.0  0.42983  0.08577  0.75541  1.0000
  H   H624      1.0  0.41127  0.07490  0.71915  1.0000
  C   C798      1.0  0.54673  0.17917  0.95884  1.0000
  H   H625      1.0  0.37448  0.14552  0.75968  1.0000
  H   H626      1.0  0.48511  0.03208  0.96152  1.0000
  H   H627      1.0  0.45629  0.05147  0.81497  1.0000
  H   H628      1.0  0.49891  0.04328  0.79819  1.0000
  C   C799      1.0  0.36232  0.31299  0.90581  1.0000
  C   C800      1.0  0.40653  0.40629  0.96663  1.0000
  H   H629      1.0  0.59999  0.08371  0.75055  1.0000
  C   C801      1.0  0.60288  0.46719  0.98438  1.0000
  C   C802      1.0  0.41006  0.04579  0.83916  1.0000
  H   H630      1.0  0.59926  0.10027  0.60191  1.0000
  H   H631      1.0  0.42090  0.47255  0.95100  1.0000
  C   C803      1.0  0.52354  0.05059  0.74710  1.0000
  C   C804      1.0  0.51475  0.20977  0.90125  1.0000
  C   C805      1.0  0.52433  0.19904  0.87968  1.0000
  C   C806      1.0  0.51094  0.18419  0.86969  1.0000
  C   C807      1.0  0.48785  0.17982  0.88133  1.0000
  C   C808      1.0  0.47846  0.19023  0.90313  1.0000
  C   C809      1.0  0.49179  0.20511  0.91305  1.0000
  H   H632      1.0  0.54209  0.20247  0.87044  1.0000
  H   H633      1.0  0.51840  0.17629  0.85291  1.0000
  H   H634      1.0  0.46069  0.18692  0.91232  1.0000
  H   H635      1.0  0.48426  0.21300  0.92975  1.0000
  S   S115      1.0  0.36390  0.02555  0.69469  1.0000
  C   C810      1.0  0.55943  0.02893  0.53150  1.0000
  C   C811      1.0  0.65578  0.99239  0.49480  1.0000
  C   C812      1.0  0.37280  0.33061  0.96033  1.0000
  C   C813      1.0  0.48635  0.03090  0.79679  1.0000
  C   C814      1.0  0.46208  0.03543  0.80638  1.0000
  C   C815      1.0  0.59947  0.43009  0.92339  1.0000
  C   C816      1.0  0.40294  0.08011  0.87238  1.0000
  C   C817      1.0  0.40494  0.08757  0.84590  1.0000
  C   C818      1.0  0.40874  0.07052  0.82936  1.0000
  H   H636      1.0  0.54597  0.10822  0.58947  1.0000
  C   C819      1.0  0.36679  0.04948  0.75120  1.0000
  C   C820      1.0  0.62733  0.07892  0.48854  1.0000
  H   H637      1.0  0.45106  0.13836  0.91877  1.0000
  H   H638      1.0  0.40385  0.10663  0.83808  1.0000
  H   H639      1.0  0.41063  0.07666  0.80885  1.0000
  H   H640      1.0  0.61996  0.04217  0.55071  1.0000
  H   H641      1.0  0.50698  0.06262  0.74954  1.0000
  H   H642      1.0  0.51264  0.03670  0.71571  1.0000
  C   C821      1.0  0.41077  0.10750  0.63226  1.0000
  C   C822      1.0  0.39484  0.12741  0.63820  1.0000
  C   C823      1.0  0.40185  0.14290  0.65282  1.0000
  C   C824      1.0  0.42463  0.13823  0.66193  1.0000
  C   C825      1.0  0.44031  0.11747  0.65726  1.0000
  C   C826      1.0  0.43335  0.10252  0.64176  1.0000
  P   P27       1.0  0.46928  0.10999  0.67028  1.0000
  C   C827      1.0  0.47347  0.13117  0.69075  1.0000
  C   C828      1.0  0.46997  0.07968  0.68839  1.0000
  C   C829      1.0  0.46634  0.07554  0.71529  1.0000
  C   C830      1.0  0.46376  0.05234  0.72868  1.0000
  C   C831      1.0  0.46565  0.03292  0.71542  1.0000
  C   C832      1.0  0.47080  0.03658  0.68882  1.0000
  C   C833      1.0  0.47309  0.05980  0.67538  1.0000
  C   C834      1.0  0.49451  0.14274  0.68709  1.0000
  C   C835      1.0  0.49772  0.15859  0.70337  1.0000
  C   C836      1.0  0.48007  0.16303  0.72347  1.0000
  C   C837      1.0  0.45899  0.15186  0.72712  1.0000
  C   C838      1.0  0.45568  0.13609  0.71081  1.0000
  C   C839      1.0  0.49334  0.10971  0.64434  1.0000
  C   C840      1.0  0.48898  0.11914  0.61893  1.0000
  C   C841      1.0  0.59352  0.01738  0.55632  1.0000
  C   C842      1.0  0.53589  0.10005  0.63003  1.0000
  C   C843      1.0  0.51688  0.10000  0.64966  1.0000
  C   C844      1.0  0.40437  0.05553  0.88235  1.0000
  H   H643      1.0  0.37697  0.13066  0.63172  1.0000
  H   H644      1.0  0.38945  0.15829  0.65751  1.0000
  H   H645      1.0  0.42962  0.15087  0.67268  1.0000
  H   H646      1.0  0.44526  0.08691  0.63694  1.0000
  H   H647      1.0  0.46520  0.09005  0.72615  1.0000
  H   H648      1.0  0.46030  0.04937  0.74936  1.0000
  H   H649      1.0  0.46361  0.01495  0.72575  1.0000
  H   H650      1.0  0.47252  0.02141  0.67863  1.0000
  H   H651      1.0  0.47694  0.06225  0.65480  1.0000
  H   H652      1.0  0.50873  0.13950  0.67201  1.0000
  H   H653      1.0  0.51432  0.16687  0.70097  1.0000
  H   H654      1.0  0.48303  0.17479  0.73646  1.0000
  H   H655      1.0  0.44532  0.15514  0.74282  1.0000
  H   H656      1.0  0.43923  0.12760  0.71392  1.0000
  H   H657      1.0  0.47104  0.12676  0.61418  1.0000
  H   H658      1.0  0.55405  0.09265  0.63442  1.0000
  H   H659      1.0  0.52050  0.09254  0.66908  1.0000
  C   C845      1.0  0.41912  0.20381  0.83575  1.0000
  C   C846      1.0  0.40284  0.21664  0.81905  1.0000
  C   C847      1.0  0.39092  0.23911  0.82355  1.0000
  C   C848      1.0  0.39528  0.24875  0.84476  1.0000
  C   C849      1.0  0.41153  0.23586  0.86173  1.0000
  C   C850      1.0  0.42343  0.21338  0.85694  1.0000
  P   P28       1.0  0.41796  0.24821  0.88891  1.0000
  C   C851      1.0  0.39556  0.27332  0.89499  1.0000
  C   C852      1.0  0.41784  0.22563  0.91748  1.0000
  C   C853      1.0  0.42768  0.22985  0.93894  1.0000
  H   H660      1.0  0.40861  0.01959  0.87409  1.0000
  H   H661      1.0  0.33850  0.06698  0.55686  1.0000
  Fe  Fe57      1.0  0.40215  0.01194  0.68172  1.0000
  C   C854      1.0  0.40767  0.20409  0.91887  1.0000
  C   C855      1.0  0.39755  0.29633  0.88056  1.0000
  C   C856      1.0  0.37646  0.27028  0.91456  1.0000
  C   C857      1.0  0.44754  0.25871  0.88280  1.0000
  C   C858      1.0  0.46596  0.24819  0.86633  1.0000
  C   C859      1.0  0.48895  0.25588  0.86243  1.0000
  C   C860      1.0  0.49382  0.27405  0.87492  1.0000
  C   C861      1.0  0.47561  0.28480  0.89108  1.0000
  C   C862      1.0  0.45263  0.27710  0.89519  1.0000
  H   H662      1.0  0.42860  0.18645  0.83226  1.0000
  H   H663      1.0  0.39958  0.20917  0.80259  1.0000
  H   H664      1.0  0.48272  0.99311  0.61315  1.0000
  H   H665      1.0  0.38595  0.26621  0.84777  1.0000
  H   H666      1.0  0.43619  0.20326  0.86961  1.0000
  H   H667      1.0  0.43455  0.24675  0.93868  1.0000
  H   H668      1.0  0.34995  0.32841  0.91066  1.0000
  H   H669      1.0  0.34215  0.06750  0.77803  1.0000
  C   C863      1.0  0.41740  0.45388  0.95519  1.0000
  H   H670      1.0  0.39902  0.20067  0.90308  1.0000
  H   H671      1.0  0.41217  0.29910  0.86542  1.0000
  H   H672      1.0  0.37451  0.25280  0.92603  1.0000
  H   H673      1.0  0.46310  0.23365  0.85689  1.0000
  H   H674      1.0  0.50327  0.24712  0.85039  1.0000
  H   H675      1.0  0.51188  0.27938  0.87255  1.0000
  H   H676      1.0  0.47944  0.29885  0.90082  1.0000
  H   H677      1.0  0.43905  0.28540  0.90835  1.0000
  H   H678      1.0  0.37837  0.24909  0.81051  1.0000
  C   C864      1.0  0.50771  0.36933  0.91934  1.0000
  C   C865      1.0  0.52130  0.38491  0.90175  1.0000
  C   C866      1.0  0.54330  0.39042  0.90772  1.0000
  C   C867      1.0  0.55183  0.38030  0.93139  1.0000
  H   H679      1.0  0.60153  0.05431  0.72289  1.0000
  C   C868      1.0  0.39211  0.05126  0.52964  1.0000
  S   S116      1.0  0.34128  0.33294  0.96870  1.0000
  C   C869      1.0  0.60329  0.03849  0.54478  1.0000
  C   C870      1.0  0.44916  0.10256  0.94007  1.0000
  C   C871      1.0  0.42182  0.44003  0.97891  1.0000
  C   C872      1.0  0.59115  0.05507  0.52647  1.0000
  C   C873      1.0  0.52652  0.03593  0.72820  1.0000
  C   C874      1.0  0.65792  0.01324  0.74703  1.0000
  P   P29       1.0  0.60287  0.08333  0.51348  1.0000
  C   C875      1.0  0.60208  0.35923  0.94098  1.0000
  C   C876      1.0  0.61433  0.42056  0.87374  1.0000
  H   H680      1.0  0.63261  0.37798  0.94350  1.0000
  H   H681      1.0  0.42103  0.01783  0.76292  1.0000
  C   C877      1.0  0.61212  0.31631  0.93952  1.0000
  C   C878      1.0  0.59501  0.33677  0.93932  1.0000
  H   H682      1.0  0.51808  0.13498  0.94486  1.0000
  H   H683      1.0  0.49082  0.36473  0.91468  1.0000
  H   H684      1.0  0.51481  0.39255  0.88342  1.0000
  C   C879      1.0  0.56531  0.12143  0.51514  1.0000
  C   C880      1.0  0.35088  0.47490  0.95523  1.0000
  S   S117      1.0  0.43079  0.98947  0.70451  1.0000
  C   C881      1.0  0.60228  0.40387  0.89157  1.0000
  C   C882      1.0  0.56915  0.05004  0.51979  1.0000
  H   H685      1.0  0.40285  0.04970  0.90287  1.0000
  C   C883      1.0  0.56638  0.01982  0.74018  1.0000
  H   H686      1.0  0.62574  0.99151  0.52407  1.0000
  C   C884      1.0  0.42867  0.21234  0.96091  1.0000
  H   H687      1.0  0.37859  0.29231  0.97362  1.0000
  C   C885      1.0  0.39753  0.02624  0.53535  1.0000
  H   H688      1.0  0.60639  0.29897  0.93895  1.0000
  H   H689      1.0  0.57638  0.33465  0.93818  1.0000
  H   H690      1.0  0.54908  0.01873  0.89050  1.0000
  S   S118      1.0  0.47668  0.25368  0.95841  1.0000
  H   H691      1.0  0.53966  0.06202  0.77666  1.0000
  C   C886      1.0  0.58606  0.06454  0.78716  1.0000
  C   C887      1.0  0.58874  0.01184  0.80419  1.0000
  C   C888      1.0  0.39652  0.03534  0.79095  1.0000
  C   C889      1.0  0.54787  0.02063  0.72478  1.0000
  H   H692      1.0  0.63695  0.00722  0.78348  1.0000
  C   C890      1.0  0.58919  0.10759  0.77787  1.0000
  H   H693      1.0  0.56287  0.99237  0.79162  1.0000
  H   H694      1.0  0.40131  0.16976  0.94160  1.0000
  C   C891      1.0  0.38107  0.31610  0.88610  1.0000
  H   H695      1.0  0.33730  0.01608  0.55573  1.0000
  C   C892      1.0  0.50792  0.11853  0.59920  1.0000
  C   C893      1.0  0.63121  0.99446  0.50365  1.0000
  S   S119      1.0  0.59462  0.00839  0.66937  1.0000
  H   H696      1.0  0.63820  0.04838  0.69322  1.0000
  H   H697      1.0  0.62034  0.41673  0.85459  1.0000
  C   C894      1.0  0.63702  0.01658  0.76401  1.0000
  H   H698      1.0  0.64386  0.04004  0.60415  1.0000
  Fe  Fe58      1.0  0.52721  0.28469  0.97967  1.0000
  H   H699      1.0  0.40498  0.01830  0.55319  1.0000
  C   C895      1.0  0.57178  0.08998  0.81957  1.0000
  C   C896      1.0  0.38705  0.30818  0.96489  1.0000
  H   H700      1.0  0.53620  0.15043  0.51650  1.0000
  C   C897      1.0  0.46894  0.13305  0.95312  1.0000
  H   H701      1.0  0.51825  0.08013  0.98503  1.0000
  H   H702      1.0  0.54069  0.41835  0.96064  1.0000
  C   C898      1.0  0.57509  0.06738  0.81180  1.0000
  C   C899      1.0  0.57852  0.10461  0.50062  1.0000
  H   H703      1.0  0.40175  0.38812  0.97078  1.0000
  H   H704      1.0  0.50553  0.34724  0.95660  1.0000
  C   C900      1.0  0.65370  0.03343  0.58749  1.0000
  S   S120      1.0  0.34746  0.45427  0.93534  1.0000
  C   C901      1.0  0.51203  0.00589  0.94578  1.0000
  C   C902      1.0  0.53050  0.00241  0.92590  1.0000
  C   C903      1.0  0.53549  0.02158  0.90639  1.0000
  C   C904      1.0  0.52250  0.04441  0.90688  1.0000
  C   C905      1.0  0.50443  0.04813  0.92681  1.0000
  C   C906      1.0  0.49922  0.02897  0.94624  1.0000
  C   C907      1.0  0.60093  0.09287  0.56332  1.0000
  C   C908      1.0  0.52310  0.14727  0.95612  1.0000
  Fe  Fe59      1.0  0.55740  0.00083  0.66389  1.0000
  C   C909      1.0  0.55333  0.41281  0.97492  1.0000
  H   H705      1.0  0.35037  0.98858  0.52235  1.0000
  C   C910      1.0  0.57412  0.99324  0.80645  1.0000
  C   C911      1.0  0.63808  0.03958  0.71302  1.0000
  H   H706      1.0  0.39550  0.06249  0.54303  1.0000
  H   H707      1.0  0.42328  0.28911  0.96262  1.0000
  C   C912      1.0  0.46837  0.09367  0.97948  1.0000
  C   C913      1.0  0.40872  0.18653  0.94085  1.0000
  C   C914      1.0  0.57874  0.11012  0.80258  1.0000
  H   H708      1.0  0.34678  0.02086  0.59868  1.0000
  H   H709      1.0  0.52616  0.05913  0.89150  1.0000
  H   H710      1.0  0.49432  0.06585  0.92687  1.0000
  H   H711      1.0  0.56946  0.12215  0.53422  1.0000
  C   C915      1.0  0.65844  0.02472  0.72154  1.0000
  H   H712      1.0  0.40545  0.09556  0.62075  1.0000
  P   P30       1.0  0.41439  0.02418  0.81725  1.0000
  C   C916      1.0  0.40775  0.03843  0.86584  1.0000
  H   H713      1.0  0.58280  0.00767  0.73721  1.0000
  C   C917      1.0  0.51595  0.35949  0.94302  1.0000
  H   H714      1.0  0.47359  0.15135  0.94958  1.0000
  H   H715      1.0  0.61424  0.02651  0.82263  1.0000
  C   C918      1.0  0.40397  0.02864  0.76682  1.0000
  H   H716      1.0  0.64947  0.30201  0.94254  1.0000
  H   H717      1.0  0.60261  0.00499  0.57092  1.0000
  H   H718      1.0  0.51354  0.00636  0.77905  1.0000
  H   H719      1.0  0.58400  0.08505  0.56697  1.0000
  H   H720      1.0  0.39805  0.99225  0.52280  1.0000
  C   C919      1.0  0.40542  0.99539  0.83280  1.0000
  C   C920      1.0  0.40891  0.34907  0.94209  1.0000
  C   C921      1.0  0.38380  0.35102  0.94884  1.0000
  H   H721      1.0  0.59468  0.43387  0.94270  1.0000
  S   S121      1.0  0.63501  0.42792  0.97759  1.0000
  C   C922      1.0  0.66796  0.04847  0.56980  1.0000
  C   C923      1.0  0.40769  0.44391  0.93717  1.0000
  C   C924      1.0  0.61724  0.04298  0.72995  1.0000
  C   C925      1.0  0.61899  0.44197  0.88075  1.0000
  H   H722      1.0  0.54398  0.35738  0.96752  1.0000
  C   C926      1.0  0.47601  0.11674  0.97469  1.0000
  H   H723      1.0  0.59492  0.00208  0.49361  1.0000
  H   H724      1.0  0.50436  0.12503  0.57954  1.0000
  H   H725      1.0  0.42026  0.17694  0.97875  1.0000
  S   S122      1.0  0.56631  0.99833  0.62215  1.0000
  C   C927      1.0  0.60948  0.10146  0.58313  1.0000
  C   C928      1.0  0.56386  0.03500  0.75873  1.0000
  P   P31       1.0  0.58048  0.38617  0.93976  1.0000
  C   C929      1.0  0.61649  0.03157  0.75558  1.0000
  C   C930      1.0  0.65282  0.00972  0.58397  1.0000
  C   C931      1.0  0.54215  0.05020  0.76238  1.0000
  C   C932      1.0  0.38263  0.06169  0.50667  1.0000
  C   C933      1.0  0.40238  0.42010  0.94284  1.0000
  H   H726      1.0  0.39413  0.41266  0.92914  1.0000
  S   S123      1.0  0.39372  0.00611  0.64322  1.0000
  C   C934      1.0  0.61170  0.44663  0.90562  1.0000
  H   H727      1.0  0.43672  0.21574  0.97719  1.0000
  H   H728      1.0  0.59932  0.38706  0.88613  1.0000
  C   C935      1.0  0.54632  0.13755  0.50513  1.0000
  C   C936      1.0  0.61423  0.09419  0.53905  1.0000
  H   H729      1.0  0.35507  0.13386  0.72545  1.0000
  H   H730      1.0  0.57528  0.12783  0.80823  1.0000
  C   C937      1.0  0.51340  0.14724  0.98175  1.0000
  C   C938      1.0  0.49460  0.01021  0.78586  1.0000
  C   C939      1.0  0.41231  0.30634  0.95869  1.0000
  C   C940      1.0  0.46768  0.01387  0.88193  1.0000
  C   C941      1.0  0.38918  0.03569  0.74710  1.0000
  H   H731      1.0  0.54620  0.16414  0.92459  1.0000
  C   C942      1.0  0.62664  0.36086  0.94235  1.0000
  H   H732      1.0  0.45543  0.03559  0.62735  1.0000
  H   H733      1.0  0.44945  0.06870  0.96571  1.0000
  S   S124      1.0  0.42033  0.05597  0.59084  1.0000
  C   C943      1.0  0.60293  0.01225  0.82399  1.0000
  C   C944      1.0  0.45587  0.12585  0.93573  1.0000
  H   H734      1.0  0.40035  0.09342  0.88507  1.0000
  C   C945      1.0  0.57437  0.39695  0.97015  1.0000
  H   H735      1.0  0.64742  0.10451  0.51682  1.0000
  H   H736      1.0  0.55012  0.00961  0.70988  1.0000
  H   H737      1.0  0.59027  0.45798  0.97711  1.0000
  H   H738      1.0  0.56838  0.05233  0.82486  1.0000
  H   H739      1.0  0.33727  0.10022  0.51965  1.0000
  H   H740      1.0  0.37291  0.36830  0.94496  1.0000
  H   H741      1.0  0.40339  0.45488  0.91915  1.0000
  H   H742      1.0  0.36766  0.05425  0.81358  1.0000
  C   C946      1.0  0.41602  0.41622  0.98498  1.0000
  P   P32       1.0  0.58883  0.03556  0.77668  1.0000
  C   C947      1.0  0.63637  0.31802  0.94146  1.0000
  C   C948      1.0  0.37398  0.04916  0.79502  1.0000
  H   H743      1.0  0.37885  0.08112  0.50214  1.0000
  C   C949      1.0  0.53944  0.16346  0.94465  1.0000
  H   H744      1.0  0.45042  0.01631  0.89327  1.0000
  C   C950      1.0  0.59442  0.40868  0.91643  1.0000
  C   C951      1.0  0.35928  0.05639  0.77509  1.0000
  H   H745      1.0  0.39562  0.03084  0.72848  1.0000
  H   H746      1.0  0.34570  0.28795  0.93561  1.0000
  H   H747      1.0  0.61325  0.99497  0.86101  1.0000
  C   C952      1.0  0.66595  0.00131  0.56245  1.0000
  C   C953      1.0  0.64493  0.11227  0.55497  1.0000
  C   C954      1.0  0.63149  0.11109  0.57899  1.0000
  C   C955      1.0  0.63639  0.10384  0.53506  1.0000
  C   C956      1.0  0.34914  0.46806  0.98186  1.0000
  H   H748      1.0  0.35550  0.05539  0.73570  1.0000
  C   C957      1.0  0.45513  0.08657  0.96211  1.0000
  H   H749      1.0  0.37522  0.99636  0.81067  1.0000
  C   C958      1.0  0.39344  0.01159  0.51814  1.0000
  H   H750      1.0  0.46754  0.99607  0.93606  1.0000
  C   C959      1.0  0.60237  0.99446  0.84577  1.0000
  C   C960      1.0  0.45423  0.99853  0.79379  1.0000
  C   C961      1.0  0.47897  0.99052  0.87979  1.0000
  S   S125      1.0  0.52928  0.24429  0.98349  1.0000
  H   H751      1.0  0.50814  0.39234  0.98404  1.0000
  H   H752      1.0  0.46604  0.41145  0.98454  1.0000
  H   H753      1.0  0.60774  0.37958  0.98501  1.0000
  C   C962      1.0  0.53785  0.17856  0.98458  1.0000
  H   H754      1.0  0.42498  0.98900  0.93966  1.0000
  C   C963      1.0  0.60458  0.51231  0.14915  1.0000
  C   C964      1.0  0.36999  0.67849  0.08194  1.0000
  P   P33       1.0  0.47978  0.86443  0.00949  1.0000
  S   S126      1.0  0.42560  0.67764  0.03755  1.0000
  C   C965      1.0  0.61187  0.94370  0.41562  1.0000
  H   H755      1.0  0.59932  0.48927  0.05337  1.0000
  Fe  Fe60      1.0  0.46879  0.74509  0.05299  1.0000
  S   S127      1.0  0.46597  0.75882  0.09079  1.0000
  Fe  Fe61      1.0  0.44783  0.70897  0.02751  1.0000
  S   S128      1.0  0.48713  0.76235  0.01584  1.0000
  S   S129      1.0  0.48178  0.70704  0.04654  1.0000
  S   S130      1.0  0.43340  0.74533  0.03755  1.0000
  Fe  Fe62      1.0  0.43445  0.96025  0.31785  1.0000
  S   S131      1.0  0.40350  0.93893  0.33069  1.0000
  S   S132      1.0  0.47006  0.93881  0.32708  1.0000
  S   S133      1.0  0.62933  0.59050  0.99255  1.0000
  H   H756      1.0  0.38471  0.90030  0.16340  1.0000
  C   C966      1.0  0.57318  0.98039  0.41761  1.0000
  S   S134      1.0  0.36938  0.96427  0.38656  1.0000
  Fe  Fe63      1.0  0.39014  0.95468  0.29302  1.0000
  S   S135      1.0  0.37534  0.92987  0.27185  1.0000
  S   S136      1.0  0.36774  0.98608  0.30853  1.0000
  C   C967      1.0  0.61875  0.53029  0.15073  1.0000
  Fe  Fe64      1.0  0.60806  0.94021  0.30400  1.0000
  C   C968      1.0  0.51437  0.87377  0.03886  1.0000
  S   S137      1.0  0.59911  0.90615  0.29191  1.0000
  H   H757      1.0  0.61116  0.71444  0.13160  1.0000
  H   H758      1.0  0.45954  0.86300  0.06385  1.0000
  H   H759      1.0  0.61118  0.70411  0.06849  1.0000
  H   H760      1.0  0.63984  0.95790  0.08239  1.0000
  Fe  Fe65      1.0  0.58508  0.98077  0.33299  1.0000
  H   H761      1.0  0.43154  0.79609  0.03136  1.0000
  S   S138      1.0  0.60348  0.94382  0.34570  1.0000
  Fe  Fe66      1.0  0.47877  0.87826  0.17835  1.0000
  S   S139      1.0  0.51649  0.85859  0.17800  1.0000
  S   S140      1.0  0.44934  0.86301  0.20670  1.0000
  Fe  Fe67      1.0  0.49188  0.91507  0.13200  1.0000
  S   S141      1.0  0.53037  0.89827  0.12812  1.0000
  S   S142      1.0  0.47804  0.94890  0.10655  1.0000
  Fe  Fe68      1.0  0.51489  0.86306  0.13536  1.0000
  S   S143      1.0  0.53039  0.83657  0.10854  1.0000
  Fe  Fe69      1.0  0.52825  0.89568  0.17088  1.0000
  S   S144      1.0  0.55848  0.91090  0.18507  1.0000
  S   S145      1.0  0.47637  0.88009  0.13626  1.0000
  S   S146      1.0  0.49055  0.91500  0.17410  1.0000
  S   S147      1.0  0.60845  0.63554  0.04548  1.0000
  C   C969      1.0  0.49636  0.97143  0.10712  1.0000
  H   H762      1.0  0.50982  0.97983  0.20809  1.0000
  C   C970      1.0  0.64731  0.97189  0.20820  1.0000
  H   H763      1.0  0.51614  0.91804  0.07409  1.0000
  H   H764      1.0  0.34463  0.95733  0.43634  1.0000
  C   C971      1.0  0.52115  0.96530  0.10888  1.0000
  H   H765      1.0  0.46477  0.63385  0.01770  1.0000
  Fe  Fe70      1.0  0.63024  0.60378  0.02957  1.0000
  C   C972      1.0  0.38924  0.66765  0.09594  1.0000
  H   H766      1.0  0.52933  0.94703  0.10846  1.0000
  Fe  Fe71      1.0  0.62748  0.55391  0.01643  1.0000
  H   H767      1.0  0.38238  0.73675  0.07287  1.0000
  C   C973      1.0  0.58480  0.90848  0.26362  1.0000
  C   C974      1.0  0.57710  0.88782  0.25751  1.0000
  C   C975      1.0  0.56741  0.88869  0.23418  1.0000
  C   C976      1.0  0.56541  0.91020  0.21673  1.0000
  C   C977      1.0  0.57250  0.93094  0.22318  1.0000
  C   C978      1.0  0.58202  0.93017  0.24653  1.0000
  H   H768      1.0  0.57931  0.87096  0.27055  1.0000
  H   H769      1.0  0.56260  0.87253  0.22912  1.0000
  H   H770      1.0  0.57119  0.94760  0.20976  1.0000
  H   H771      1.0  0.58809  0.94616  0.25079  1.0000
  C   C979      1.0  0.49166  0.95398  0.33669  1.0000
  C   C980      1.0  0.51607  0.94483  0.33288  1.0000
  C   C981      1.0  0.53402  0.95733  0.33847  1.0000
  C   C982      1.0  0.45249  0.82588  0.02208  1.0000
  C   C983      1.0  0.64115  0.92297  0.21961  1.0000
  S   S148      1.0  0.66396  0.95127  0.36880  1.0000
  H   H772      1.0  0.52118  0.92850  0.32465  1.0000
  H   H773      1.0  0.55281  0.95040  0.33472  1.0000
  C   C984      1.0  0.49200  0.98146  0.20181  1.0000
  C   C985      1.0  0.63053  0.96810  0.11981  1.0000
  C   C986      1.0  0.39653  0.91216  0.25336  1.0000
  C   C987      1.0  0.39051  0.89016  0.24915  1.0000
  C   C988      1.0  0.40690  0.87535  0.23486  1.0000
  C   C989      1.0  0.42919  0.88272  0.22389  1.0000
  C   C990      1.0  0.43513  0.90496  0.22757  1.0000
  C   C991      1.0  0.41894  0.91955  0.24259  1.0000
  H   H774      1.0  0.37320  0.88440  0.25727  1.0000
  H   H775      1.0  0.40217  0.85821  0.23210  1.0000
  H   H776      1.0  0.45227  0.91079  0.21914  1.0000
  H   H777      1.0  0.42368  0.93662  0.24546  1.0000
  Fe  Fe72      1.0  0.33540  0.56611  0.99123  1.0000
  C   C992      1.0  0.48292  0.78206  0.09353  1.0000
  C   C993      1.0  0.47521  0.79627  0.11276  1.0000
  C   C994      1.0  0.48903  0.81396  0.11656  1.0000
  C   C995      1.0  0.51113  0.81691  0.10180  1.0000
  C   C996      1.0  0.51867  0.80301  0.08224  1.0000
  C   C997      1.0  0.50447  0.78581  0.07791  1.0000
  H   H778      1.0  0.45846  0.79359  0.12474  1.0000
  H   H779      1.0  0.48297  0.82476  0.13150  1.0000
  H   H780      1.0  0.53568  0.80533  0.07059  1.0000
  H   H781      1.0  0.51047  0.77504  0.06294  1.0000
  C   C998      1.0  0.46018  0.84526  0.03072  1.0000
  H   H782      1.0  0.35794  0.66711  0.07708  1.0000
  H   H783      1.0  0.58515  0.51519  0.15382  1.0000
  C   C999      1.0  0.40756  0.67071  0.01563  1.0000
  C   C1000     1.0  0.57314  0.71816  0.07143  1.0000
  H   H784      1.0  0.55484  0.97813  0.11191  1.0000
  H   H785      1.0  0.35526  0.93724  0.16446  1.0000
  H   H786      1.0  0.46415  0.97310  0.15175  1.0000
  H   H787      1.0  0.58727  0.92414  0.40190  1.0000
  C   C1001     1.0  0.48928  0.97577  0.17800  1.0000
  C   C1002     1.0  0.48514  0.97530  0.34709  1.0000
  H   H788      1.0  0.42120  0.67313  0.11164  1.0000
  H   H789      1.0  0.41643  0.71738  0.09712  1.0000
  Fe  Fe73      1.0  0.45260  0.76011  0.99982  1.0000
  C   C1003     1.0  0.57022  0.95895  0.40948  1.0000
  C   C1004     1.0  0.49981  0.71980  0.14248  1.0000
  C   C1005     1.0  0.48721  0.70640  0.13014  1.0000
  C   C1006     1.0  0.49942  0.69377  0.11115  1.0000
  C   C1007     1.0  0.52411  0.69500  0.10400  1.0000
  C   C1008     1.0  0.53671  0.70905  0.11573  1.0000
  C   C1009     1.0  0.52457  0.72089  0.13555  1.0000
  P   P34       1.0  0.56847  0.71061  0.10588  1.0000
  C   C1010     1.0  0.58366  0.68168  0.11898  1.0000
  C   C1011     1.0  0.55422  0.73076  0.05769  1.0000
  Fe  Fe74      1.0  0.38436  0.97185  0.34514  1.0000
  H   H790      1.0  0.33803  0.91734  0.46272  1.0000
  H   H791      1.0  0.38960  0.96649  0.22166  1.0000
  H   H792      1.0  0.61351  0.61837  0.14836  1.0000
  C   C1012     1.0  0.59611  0.71314  0.05828  1.0000
  C   C1013     1.0  0.58450  0.67559  0.14558  1.0000
  C   C1014     1.0  0.37427  0.93802  0.16554  1.0000
  C   C1015     1.0  0.37269  0.77504  0.99091  1.0000
  C   C1016     1.0  0.60393  0.64177  0.11388  1.0000
  C   C1017     1.0  0.59306  0.66441  0.10329  1.0000
  C   C1018     1.0  0.57889  0.73521  0.11708  1.0000
  C   C1019     1.0  0.56638  0.75847  0.11206  1.0000
  C   C1020     1.0  0.57508  0.77808  0.11898  1.0000
  C   C1021     1.0  0.59628  0.77464  0.13103  1.0000
  C   C1022     1.0  0.60903  0.75159  0.13580  1.0000
  C   C1023     1.0  0.60051  0.73194  0.12866  1.0000
  H   H793      1.0  0.49018  0.72969  0.15706  1.0000
  H   H794      1.0  0.46789  0.70616  0.13495  1.0000
  H   H795      1.0  0.48964  0.68340  0.10156  1.0000
  H   H796      1.0  0.53327  0.68534  0.08900  1.0000
  H   H797      1.0  0.53405  0.73117  0.14544  1.0000
  C   C1024     1.0  0.35408  0.74051  0.03013  1.0000
  C   C1025     1.0  0.36712  0.70353  0.07367  1.0000
  P   P35       1.0  0.34253  0.71801  0.05533  1.0000
  C   C1026     1.0  0.65747  0.95732  0.22906  1.0000
  H   H798      1.0  0.53644  0.73539  0.06730  1.0000
  H   H799      1.0  0.57652  0.68833  0.15812  1.0000
  C   C1027     1.0  0.57351  0.67882  0.98906  1.0000
  H   H800      1.0  0.38844  0.71894  0.02299  1.0000
  C   C1028     1.0  0.59966  0.71927  0.03161  1.0000
  H   H801      1.0  0.59179  0.66807  0.08291  1.0000
  H   H802      1.0  0.55008  0.76151  0.10239  1.0000
  H   H803      1.0  0.56548  0.79600  0.11464  1.0000
  H   H804      1.0  0.60305  0.78994  0.13618  1.0000
  H   H805      1.0  0.34198  0.58219  0.06946  1.0000
  H   H806      1.0  0.46879  0.97791  0.28506  1.0000
  C   C1029     1.0  0.40583  0.68168  0.10163  1.0000
  C   C1030     1.0  0.37837  0.95273  0.47964  1.0000
  H   H807      1.0  0.58304  0.73533  0.99731  1.0000
  C   C1031     1.0  0.46235  0.96637  0.99751  1.0000
  C   C1032     1.0  0.43766  0.81069  0.03841  1.0000
  H   H808      1.0  0.66691  0.96532  0.24136  1.0000
  C   C1033     1.0  0.59541  0.65291  0.15616  1.0000
  C   C1034     1.0  0.59684  0.95026  0.14533  1.0000
  H   H809      1.0  0.39507  0.64048  0.04190  1.0000
  S   S149      1.0  0.60060  0.53052  0.00936  1.0000
  C   C1035     1.0  0.33717  0.52248  0.08962  1.0000
  C   C1036     1.0  0.61482  0.96565  0.14255  1.0000
  H   H810      1.0  0.60739  0.93125  0.08748  1.0000
  C   C1037     1.0  0.60963  0.94067  0.10286  1.0000
  C   C1038     1.0  0.34010  0.76263  0.02274  1.0000
  H   H811      1.0  0.34215  0.73652  0.10394  1.0000
  C   C1039     1.0  0.55799  0.73728  0.03113  1.0000
  H   H812      1.0  0.50735  0.81841  0.02805  1.0000
  C   C1040     1.0  0.63113  0.93745  0.19857  1.0000
  H   H813      1.0  0.51130  0.96303  0.27332  1.0000
  H   H814      1.0  0.62539  0.70966  0.20429  1.0000
  C   C1041     1.0  0.39433  0.65093  0.02292  1.0000
  C   C1042     1.0  0.47911  0.90361  0.03476  1.0000
  H   H815      1.0  0.52451  0.85681  0.03528  1.0000
  C   C1043     1.0  0.40647  0.68417  0.99108  1.0000
  H   H816      1.0  0.50100  0.65582  0.00840  1.0000
  H   H817      1.0  0.53183  0.68777  0.03959  1.0000
  C   C1044     1.0  0.61486  0.96504  0.42393  1.0000
  C   C1045     1.0  0.34945  0.77985  0.00323  1.0000
  H   H818      1.0  0.59601  0.64826  0.17667  1.0000
  H   H819      1.0  0.47718  0.93265  0.05657  1.0000
  C   C1046     1.0  0.37732  0.73581  0.01752  1.0000
  P   P36       1.0  0.61786  0.98159  0.16829  1.0000
  H   H820      1.0  0.46160  0.90985  0.02790  1.0000
  C   C1047     1.0  0.43892  0.83314  0.07268  1.0000
  C   C1048     1.0  0.46909  0.64371  0.99871  1.0000
  C   C1049     1.0  0.55249  0.68860  0.00272  1.0000
  H   H821      1.0  0.66127  0.92186  0.25172  1.0000
  H   H822      1.0  0.42989  0.95252  0.01699  1.0000
  H   H823      1.0  0.37059  0.62889  0.01143  1.0000
  H   H824      1.0  0.62015  0.92960  0.18774  1.0000
  C   C1050     1.0  0.52299  0.88676  0.05512  1.0000
  C   C1051     1.0  0.49253  0.88231  0.02819  1.0000
  C   C1052     1.0  0.50643  0.98131  0.27726  1.0000
  C   C1053     1.0  0.40672  0.96078  0.17010  1.0000
  C   C1054     1.0  0.54786  0.68029  0.02891  1.0000
  H   H825      1.0  0.59727  0.87692  0.14566  1.0000
  H   H826      1.0  0.53825  0.79103  0.00672  1.0000
  C   C1055     1.0  0.58945  0.94050  0.40881  1.0000
  H   H827      1.0  0.34801  0.50626  0.09752  1.0000
  H   H828      1.0  0.40469  0.74936  0.98865  1.0000
  C   C1056     1.0  0.56465  0.66310  0.04160  1.0000
  H   H829      1.0  0.36911  0.97564  0.16881  1.0000
  H   H830      1.0  0.61109  0.62857  0.10150  1.0000
  H   H831      1.0  0.43425  0.83550  0.09250  1.0000
  H   H832      1.0  0.53949  0.87971  0.06388  1.0000
  H   H833      1.0  0.55324  0.95701  0.40277  1.0000
  C   C1057     1.0  0.64375  0.52678  0.14414  1.0000
  H   H834      1.0  0.42805  0.90202  0.16648  1.0000
  C   C1058     1.0  0.62786  0.95570  0.10001  1.0000
  C   C1059     1.0  0.45339  0.84871  0.05625  1.0000
  H   H835      1.0  0.56116  0.65712  0.06195  1.0000
  C   C1060     1.0  0.53561  0.98294  0.11082  1.0000
  S   S150      1.0  0.62466  0.56795  0.05349  1.0000
  H   H836      1.0  0.58460  0.94816  0.16270  1.0000
  H   H837      1.0  0.62318  0.49466  0.08700  1.0000
  C   C1061     1.0  0.51335  0.82344  0.00794  1.0000
  H   H838      1.0  0.33878  0.79702  0.99773  1.0000
  S   S151      1.0  0.58707  0.97603  0.29194  1.0000
  H   H839      1.0  0.45810  0.82230  0.00276  1.0000
  Fe  Fe75      1.0  0.49729  0.72430  0.00789  1.0000
  C   C1062     1.0  0.38390  0.71748  0.07949  1.0000
  H   H840      1.0  0.62718  0.92997  0.41365  1.0000
  C   C1063     1.0  0.58809  0.72475  0.21052  1.0000
  C   C1064     1.0  0.61294  0.72603  0.20501  1.0000
  C   C1065     1.0  0.62175  0.74841  0.20075  1.0000
  C   C1066     1.0  0.60572  0.76955  0.20168  1.0000
  C   C1067     1.0  0.58070  0.76844  0.20682  1.0000
  C   C1068     1.0  0.57203  0.74584  0.21169  1.0000
  P   P37       1.0  0.56002  0.79561  0.20907  1.0000
  C   C1069     1.0  0.55549  0.80149  0.24172  1.0000
  C   C1070     1.0  0.57300  0.82057  0.18847  1.0000
  C   C1071     1.0  0.58735  0.83453  0.19828  1.0000
  C   C1072     1.0  0.59613  0.85470  0.18281  1.0000
  C   C1073     1.0  0.59117  0.86079  0.15731  1.0000
  C   C1074     1.0  0.57774  0.84649  0.14712  1.0000
  C   C1075     1.0  0.56870  0.82646  0.16260  1.0000
  C   C1076     1.0  0.54659  0.82478  0.24674  1.0000
  C   C1077     1.0  0.54512  0.83013  0.27155  1.0000
  C   C1078     1.0  0.55180  0.81213  0.29170  1.0000
  C   C1079     1.0  0.55992  0.78868  0.28706  1.0000
  C   C1080     1.0  0.56187  0.78336  0.26215  1.0000
  C   C1081     1.0  0.53156  0.79242  0.19814  1.0000
  C   C1082     1.0  0.53138  0.78025  0.17736  1.0000
  C   C1083     1.0  0.50961  0.77887  0.16785  1.0000
  C   C1084     1.0  0.48784  0.78957  0.17899  1.0000
  C   C1085     1.0  0.48783  0.80177  0.19955  1.0000
  C   C1086     1.0  0.50953  0.80299  0.20933  1.0000
  H   H841      1.0  0.58127  0.70737  0.21414  1.0000
  C   C1087     1.0  0.58603  0.65382  0.02815  1.0000
  C   C1088     1.0  0.50978  0.90820  0.06107  1.0000
  H   H842      1.0  0.61294  0.78669  0.19850  1.0000
  H   H843      1.0  0.55286  0.74449  0.21646  1.0000
  H   H844      1.0  0.59135  0.83030  0.21802  1.0000
  H   H845      1.0  0.60609  0.86615  0.19082  1.0000
  C   C1089     1.0  0.58059  0.73128  0.01804  1.0000
  H   H846      1.0  0.57357  0.85140  0.12742  1.0000
  H   H847      1.0  0.55762  0.81630  0.15442  1.0000
  H   H848      1.0  0.54131  0.83896  0.23129  1.0000
  H   H849      1.0  0.53918  0.84838  0.27508  1.0000
  H   H850      1.0  0.55079  0.81645  0.31087  1.0000
  H   H851      1.0  0.56514  0.77473  0.30272  1.0000
  H   H852      1.0  0.56868  0.76522  0.25892  1.0000
  H   H853      1.0  0.54811  0.77244  0.16800  1.0000
  H   H854      1.0  0.50962  0.77042  0.15114  1.0000
  H   H855      1.0  0.47103  0.78912  0.17114  1.0000
  H   H856      1.0  0.47106  0.81109  0.20724  1.0000
  H   H857      1.0  0.50897  0.81300  0.22492  1.0000
  C   C1090     1.0  0.46077  0.81158  0.26374  1.0000
  C   C1091     1.0  0.47434  0.79067  0.27481  1.0000
  C   C1092     1.0  0.48846  0.79172  0.29429  1.0000
  C   C1093     1.0  0.48877  0.81359  0.30292  1.0000
  C   C1094     1.0  0.47512  0.83472  0.29190  1.0000
  C   C1095     1.0  0.46144  0.83349  0.27198  1.0000
  P   P38       1.0  0.47500  0.86340  0.30251  1.0000
  C   C1096     1.0  0.44582  0.87124  0.31976  1.0000
  C   C1097     1.0  0.49960  0.86259  0.32190  1.0000
  C   C1098     1.0  0.49999  0.84766  0.34588  1.0000
  C   C1099     1.0  0.51904  0.84682  0.36075  1.0000
  C   C1100     1.0  0.53783  0.86092  0.35184  1.0000
  C   C1101     1.0  0.53755  0.87596  0.32815  1.0000
  C   C1102     1.0  0.51847  0.87698  0.31333  1.0000
  C   C1103     1.0  0.44403  0.87702  0.34457  1.0000
  C   C1104     1.0  0.42134  0.88149  0.35827  1.0000
  C   C1105     1.0  0.40025  0.88103  0.34705  1.0000
  C   C1106     1.0  0.40183  0.87676  0.32185  1.0000
  C   C1107     1.0  0.42448  0.87192  0.30827  1.0000
  C   C1108     1.0  0.47998  0.88551  0.27439  1.0000
  C   C1109     1.0  0.47101  0.90979  0.27465  1.0000
  C   C1110     1.0  0.47948  0.92763  0.25535  1.0000
  C   C1111     1.0  0.49678  0.92120  0.23568  1.0000
  C   C1112     1.0  0.50475  0.89694  0.23467  1.0000
  C   C1113     1.0  0.49621  0.87912  0.25376  1.0000
  H   H858      1.0  0.44970  0.81102  0.24865  1.0000
  H   H859      1.0  0.47391  0.77373  0.26824  1.0000
  H   H860      1.0  0.49909  0.77554  0.30281  1.0000
  H   H861      1.0  0.49991  0.81382  0.31790  1.0000
  H   H862      1.0  0.45151  0.84956  0.26242  1.0000
  H   H863      1.0  0.48539  0.83687  0.35318  1.0000
  H   H864      1.0  0.51908  0.83548  0.37935  1.0000
  H   H865      1.0  0.55248  0.86053  0.36342  1.0000
  H   H866      1.0  0.55193  0.88725  0.32137  1.0000
  H   H867      1.0  0.51861  0.88934  0.29539  1.0000
  H   H868      1.0  0.45996  0.87879  0.35323  1.0000
  H   H869      1.0  0.42010  0.88629  0.37723  1.0000
  H   H870      1.0  0.38270  0.88532  0.35738  1.0000
  H   H871      1.0  0.38555  0.87790  0.31250  1.0000
  H   H872      1.0  0.42514  0.86934  0.28861  1.0000
  H   H873      1.0  0.45801  0.91501  0.29008  1.0000
  H   H874      1.0  0.47284  0.94637  0.25594  1.0000
  H   H875      1.0  0.50395  0.93483  0.22102  1.0000
  H   H876      1.0  0.51784  0.89198  0.21922  1.0000
  H   H877      1.0  0.50290  0.86049  0.25281  1.0000
  C   C1114     1.0  0.42318  0.93982  0.16934  1.0000
  C   C1115     1.0  0.41526  0.91820  0.16664  1.0000
  C   C1116     1.0  0.59533  0.98331  0.42571  1.0000
  H   H878      1.0  0.42034  0.80169  0.07661  1.0000
  C   C1117     1.0  0.60521  0.63603  0.14028  1.0000
  H   H879      1.0  0.57983  0.92645  0.12796  1.0000
  C   C1118     1.0  0.39081  0.91724  0.16492  1.0000
  H   H880      1.0  0.54309  0.74610  0.02049  1.0000
  S   S152      1.0  0.64434  0.95425  0.29755  1.0000
  H   H881      1.0  0.44204  0.93983  0.17130  1.0000
  C   C1119     1.0  0.40316  0.70659  0.09341  1.0000
  H   H882      1.0  0.39184  0.64825  0.10153  1.0000
  H   H883      1.0  0.34618  0.70633  0.00292  1.0000
  C   C1120     1.0  0.63521  0.49126  0.00338  1.0000
  H   H884      1.0  0.46093  0.98787  0.40136  1.0000
  S   S153      1.0  0.42259  0.97373  0.27840  1.0000
  C   C1121     1.0  0.48937  0.65619  0.99353  1.0000
  C   C1122     1.0  0.59416  0.93791  0.12558  1.0000
  C   C1123     1.0  0.46615  0.97728  0.17030  1.0000
  H   H885      1.0  0.54680  0.89920  0.99511  1.0000
  C   C1124     1.0  0.63410  0.96207  0.19271  1.0000
  C   C1125     1.0  0.52765  0.97877  0.34852  1.0000
  C   C1126     1.0  0.43107  0.81412  0.06376  1.0000
  H   H886      1.0  0.55271  0.97870  0.98871  1.0000
  Fe  Fe76      1.0  0.63758  0.96166  0.33828  1.0000
  C   C1127     1.0  0.65463  0.50533  0.13596  1.0000
  C   C1128     1.0  0.48780  0.91654  0.05100  1.0000
  H   H887      1.0  0.64105  0.74938  0.19680  1.0000
  H   H888      1.0  0.63258  0.96725  0.42844  1.0000
  H   H889      1.0  0.64465  0.97974  0.11719  1.0000
  H   H890      1.0  0.47289  0.95912  0.01338  1.0000
  C   C1129     1.0  0.38218  0.95973  0.16804  1.0000
  H   H891      1.0  0.61706  0.71427  0.02138  1.0000
  H   H892      1.0  0.63782  0.90429  0.22476  1.0000
  C   C1130     1.0  0.38655  0.75298  0.99798  1.0000
  C   C1131     1.0  0.59528  0.48987  0.99145  1.0000
  C   C1132     1.0  0.61143  0.50213  0.00065  1.0000
  H   H893      1.0  0.61034  0.54713  0.15656  1.0000
  H   H894      1.0  0.62581  0.74903  0.14450  1.0000
  H   H895      1.0  0.36027  0.98306  0.25425  1.0000
  C   C1133     1.0  0.44560  0.98413  0.18646  1.0000
  C   C1134     1.0  0.38418  0.98579  0.21930  1.0000
  C   C1135     1.0  0.50327  0.84508  0.99396  1.0000
  H   H896      1.0  0.36573  0.54454  0.08849  1.0000
  H   H897      1.0  0.50507  0.97024  0.16545  1.0000
  H   H898      1.0  0.34764  0.91686  0.32339  1.0000
  H   H899      1.0  0.46632  0.98245  0.35006  1.0000
  C   C1136     1.0  0.50317  0.98755  0.35328  1.0000
  H   H900      1.0  0.57687  0.49809  0.98952  1.0000
  H   H901      1.0  0.42054  0.98072  0.39207  1.0000
  C   C1137     1.0  0.65427  0.93290  0.23489  1.0000
  C   C1138     1.0  0.43806  0.96246  0.99954  1.0000
  C   C1139     1.0  0.38046  0.64432  0.00567  1.0000
  S   S154      1.0  0.35487  0.53016  0.00696  1.0000
  H   H902      1.0  0.64762  0.50038  0.01097  1.0000
  H   H903      1.0  0.52904  0.93959  0.00367  1.0000
  C   C1140     1.0  0.42247  0.98711  0.40965  1.0000
  C   C1141     1.0  0.59019  0.66131  0.00171  1.0000
  S   S155      1.0  0.46418  0.72371  0.98836  1.0000
  C   C1142     1.0  0.53088  0.80786  0.99591  1.0000
  H   H904      1.0  0.38884  0.95314  0.46115  1.0000
  H   H905      1.0  0.65474  0.54095  0.14448  1.0000
  Fe  Fe77      1.0  0.66501  0.56084  0.04980  1.0000
  H   H906      1.0  0.60668  0.65432  0.99124  1.0000
  C   C1143     1.0  0.61539  0.49091  0.14077  1.0000
  H   H907      1.0  0.38471  0.98764  0.42285  1.0000
  C   C1144     1.0  0.53951  0.98622  0.00275  1.0000
  C   C1145     1.0  0.33967  0.97464  0.39778  1.0000
  S   S156      1.0  0.66751  0.54345  0.01471  1.0000
  S   S157      1.0  0.53342  0.71255  0.98708  1.0000
  C   C1146     1.0  0.34735  0.54421  0.08451  1.0000
  H   H908      1.0  0.37828  0.91421  0.48482  1.0000
  H   H909      1.0  0.36793  0.89860  0.73046  1.0000
  C   C1147     1.0  0.42446  0.97089  0.97883  1.0000
  H   H910      1.0  0.43720  0.90359  0.74101  1.0000
  H   H911      1.0  0.41974  0.88406  0.94589  1.0000
  H   H912      1.0  0.43376  0.92367  0.92714  1.0000
  C   C1148     1.0  0.64690  0.50420  0.92935  1.0000
  H   H913      1.0  0.48352  0.83799  0.65548  1.0000
  Fe  Fe78      1.0  0.47573  0.93579  0.87108  1.0000
  S   S158      1.0  0.51164  0.91312  0.86893  1.0000
  H   H914      1.0  0.52625  0.89728  0.72048  1.0000
  Fe  Fe79      1.0  0.45746  0.91399  0.83028  1.0000
  S   S159      1.0  0.49193  0.88901  0.82448  1.0000
  S   S160      1.0  0.42405  0.91730  0.80948  1.0000
  Fe  Fe80      1.0  0.49041  0.88275  0.86753  1.0000
  S   S161      1.0  0.50355  0.84660  0.88987  1.0000
  Fe  Fe81      1.0  0.51060  0.92108  0.82638  1.0000
  S   S162      1.0  0.54512  0.93081  0.80271  1.0000
  S   S163      1.0  0.45428  0.90480  0.87331  1.0000
  S   S164      1.0  0.47640  0.94651  0.82871  1.0000
  H   H915      1.0  0.48477  0.97843  0.77515  1.0000
  C   C1149     1.0  0.56190  0.95227  0.75481  1.0000
  H   H916      1.0  0.57716  0.68514  0.96877  1.0000
  C   C1150     1.0  0.44476  0.87605  0.97464  1.0000
  C   C1151     1.0  0.37971  0.96348  0.83716  1.0000
  C   C1152     1.0  0.46366  0.88386  0.98480  1.0000
  C   C1153     1.0  0.45889  0.93965  0.66158  1.0000
  H   H917      1.0  0.57856  0.95262  0.76290  1.0000
  H   H918      1.0  0.50008  0.90967  0.68550  1.0000
  C   C1154     1.0  0.44867  0.85035  0.64184  1.0000
  C   C1155     1.0  0.45650  0.90135  0.73583  1.0000
  C   C1156     1.0  0.54239  0.94253  0.77032  1.0000
  C   C1157     1.0  0.52103  0.94186  0.75977  1.0000
  C   C1158     1.0  0.51910  0.95098  0.73382  1.0000
  H   H919      1.0  0.56199  0.96145  0.83011  1.0000
  H   H920      1.0  0.50610  0.93411  0.77160  1.0000
  C   C1159     1.0  0.35581  0.51564  0.96026  1.0000
  C   C1160     1.0  0.42722  0.97096  0.73455  1.0000
  C   C1161     1.0  0.44810  0.96203  0.74661  1.0000
  C   C1162     1.0  0.44697  0.94607  0.76981  1.0000
  C   C1163     1.0  0.42492  0.93863  0.78114  1.0000
  C   C1164     1.0  0.40376  0.94780  0.76934  1.0000
  C   C1165     1.0  0.40485  0.96423  0.74616  1.0000
  H   H921      1.0  0.46333  0.93904  0.77865  1.0000
  H   H922      1.0  0.38659  0.94214  0.77806  1.0000
  C   C1166     1.0  0.43514  0.98326  0.95613  1.0000
  C   C1167     1.0  0.55990  0.96153  0.72880  1.0000
  C   C1168     1.0  0.35680  0.97249  0.51400  1.0000
  C   C1169     1.0  0.46802  0.87151  0.66786  1.0000
  C   C1170     1.0  0.37800  0.91181  0.71797  1.0000
  C   C1171     1.0  0.46651  0.90666  0.71027  1.0000
  P   P39       1.0  0.44752  0.91501  0.68420  1.0000
  S   S165      1.0  0.43324  0.79175  0.97555  1.0000
  C   C1172     1.0  0.36634  0.93466  0.70923  1.0000
  C   C1173     1.0  0.40406  0.94603  0.68604  1.0000
  C   C1174     1.0  0.45279  0.80708  0.95190  1.0000
  C   C1175     1.0  0.44403  0.82899  0.93751  1.0000
  C   C1176     1.0  0.45946  0.84139  0.91845  1.0000
  C   C1177     1.0  0.48358  0.83171  0.91352  1.0000
  C   C1178     1.0  0.49218  0.80962  0.92772  1.0000
  C   C1179     1.0  0.47690  0.79743  0.94704  1.0000
  H   H923      1.0  0.42532  0.83639  0.94112  1.0000
  H   H924      1.0  0.45266  0.85830  0.90748  1.0000
  H   H925      1.0  0.51077  0.80194  0.92382  1.0000
  H   H926      1.0  0.48371  0.78038  0.95784  1.0000
  H   H927      1.0  0.38037  0.65890  0.88635  1.0000
  C   C1180     1.0  0.44821  0.88968  0.66755  1.0000
  H   H928      1.0  0.41133  0.88805  0.71709  1.0000
  H   H929      1.0  0.66529  0.98309  0.55948  1.0000
  H   H930      1.0  0.37026  0.96940  0.68632  1.0000
  H   H931      1.0  0.47547  0.95397  0.68945  1.0000
  H   H932      1.0  0.46360  0.89027  0.77521  1.0000
  C   C1181     1.0  0.37933  0.95168  0.69312  1.0000
  C   C1182     1.0  0.42892  0.86835  0.64136  1.0000
  H   H933      1.0  0.42320  0.94825  0.87805  1.0000
  H   H934      1.0  0.35240  0.49757  0.84387  1.0000
  C   C1183     1.0  0.47148  0.90622  0.97391  1.0000
  H   H935      1.0  0.53375  0.83941  0.93533  1.0000
  H   H936      1.0  0.35823  0.53400  0.95181  1.0000
  H   H937      1.0  0.48837  0.63848  0.91309  1.0000
  C   C1184     1.0  0.35049  0.95031  0.52715  1.0000
  C   C1185     1.0  0.46237  0.96273  0.61852  1.0000
  C   C1186     1.0  0.66011  0.91378  0.60931  1.0000
  C   C1187     1.0  0.62469  0.51724  0.93625  1.0000
  S   S166      1.0  0.46528  0.96513  0.89534  1.0000
  H   H938      1.0  0.43567  0.70397  0.94127  1.0000
  C   C1188     1.0  0.39261  0.67752  0.97378  1.0000
  C   C1189     1.0  0.51914  0.95228  0.96508  1.0000
  H   H939      1.0  0.45823  0.96579  0.59884  1.0000
  C   C1190     1.0  0.49664  0.89209  0.74993  1.0000
  H   H940      1.0  0.41135  0.74357  0.94181  1.0000
  C   C1191     1.0  0.66752  0.53766  0.93409  1.0000
  H   H941      1.0  0.49134  0.98682  0.65845  1.0000
  C   C1192     1.0  0.45398  0.64452  0.97959  1.0000
  C   C1193     1.0  0.45883  0.65821  0.95544  1.0000
  C   C1194     1.0  0.47925  0.67077  0.95000  1.0000
  C   C1195     1.0  0.49450  0.66958  0.96928  1.0000
  P   P40       1.0  0.48491  0.68930  0.91906  1.0000
  C   C1196     1.0  0.47647  0.67464  0.89461  1.0000
  C   C1197     1.0  0.46680  0.71836  0.91875  1.0000
  C   C1198     1.0  0.44323  0.71996  0.93132  1.0000
  S   S167      1.0  0.34497  0.58626  0.95205  1.0000
  C   C1199     1.0  0.52850  0.83521  0.95578  1.0000
  C   C1200     1.0  0.46186  0.76195  0.90582  1.0000
  C   C1201     1.0  0.47579  0.73951  0.90542  1.0000
  C   C1202     1.0  0.46630  0.68834  0.87312  1.0000
  C   C1203     1.0  0.45969  0.67689  0.85429  1.0000
  C   C1204     1.0  0.46326  0.65173  0.85675  1.0000
  C   C1205     1.0  0.42930  0.74240  0.93155  1.0000
  C   C1206     1.0  0.48025  0.64938  0.89681  1.0000
  C   C1207     1.0  0.51681  0.69271  0.91306  1.0000
  C   C1208     1.0  0.52620  0.70940  0.92453  1.0000
  C   C1209     1.0  0.55096  0.71149  0.92093  1.0000
  C   C1210     1.0  0.56660  0.69698  0.90579  1.0000
  C   C1211     1.0  0.55744  0.68038  0.89420  1.0000
  C   C1212     1.0  0.53265  0.67819  0.89783  1.0000
  C   C1213     1.0  0.37074  0.97396  0.49012  1.0000
  H   H942      1.0  0.38900  0.51518  0.84869  1.0000
  C   C1214     1.0  0.34555  0.64672  0.89861  1.0000
  H   H943      1.0  0.44640  0.65920  0.94122  1.0000
  H   H944      1.0  0.51022  0.67914  0.96596  1.0000
  H   H945      1.0  0.38017  0.78847  0.97605  1.0000
  H   H946      1.0  0.50305  0.86692  0.95611  1.0000
  H   H947      1.0  0.36512  0.95612  0.83087  1.0000
  H   H948      1.0  0.46916  0.77832  0.89627  1.0000
  H   H949      1.0  0.49359  0.73885  0.89487  1.0000
  H   H950      1.0  0.46346  0.70785  0.87084  1.0000
  H   H951      1.0  0.45180  0.68756  0.83777  1.0000
  H   H952      1.0  0.45809  0.64287  0.84218  1.0000
  H   H953      1.0  0.47638  0.61848  0.87991  1.0000
  C   C1215     1.0  0.53832  0.96114  0.71837  1.0000
  H   H954      1.0  0.51446  0.72039  0.93688  1.0000
  H   H955      1.0  0.55801  0.72399  0.93048  1.0000
  H   H956      1.0  0.58584  0.69841  0.90334  1.0000
  H   H957      1.0  0.56962  0.66897  0.88267  1.0000
  H   H958      1.0  0.52608  0.66497  0.88897  1.0000
  C   C1216     1.0  0.50679  0.89777  0.72466  1.0000
  C   C1217     1.0  0.43388  0.89045  0.95406  1.0000
  H   H959      1.0  0.41377  0.95958  0.67374  1.0000
  H   H960      1.0  0.64272  0.92307  0.61566  1.0000
  C   C1218     1.0  0.57358  0.97554  0.82830  1.0000
  C   C1219     1.0  0.49184  0.90504  0.70492  1.0000
  H   H961      1.0  0.41375  0.86714  0.63112  1.0000
  C   C1220     1.0  0.47357  0.63799  0.87799  1.0000
  H   H962      1.0  0.46529  0.96749  0.73784  1.0000
  H   H963      1.0  0.36388  0.69553  0.85796  1.0000
  H   H964      1.0  0.44883  0.83516  0.63198  1.0000
  H   H965      1.0  0.60813  0.50903  0.93804  1.0000
  C   C1221     1.0  0.48090  0.97472  0.65208  1.0000
  C   C1222     1.0  0.53838  0.81370  0.96982  1.0000
  C   C1223     1.0  0.39313  0.94978  0.85617  1.0000
  C   C1224     1.0  0.45386  0.94347  0.63591  1.0000
  C   C1225     1.0  0.47153  0.89388  0.75549  1.0000
  H   H966      1.0  0.34709  0.55991  0.89973  1.0000
  H   H967      1.0  0.43872  0.85865  0.98194  1.0000
  H   H968      1.0  0.41321  0.90173  0.65346  1.0000
  H   H969      1.0  0.50998  0.96948  0.86313  1.0000
  C   C1226     1.0  0.46820  0.85195  0.65506  1.0000
  H   H970      1.0  0.42818  0.78086  0.91982  1.0000
  S   S168      1.0  0.36278  0.64939  0.95861  1.0000
  C   C1227     1.0  0.35471  0.49855  0.94445  1.0000
  H   H971      1.0  0.60680  0.55005  0.94866  1.0000
  H   H972      1.0  0.38893  0.93184  0.86462  1.0000
  C   C1228     1.0  0.37044  0.53888  0.87426  1.0000
  C   C1229     1.0  0.38568  0.98630  0.82561  1.0000
  H   H973      1.0  0.43505  0.98748  0.85629  1.0000
  C   C1230     1.0  0.44178  0.91269  0.94345  1.0000
  C   C1231     1.0  0.43870  0.76340  0.91903  1.0000
  C   C1232     1.0  0.37969  0.65746  0.98095  1.0000
  H   H974      1.0  0.33923  0.94962  0.54532  1.0000
  H   H975      1.0  0.55147  0.80133  0.96031  1.0000
  H   H976      1.0  0.39200  0.68785  0.95474  1.0000
  C   C1233     1.0  0.47215  0.95572  0.66959  1.0000
  C   C1234     1.0  0.41602  0.92324  0.69498  1.0000
  C   C1235     1.0  0.53903  0.91222  0.97999  1.0000
  H   H977      1.0  0.57503  0.96885  0.71684  1.0000
  C   C1236     1.0  0.41916  0.98122  0.85136  1.0000
  C   C1237     1.0  0.42867  0.88792  0.65413  1.0000
  C   C1238     1.0  0.40266  0.90600  0.71060  1.0000
  H   H978      1.0  0.48646  0.91237  0.98074  1.0000
  C   C1239     1.0  0.52919  0.93531  0.98465  1.0000
  C   C1240     1.0  0.64533  0.55061  0.94100  1.0000
  H   H979      1.0  0.50823  0.88704  0.76530  1.0000
  H   H980      1.0  0.44311  0.93186  0.62933  1.0000
  H   H981      1.0  0.48333  0.87225  0.67798  1.0000
  H   H982      1.0  0.46693  0.93755  0.94489  1.0000
  C   C1241     1.0  0.41266  0.95881  0.86347  1.0000
  C   C1242     1.0  0.35827  0.92929  0.51670  1.0000
  H   H983      1.0  0.54604  0.88786  0.95233  1.0000
  C   C1243     1.0  0.62391  0.54038  0.94221  1.0000
  H   H984      1.0  0.54105  0.98503  0.92520  1.0000
  H   H985      1.0  0.66391  0.93551  0.49702  1.0000
  H   H986      1.0  0.38859  0.97125  0.73709  1.0000
  C   C1244     1.0  0.34829  0.54649  0.88728  1.0000
  C   C1245     1.0  0.46053  0.92054  0.95344  1.0000
  H   H987      1.0  0.35330  0.91213  0.52692  1.0000
  H   H988      1.0  0.35276  0.63086  0.91115  1.0000
  H   H989      1.0  0.50918  0.95768  0.92626  1.0000
  H   H990      1.0  0.58703  0.96235  0.86480  1.0000
  Fe  Fe82      1.0  0.33893  0.61925  0.97102  1.0000
  C   C1246     1.0  0.47304  0.97923  0.97496  1.0000
  H   H991      1.0  0.38656  0.54645  0.87656  1.0000
  C   C1247     1.0  0.66625  0.88937  0.61863  1.0000
  C   C1248     1.0  0.35178  0.68321  0.86873  1.0000
  C   C1249     1.0  0.35098  0.51127  0.85594  1.0000
  H   H992      1.0  0.65355  0.87961  0.63217  1.0000
  S   S169      1.0  0.53458  0.97285  0.68610  1.0000
  C   C1250     1.0  0.58764  0.97613  0.84794  1.0000
  H   H993      1.0  0.52692  0.91708  0.91827  1.0000
  C   C1251     1.0  0.52784  0.92227  0.93671  1.0000
  C   C1252     1.0  0.47605  0.97823  0.62657  1.0000
  H   H994      1.0  0.50270  0.95009  0.72560  1.0000
  C   C1253     1.0  0.53851  0.90576  0.95597  1.0000
  C   C1254     1.0  0.37229  0.93049  0.49300  1.0000
  H   H995      1.0  0.40580  0.96742  0.98017  1.0000
  C   C1255     1.0  0.51093  0.85081  0.96771  1.0000
  C   C1256     1.0  0.51799  0.94536  0.94126  1.0000
  H   H996      1.0  0.43801  0.63517  0.98380  1.0000
  C   C1257     1.0  0.50123  0.98741  0.86504  1.0000
  H   H997      1.0  0.34726  0.93926  0.71491  1.0000
  P   P41       1.0  0.50502  0.98159  0.97132  1.0000
  H   H998      1.0  0.44199  0.98569  0.79272  1.0000
  H   H999      1.0  0.35622  0.50378  0.92389  1.0000
  C   C1258     1.0  0.37179  0.52126  0.85860  1.0000
  C   C1259     1.0  0.36112  0.66256  0.88458  1.0000
  H   H1000     1.0  0.64491  0.56835  0.94605  1.0000
  C   C1260     1.0  0.35407  0.50883  0.98690  1.0000
  C   C1261     1.0  0.45935  0.98736  0.95416  1.0000
  C   C1262     1.0  0.66851  0.51447  0.92790  1.0000
  H   H1001     1.0  0.41656  0.69947  0.98540  1.0000
  C   C1263     1.0  0.98965  0.42828  0.28703  1.0000
  H   H1002     1.0  0.68210  0.99490  0.46169  1.0000
  H   H1003     1.0  0.84180  0.38812  0.09975  1.0000
  C   C1264     1.0  0.66884  0.02790  0.14280  1.0000
  Fe  Fe83      1.0  0.73272  0.02787  0.44486  1.0000
  S   S170      1.0  0.71033  0.03064  0.41150  1.0000
  H   H1004     1.0  0.67968  0.03391  0.37194  1.0000
  S   S171      1.0  0.77325  0.01968  0.44440  1.0000
  H   H1005     1.0  0.84274  0.10374  0.43755  1.0000
  Fe  Fe84      1.0  0.68983  0.38039  0.04419  1.0000
  S   S172      1.0  0.69795  0.40812  0.00951  1.0000
  S   S173      1.0  0.69406  0.38294  0.08526  1.0000
  S   S174      1.0  0.70745  0.34838  0.02630  1.0000
  C   C1265     1.0  0.70392  0.45735  0.12248  1.0000
  S   S175      1.0  0.78614  0.40232  0.13335  1.0000
  Fe  Fe85      1.0  0.97482  0.30872  0.36909  1.0000
  H   H1006     1.0  0.99314  0.26362  0.46178  1.0000
  S   S176      1.0  0.95312  0.28307  0.35654  1.0000
  C   C1266     1.0  0.86869  0.45655  0.99826  1.0000
  C   C1267     1.0  0.92365  0.26916  0.48549  1.0000
  H   H1007     1.0  0.80928  0.39143  0.07200  1.0000
  C   C1268     1.0  0.78709  0.32143  0.02830  1.0000
  C   C1269     1.0  0.90844  0.01096  0.45995  1.0000
  Fe  Fe86      1.0  0.97514  0.34447  0.40485  1.0000
  H   H1008     1.0  0.74690  0.34490  0.07353  1.0000
  S   S177      1.0  0.95866  0.34727  0.36801  1.0000
  C   C1270     1.0  0.93400  0.26750  0.38065  1.0000
  C   C1271     1.0  0.89488  0.25306  0.39399  1.0000
  C   C1272     1.0  0.91088  0.26481  0.37519  1.0000
  H   H1009     1.0  0.87682  0.25167  0.38980  1.0000
  H   H1010     1.0  0.90511  0.27243  0.35656  1.0000
  S   S178      1.0  0.88993  0.43521  0.06997  1.0000
  H   H1011     1.0  0.92470  0.31470  0.44446  1.0000
  C   C1273     1.0  0.90227  0.24272  0.41800  1.0000
  C   C1274     1.0  0.94145  0.25741  0.40479  1.0000
  S   S179      1.0  0.81890  0.44764  0.08059  1.0000
  C   C1275     1.0  0.76166  0.34383  0.05837  1.0000
  C   C1276     1.0  0.88600  0.31311  0.40086  1.0000
  H   H1012     1.0  0.91145  0.09996  0.39155  1.0000
  H   H1013     1.0  0.85335  0.46007  0.03688  1.0000
  C   C1277     1.0  0.72140  0.38775  0.09579  1.0000
  C   C1278     1.0  0.72848  0.37368  0.11849  1.0000
  C   C1279     1.0  0.74857  0.37823  0.12923  1.0000
  C   C1280     1.0  0.76186  0.39708  0.11761  1.0000
  C   C1281     1.0  0.75518  0.41107  0.09454  1.0000
  C   C1282     1.0  0.73471  0.40658  0.08383  1.0000
  H   H1014     1.0  0.71823  0.35926  0.12800  1.0000
  H   H1015     1.0  0.75362  0.36728  0.14694  1.0000
  H   H1016     1.0  0.76544  0.42555  0.08526  1.0000
  H   H1017     1.0  0.72880  0.41802  0.06681  1.0000
  H   H1018     1.0  0.67442  0.48129  0.06990  1.0000
  C   C1283     1.0  0.98162  0.46372  0.30790  1.0000
  C   C1284     1.0  0.98273  0.44872  0.33175  1.0000
  C   C1285     1.0  0.84549  0.11572  0.47320  1.0000
  C   C1286     1.0  0.67100  0.39272  0.16048  1.0000
  H   H1019     1.0  0.68328  0.37682  0.15704  1.0000
  C   C1287     1.0  0.83357  0.38503  0.03819  1.0000
  C   C1288     1.0  0.90746  0.31478  0.41078  1.0000
  H   H1020     1.0  0.92589  0.08387  0.44755  1.0000
  C   C1289     1.0  0.84542  0.01768  0.45199  1.0000
  C   C1290     1.0  0.81429  0.09219  0.46626  1.0000
  S   S180      1.0  0.80113  0.07805  0.44526  1.0000
  H   H1021     1.0  0.88911  0.47966  0.14258  1.0000
  C   C1291     1.0  0.77441  0.36365  0.04952  1.0000
  S   S181      1.0  0.88135  0.22791  0.44069  1.0000
  C   C1292     1.0  0.83493  0.10384  0.45713  1.0000
  C   C1293     1.0  0.94876  0.18362  0.40314  1.0000
  H   H1022     1.0  0.70087  0.44952  0.14246  1.0000
  Fe  Fe87      1.0  0.76543  0.00241  0.48529  1.0000
  H   H1023     1.0  0.99220  0.42043  0.26972  1.0000
  H   H1024     1.0  0.92987  0.46261  0.07364  1.0000
  C   C1294     1.0  0.90786  0.31329  0.43714  1.0000
  C   C1295     1.0  0.83460  0.02053  0.42926  1.0000
  H   H1025     1.0  0.89614  0.10073  0.48025  1.0000
  C   C1296     1.0  0.90894  0.43108  0.02110  1.0000
  H   H1026     1.0  0.98655  0.30499  0.47268  1.0000
  C   C1297     1.0  0.96585  0.19173  0.38304  1.0000
  S   S182      1.0  0.98849  0.30501  0.40745  1.0000
  H   H1027     1.0  0.86269  0.37768  0.00874  1.0000
  S   S183      1.0  0.79689  0.47060  0.13280  1.0000
  Fe  Fe88      1.0  0.77187  0.05383  0.46082  1.0000
  C   C1298     1.0  0.76411  0.46151  0.02680  1.0000
  C   C1299     1.0  0.67198  0.99795  0.37086  1.0000
  C   C1300     1.0  0.68908  0.47501  0.08173  1.0000
  H   H1028     1.0  0.92393  0.31687  0.39808  1.0000
  H   H1029     1.0  0.99534  0.13686  0.41402  1.0000
  C   C1301     1.0  0.87626  0.37833  0.04438  1.0000
  H   H1030     1.0  0.82722  0.03836  0.42056  1.0000
  Fe  Fe89      1.0  0.89490  0.19826  0.47134  1.0000
  C   C1302     1.0  0.82950  0.19385  0.46615  1.0000
  C   C1303     1.0  0.75265  0.44223  0.02317  1.0000
  H   H1031     1.0  0.92455  0.42123  0.02980  1.0000
  C   C1304     1.0  0.81315  0.18117  0.48344  1.0000
  C   C1305     1.0  0.82791  0.38753  0.06408  1.0000
  H   H1032     1.0  0.96977  0.00127  0.45940  1.0000
  C   C1306     1.0  0.78913  0.45890  0.02708  1.0000
  C   C1307     1.0  0.86491  0.30971  0.41737  1.0000
  H   H1033     1.0  0.88592  0.31402  0.38041  1.0000
  C   C1308     1.0  0.88672  0.31007  0.45384  1.0000
  C   C1309     1.0  0.76478  0.16547  0.36765  1.0000
  C   C1310     1.0  0.75991  0.14177  0.37667  1.0000
  C   C1311     1.0  0.77552  0.12615  0.39226  1.0000
  C   C1312     1.0  0.79602  0.13416  0.39871  1.0000
  C   C1313     1.0  0.80115  0.15788  0.38970  1.0000
  C   C1314     1.0  0.78525  0.17358  0.37424  1.0000
  P   P42       1.0  0.82712  0.16828  0.39932  1.0000
  C   C1315     1.0  0.82105  0.17367  0.43216  1.0000
  C   C1316     1.0  0.85358  0.14624  0.39688  1.0000
  C   C1317     1.0  0.85490  0.12813  0.38166  1.0000
  C   C1318     1.0  0.87565  0.11139  0.37993  1.0000
  C   C1319     1.0  0.89537  0.11288  0.39295  1.0000
  C   C1320     1.0  0.89444  0.13122  0.40755  1.0000
  C   C1321     1.0  0.87367  0.14788  0.40937  1.0000
  H   H1034     1.0  0.92195  0.45191  0.31467  1.0000
  H   H1035     1.0  0.00052  0.38501  0.19282  1.0000
  H   H1036     1.0  0.97332  0.20972  0.42950  1.0000
  C   C1322     1.0  0.86522  0.30822  0.44380  1.0000
  C   C1323     1.0  0.85474  0.99461  0.46368  1.0000
  C   C1324     1.0  0.83417  0.19583  0.37865  1.0000
  C   C1325     1.0  0.82254  0.21826  0.38399  1.0000
  C   C1326     1.0  0.82888  0.23964  0.36880  1.0000
  C   C1327     1.0  0.84655  0.23878  0.34791  1.0000
  C   C1328     1.0  0.85774  0.21652  0.34204  1.0000
  C   C1329     1.0  0.85157  0.19510  0.35731  1.0000
  H   H1037     1.0  0.75258  0.17762  0.35570  1.0000
  H   H1038     1.0  0.74397  0.13552  0.37175  1.0000
  H   H1039     1.0  0.77169  0.10782  0.39966  1.0000
  H   H1040     1.0  0.80778  0.12189  0.41102  1.0000
  H   H1041     1.0  0.78851  0.19206  0.36730  1.0000
  H   H1042     1.0  0.84005  0.12688  0.37103  1.0000
  H   H1043     1.0  0.87642  0.09727  0.36844  1.0000
  P   P43       1.0  0.99778  0.18591  0.38673  1.0000
  H   H1044     1.0  0.89470  0.02208  0.44916  1.0000
  H   H1045     1.0  0.87333  0.16218  0.42040  1.0000
  H   H1046     1.0  0.84683  0.19962  0.42788  1.0000
  H   H1047     1.0  0.79794  0.47402  0.02964  1.0000
  S   S184      1.0  0.99890  0.38211  0.31123  1.0000
  H   H1048     1.0  0.98248  0.20659  0.47402  1.0000
  H   H1049     1.0  0.79466  0.14817  0.44404  1.0000
  H   H1050     1.0  0.80886  0.21928  0.40017  1.0000
  H   H1051     1.0  0.82026  0.25690  0.37341  1.0000
  H   H1052     1.0  0.85162  0.25538  0.33632  1.0000
  H   H1053     1.0  0.87140  0.21589  0.32580  1.0000
  H   H1054     1.0  0.86060  0.17806  0.35255  1.0000
  C   C1330     1.0  0.80047  0.16500  0.47513  1.0000
  H   H1055     1.0  0.98469  0.23742  0.36812  1.0000
  C   C1331     1.0  0.79286  0.36297  0.02919  1.0000
  C   C1332     1.0  0.80434  0.16125  0.44962  1.0000
  C   C1333     1.0  0.68256  0.01511  0.38049  1.0000
  H   H1056     1.0  0.73323  0.44448  0.02247  1.0000
  C   C1334     1.0  0.72755  0.46044  0.11184  1.0000
  C   C1335     1.0  0.95089  0.99951  0.46574  1.0000
  H   H1057     1.0  0.67730  0.03974  0.47509  1.0000
  S   S185      1.0  0.89558  0.15989  0.46554  1.0000
  C   C1336     1.0  0.86876  0.45285  0.02510  1.0000
  C   C1337     1.0  0.88892  0.44011  0.03654  1.0000
  C   C1338     1.0  0.91311  0.34339  0.28207  1.0000
  C   C1339     1.0  0.93249  0.33893  0.29702  1.0000
  C   C1340     1.0  0.94862  0.35599  0.29466  1.0000
  C   C1341     1.0  0.94542  0.37758  0.27747  1.0000
  C   C1342     1.0  0.92594  0.38231  0.26239  1.0000
  C   C1343     1.0  0.90983  0.36495  0.26481  1.0000
  P   P44       1.0  0.92185  0.41038  0.24022  1.0000
  C   C1344     1.0  0.92464  0.43569  0.25557  1.0000
  C   C1345     1.0  0.94394  0.41039  0.21236  1.0000
  C   C1346     1.0  0.93870  0.42506  0.18908  1.0000
  C   C1347     1.0  0.95547  0.42502  0.16735  1.0000
  C   C1348     1.0  0.97771  0.41055  0.16868  1.0000
  C   C1349     1.0  0.98320  0.39611  0.19178  1.0000
  C   C1350     1.0  0.96639  0.39598  0.21354  1.0000
  C   C1351     1.0  0.92165  0.43376  0.28241  1.0000
  C   C1352     1.0  0.93072  0.47774  0.25223  1.0000
  H   H1058     1.0  0.89581  0.35574  0.45766  1.0000
  C   C1353     1.0  0.73197  0.47060  0.08614  1.0000
  C   C1354     1.0  0.92882  0.45797  0.24060  1.0000
  C   C1355     1.0  0.89232  0.41464  0.22876  1.0000
  C   C1356     1.0  0.88792  0.40133  0.21027  1.0000
  C   C1357     1.0  0.86567  0.40551  0.20006  1.0000
  C   C1358     1.0  0.84768  0.42299  0.20818  1.0000
  C   C1359     1.0  0.85182  0.43613  0.22672  1.0000
  C   C1360     1.0  0.87403  0.43200  0.23704  1.0000
  H   H1059     1.0  0.90056  0.33016  0.28399  1.0000
  H   H1060     1.0  0.93500  0.32231  0.31058  1.0000
  H   H1061     1.0  0.96355  0.35252  0.30640  1.0000
  H   H1062     1.0  0.95802  0.39069  0.27624  1.0000
  H   H1063     1.0  0.89455  0.36801  0.25368  1.0000
  H   H1064     1.0  0.92165  0.43664  0.18763  1.0000
  H   H1065     1.0  0.95120  0.43640  0.14953  1.0000
  H   H1066     1.0  0.75703  0.40518  0.01791  1.0000
  H   H1067     1.0  0.75371  0.47852  0.02950  1.0000
  H   H1068     1.0  0.97106  0.38463  0.23114  1.0000
  H   H1069     1.0  0.91788  0.41702  0.29452  1.0000
  S   S186      1.0  0.84398  0.48245  0.17638  1.0000
  H   H1070     1.0  0.84647  0.03358  0.46030  1.0000
  C   C1361     1.0  0.93318  0.20801  0.35666  1.0000
  H   H1071     1.0  0.93036  0.46031  0.21993  1.0000
  H   H1072     1.0  0.90186  0.38805  0.20340  1.0000
  H   H1073     1.0  0.86250  0.39563  0.18538  1.0000
  H   H1074     1.0  0.83074  0.42688  0.19960  1.0000
  H   H1075     1.0  0.83809  0.45022  0.23232  1.0000
  H   H1076     1.0  0.87694  0.44281  0.25094  1.0000
  C   C1362     1.0  0.96712  0.35911  0.46488  1.0000
  C   C1363     1.0  0.68456  0.46427  0.10736  1.0000
  H   H1077     1.0  0.75264  0.00780  0.37201  1.0000
  C   C1364     1.0  0.92352  0.45364  0.29397  1.0000
  H   H1078     1.0  0.88478  0.38058  0.08214  1.0000
  C   C1365     1.0  0.84633  0.38560  0.07993  1.0000
  C   C1366     1.0  0.98704  0.12934  0.48497  1.0000
  H   H1079     1.0  0.92714  0.21791  0.33886  1.0000
  H   H1080     1.0  0.89709  0.20507  0.37533  1.0000
  H   H1081     1.0  0.93764  0.02642  0.43525  1.0000
  H   H1082     1.0  0.84877  0.30545  0.45629  1.0000
  H   H1083     1.0  0.95970  0.47581  0.09730  1.0000
  H   H1084     1.0  0.75760  0.30762  0.05412  1.0000
  H   H1085     1.0  0.97076  0.20909  0.34346  1.0000
  H   H1086     1.0  0.74253  0.45470  0.12341  1.0000
  C   C1367     1.0  0.69702  0.00814  0.40083  1.0000
  Fe  Fe90      1.0  0.93094  0.15392  0.48226  1.0000
  C   C1368     1.0  0.98981  0.46087  0.19416  1.0000
  H   H1087     1.0  0.68839  0.02694  0.14071  1.0000
  C   C1369     1.0  0.91626  0.20068  0.37708  1.0000
  H   H1088     1.0  0.99079  0.41072  0.15188  1.0000
  C   C1370     1.0  0.95791  0.20331  0.35951  1.0000
  H   H1089     1.0  0.98007  0.45660  0.34910  1.0000
  C   C1371     1.0  0.00061  0.37066  0.48291  1.0000
  H   H1090     1.0  0.75034  0.47299  0.07804  1.0000
  H   H1091     1.0  0.68234  0.07110  0.43701  1.0000
  S   S187      1.0  0.84545  0.43059  0.13360  1.0000
  C   C1372     1.0  0.79130  0.41691  0.02192  1.0000
  H   H1092     1.0  0.98081  0.47502  0.15597  1.0000
  Fe  Fe91      1.0  0.80784  0.43389  0.12158  1.0000
  C   C1373     1.0  0.98487  0.45336  0.28561  1.0000
  H   H1093     1.0  0.83932  0.20648  0.47249  1.0000
  Fe  Fe92      1.0  0.85549  0.44752  0.09298  1.0000
  H   H1094     1.0  0.91091  0.18343  0.41614  1.0000
  H   H1095     1.0  0.95939  0.25923  0.40904  1.0000
  S   S188      1.0  0.95189  0.35696  0.43865  1.0000
  H   H1096     1.0  0.76984  0.37950  0.05856  1.0000
  C   C1374     1.0  0.92573  0.24456  0.42329  1.0000
  C   C1375     1.0  0.99449  0.19669  0.46101  1.0000
  Fe  Fe93      1.0  0.83565  0.46867  0.14124  1.0000
  H   H1097     1.0  0.93160  0.23651  0.44173  1.0000
  H   H1098     1.0  0.81508  0.33976  0.00496  1.0000
  H   H1099     1.0  0.95441  0.17388  0.42121  1.0000
  C   C1376     1.0  0.98754  0.42350  0.33320  1.0000
  H   H1100     1.0  0.98358  0.46467  0.26728  1.0000
  H   H1101     1.0  0.82214  0.43500  0.02486  1.0000
  C   C1377     1.0  0.99129  0.41331  0.31074  1.0000
  S   S189      1.0  0.96348  0.13169  0.46555  1.0000
  C   C1378     1.0  0.87050  0.38117  0.07005  1.0000
  H   H1102     1.0  0.84840  0.30796  0.40970  1.0000
  C   C1379     1.0  0.92407  0.18844  0.40021  1.0000
  C   C1380     1.0  0.83361  0.18998  0.44072  1.0000
  H   H1103     1.0  0.66882  0.99008  0.15722  1.0000
  H   H1104     1.0  0.86106  0.12497  0.46580  1.0000
  C   C1381     1.0  0.98915  0.19810  0.43585  1.0000
  H   H1105     1.0  0.90982  0.13261  0.41744  1.0000
  C   C1382     1.0  0.85785  0.38000  0.02851  1.0000
  C   C1383     1.0  0.76619  0.41993  0.02080  1.0000
  S   S190      1.0  0.73208  0.06366  0.45785  1.0000
  C   C1384     1.0  0.79989  0.34128  0.01949  1.0000
  C   C1385     1.0  0.76778  0.32282  0.04753  1.0000
  H   H1106     1.0  0.89503  0.37539  0.03668  1.0000
  H   H1107     1.0  0.97199  0.46672  0.20294  1.0000
  P   P45       1.0  0.80940  0.38864  0.01807  1.0000
  C   C1386     1.0  0.80272  0.43672  0.02454  1.0000
  H   H1108     1.0  0.98869  0.41200  0.35159  1.0000
  H   H1109     1.0  0.82408  0.00267  0.40065  1.0000
  C   C1387     1.0  0.93280  0.01358  0.45208  1.0000
  Fe  Fe94      1.0  0.71273  0.37579  0.99082  1.0000
  C   C1388     1.0  0.71271  0.47813  0.07120  1.0000
  C   C1389     1.0  0.83281  0.00045  0.41806  1.0000
  H   H1110     1.0  0.98428  0.48143  0.38990  1.0000
  C   C1390     1.0  0.92801  0.47564  0.27889  1.0000
  H   H1111     1.0  0.68225  0.41308  0.12419  1.0000
  C   C1391     1.0  0.90889  0.43476  0.99442  1.0000
  Fe  Fe95      1.0  0.99473  0.35680  0.34889  1.0000
  C   C1392     1.0  0.98978  0.36754  0.46148  1.0000
  S   S191      1.0  0.84873  0.48518  0.10154  1.0000
  H   H1112     1.0  0.91311  0.26347  0.47245  1.0000
  C   C1393     1.0  0.92929  0.08013  0.46749  1.0000
  C   C1394     1.0  0.89191  0.35751  0.47769  1.0000
  C   C1395     1.0  0.92850  0.48130  0.07631  1.0000
  H   H1113     1.0  0.85308  0.46629  0.98950  1.0000
  H   H1114     1.0  0.96356  0.05875  0.46059  1.0000
  H   H1115     1.0  0.71592  0.48690  0.05162  1.0000
  C   C1396     1.0  0.95050  0.06604  0.47486  1.0000
  C   C1397     1.0  0.99481  0.46557  0.16759  1.0000
  H   H1116     1.0  0.95106  0.23872  0.48416  1.0000
  H   H1117     1.0  0.89843  0.39470  0.47038  1.0000
  H   H1118     1.0  0.79203  0.30503  0.02012  1.0000
  C   C1398     1.0  0.75450  0.98824  0.37569  1.0000
  C   C1399     1.0  0.91258  0.08976  0.48585  1.0000
  H   H1119     1.0  0.99862  0.37225  0.44237  1.0000
  C   C1400     1.0  0.67031  0.41333  0.14178  1.0000
  S   S192      1.0  0.93182  0.19280  0.48455  1.0000
  C   C1401     1.0  0.89345  0.37977  0.48487  1.0000
  S   S193      1.0  0.72494  0.00752  0.48456  1.0000
  Fe  Fe96      1.0  0.67080  0.34666  0.01416  1.0000
  Fe  Fe97      1.0  0.81098  0.48418  0.09235  1.0000
  H   H1120     1.0  0.99613  0.48329  0.43276  1.0000
  C   C1402     1.0  0.89189  0.48768  0.15879  1.0000
  C   C1403     1.0  0.90197  0.99415  0.48155  1.0000
  S   S194      1.0  0.76641  0.03606  0.50158  1.0000
  H   H1121     1.0  0.85435  0.42742  0.93971  1.0000
  H   H1122     1.0  0.83121  0.06676  0.54854  1.0000
  H   H1123     1.0  0.96692  0.10599  0.56368  1.0000
  H   H1124     1.0  0.70766  0.45187  0.95609  1.0000
  H   H1125     1.0  0.92460  0.31339  0.52115  1.0000
  C   C1404     1.0  0.92208  0.46191  0.67796  1.0000
  Fe  Fe98      1.0  0.72660  0.04277  0.49753  1.0000
  Fe  Fe99      1.0  0.96570  0.34394  0.62606  1.0000
  H   H1126     1.0  0.87529  0.06003  0.53643  1.0000
  H   H1127     1.0  0.72359  0.02292  0.59240  1.0000
  C   C1405     1.0  0.91720  0.08571  0.51148  1.0000
  S   S195      1.0  0.78865  0.45896  0.88787  1.0000
  C   C1406     1.0  0.93000  0.29746  0.51240  1.0000
  H   H1128     1.0  0.89263  0.02769  0.51178  1.0000
  H   H1129     1.0  0.97797  0.25197  0.64571  1.0000
  H   H1130     1.0  0.96252  0.28928  0.53112  1.0000
  S   S196      1.0  0.85382  0.47094  0.89081  1.0000
  H   H1131     1.0  0.97660  0.19094  0.52227  1.0000
  C   C1407     1.0  0.98951  0.19543  0.53364  1.0000
  C   C1408     1.0  0.98657  0.41264  0.68901  1.0000
  S   S197      1.0  0.91333  0.30203  0.58046  1.0000
  C   C1409     1.0  0.85808  0.01548  0.50962  1.0000
  S   S198      1.0  0.94846  0.35457  0.58914  1.0000
  Fe  Fe100     1.0  0.87853  0.15366  0.50593  1.0000
  C   C1410     1.0  0.98917  0.36455  0.50771  1.0000
  S   S199      1.0  0.84896  0.12948  0.51998  1.0000
  Fe  Fe101     1.0  0.91227  0.18425  0.52383  1.0000
  C   C1411     1.0  0.83298  0.01983  0.51605  1.0000
  S   S200      1.0  0.92679  0.19457  0.55754  1.0000
  C   C1412     1.0  0.94779  0.23354  0.64209  1.0000
  H   H1132     1.0  0.68600  0.40037  0.91638  1.0000
  H   H1133     1.0  0.90389  0.09346  0.52519  1.0000
  H   H1134     1.0  0.93163  0.02395  0.53299  1.0000
  S   S201      1.0  0.87501  0.19270  0.51094  1.0000
  S   S202      1.0  0.91410  0.14468  0.52243  1.0000
  C   C1413     1.0  0.91739  0.27246  0.57318  1.0000
  C   C1414     1.0  0.93887  0.25732  0.57743  1.0000
  C   C1415     1.0  0.94186  0.23382  0.57162  1.0000
  C   C1416     1.0  0.92349  0.22518  0.56153  1.0000
  C   C1417     1.0  0.90215  0.24044  0.55682  1.0000
  C   C1418     1.0  0.89905  0.26400  0.56276  1.0000
  H   H1135     1.0  0.95316  0.26364  0.58535  1.0000
  H   H1136     1.0  0.95849  0.22236  0.57511  1.0000
  H   H1137     1.0  0.88776  0.23381  0.54941  1.0000
  H   H1138     1.0  0.88241  0.27566  0.55938  1.0000
  Fe  Fe102     1.0  0.85959  0.47608  0.93027  1.0000
  C   C1419     1.0  0.68157  0.43732  0.89726  1.0000
  C   C1420     1.0  0.90675  0.01830  0.60477  1.0000
  H   H1139     1.0  0.98277  0.08154  0.62241  1.0000
  C   C1421     1.0  0.68808  0.41892  0.91717  1.0000
  H   H1140     1.0  0.97032  0.38010  0.70469  1.0000
  H   H1141     1.0  0.97553  0.25162  0.51401  1.0000
  H   H1142     1.0  0.95790  0.35074  0.53007  1.0000
  H   H1143     1.0  0.87920  0.12092  0.59154  1.0000
  C   C1422     1.0  0.84212  0.41426  0.94756  1.0000
  C   C1423     1.0  0.95801  0.19635  0.62454  1.0000
  C   C1424     1.0  0.88990  0.38235  0.51072  1.0000
  C   C1425     1.0  0.70027  0.44818  0.93958  1.0000
  H   H1144     1.0  0.92220  0.05079  0.60502  1.0000
  S   S203      1.0  0.95420  0.45940  0.78750  1.0000
  C   C1426     1.0  0.98241  0.13718  0.50874  1.0000
  C   C1427     1.0  0.83169  0.40318  0.93106  1.0000
  C   C1428     1.0  0.83613  0.40907  0.97401  1.0000
  H   H1145     1.0  0.96448  0.14484  0.51517  1.0000
  S   S204      1.0  0.96062  0.30476  0.62969  1.0000
  C   C1429     1.0  0.97570  0.39207  0.68740  1.0000
  C   C1430     1.0  0.81532  0.38666  0.94097  1.0000
  C   C1431     1.0  0.98958  0.18495  0.55936  1.0000
  C   C1432     1.0  0.92213  0.47068  0.82772  1.0000
  H   H1146     1.0  0.92123  0.46732  0.65753  1.0000
  C   C1433     1.0  0.91409  0.13330  0.58921  1.0000
  C   C1434     1.0  0.69379  0.46672  0.91970  1.0000
  H   H1147     1.0  0.92697  0.45221  0.83648  1.0000
  C   C1435     1.0  0.98276  0.19869  0.62318  1.0000
  C   C1436     1.0  0.68447  0.46118  0.89847  1.0000
  H   H1148     1.0  0.97148  0.05052  0.50587  1.0000
  C   C1437     1.0  0.86215  0.29376  0.50503  1.0000
  C   C1438     1.0  0.90754  0.09646  0.57536  1.0000
  H   H1149     1.0  0.89615  0.47889  0.85921  1.0000
  H   H1150     1.0  0.95067  0.14189  0.58304  1.0000
  C   C1439     1.0  0.75351  0.39922  0.94250  1.0000
  C   C1440     1.0  0.76043  0.41826  0.95236  1.0000
  C   C1441     1.0  0.77104  0.43704  0.93583  1.0000
  C   C1442     1.0  0.77381  0.43717  0.90935  1.0000
  C   C1443     1.0  0.76513  0.41914  0.89946  1.0000
  C   C1444     1.0  0.75550  0.39994  0.91599  1.0000
  H   H1151     1.0  0.87906  0.25712  0.50374  1.0000
  H   H1152     1.0  0.77741  0.45107  0.94363  1.0000
  H   H1153     1.0  0.76676  0.41950  0.87897  1.0000
  H   H1154     1.0  0.74998  0.38539  0.90829  1.0000
  H   H1155     1.0  0.67442  0.43302  0.88092  1.0000
  C   C1445     1.0  0.98974  0.21902  0.63065  1.0000
  C   C1446     1.0  0.81494  0.10429  0.50768  1.0000
  C   C1447     1.0  0.83572  0.11573  0.49868  1.0000
  C   C1448     1.0  0.97235  0.23618  0.64037  1.0000
  H   H1156     1.0  0.83582  0.40806  0.91061  1.0000
  S   S205      1.0  0.67780  0.37130  0.97723  1.0000
  H   H1157     1.0  0.80699  0.10457  0.52721  1.0000
  C   C1449     1.0  0.86659  0.47726  0.79931  1.0000
  H   H1158     1.0  0.78818  0.15475  0.48868  1.0000
  C   C1450     1.0  0.93237  0.09191  0.56734  1.0000
  C   C1451     1.0  0.82339  0.03811  0.53027  1.0000
  Fe  Fe103     1.0  0.94663  0.31482  0.59112  1.0000
  H   H1159     1.0  0.89191  0.39937  0.51630  1.0000
  H   H1160     1.0  0.75890  0.41780  0.97273  1.0000
  C   C1452     1.0  0.81584  0.36155  0.82351  1.0000
  C   C1453     1.0  0.79965  0.36247  0.84557  1.0000
  C   C1454     1.0  0.80300  0.37696  0.86315  1.0000
  C   C1455     1.0  0.82237  0.39071  0.85861  1.0000
  C   C1456     1.0  0.83897  0.38972  0.83664  1.0000
  C   C1457     1.0  0.83547  0.37501  0.81908  1.0000
  P   P46       1.0  0.86495  0.40638  0.83200  1.0000
  C   C1458     1.0  0.88738  0.39530  0.80798  1.0000
  C   C1459     1.0  0.85633  0.43832  0.82211  1.0000
  C   C1460     1.0  0.87229  0.45226  0.80525  1.0000
  S   S206      1.0  0.74600  0.37269  0.96270  1.0000
  C   C1461     1.0  0.84308  0.25762  0.52258  1.0000
  C   C1462     1.0  0.68134  0.03996  0.54848  1.0000
  C   C1463     1.0  0.83480  0.44995  0.83312  1.0000
  C   C1464     1.0  0.90935  0.38200  0.81470  1.0000
  C   C1465     1.0  0.92638  0.37341  0.79586  1.0000
  C   C1466     1.0  0.92155  0.37787  0.77025  1.0000
  C   C1467     1.0  0.89979  0.39119  0.76341  1.0000
  C   C1468     1.0  0.88290  0.40013  0.78211  1.0000
  C   C1469     1.0  0.87759  0.40223  0.86225  1.0000
  C   C1470     1.0  0.87738  0.38016  0.87902  1.0000
  C   C1471     1.0  0.88633  0.37739  0.90285  1.0000
  C   C1472     1.0  0.89571  0.39653  0.90998  1.0000
  C   C1473     1.0  0.89643  0.41832  0.89316  1.0000
  C   C1474     1.0  0.88748  0.42114  0.86937  1.0000
  H   H1161     1.0  0.81328  0.35023  0.80990  1.0000
  H   H1162     1.0  0.78454  0.35191  0.84912  1.0000
  H   H1163     1.0  0.79059  0.37747  0.88039  1.0000
  H   H1164     1.0  0.82447  0.40193  0.87243  1.0000
  H   H1165     1.0  0.84788  0.37349  0.80209  1.0000
  H   H1166     1.0  0.88962  0.44412  0.79740  1.0000
  C   C1475     1.0  0.80903  0.38160  0.96742  1.0000
  H   H1167     1.0  0.67947  0.47533  0.88293  1.0000
  H   H1168     1.0  0.78818  0.08395  0.49872  1.0000
  H   H1169     1.0  0.82244  0.43998  0.84672  1.0000
  H   H1170     1.0  0.91352  0.37832  0.83438  1.0000
  H   H1171     1.0  0.94338  0.36330  0.80109  1.0000
  H   H1172     1.0  0.93472  0.37107  0.75570  1.0000
  H   H1173     1.0  0.89602  0.39464  0.74356  1.0000
  H   H1174     1.0  0.86621  0.41064  0.77648  1.0000
  H   H1175     1.0  0.87005  0.36522  0.87383  1.0000
  H   H1176     1.0  0.88566  0.36054  0.91598  1.0000
  H   H1177     1.0  0.90212  0.39469  0.92868  1.0000
  H   H1178     1.0  0.90345  0.43326  0.89882  1.0000
  H   H1179     1.0  0.88789  0.43826  0.85680  1.0000
  C   C1476     1.0  0.94375  0.47397  0.89591  1.0000
  H   H1180     1.0  0.97647  0.17274  0.56755  1.0000
  P   P47       1.0  0.88759  0.30806  0.48784  1.0000
  S   S207      1.0  0.95768  0.36134  0.66205  1.0000
  C   C1477     1.0  0.96530  0.47893  0.88091  1.0000
  C   C1478     1.0  0.91934  0.03774  0.59343  1.0000
  H   H1181     1.0  0.97449  0.15007  0.64833  1.0000
  H   H1182     1.0  0.90700  0.14976  0.59674  1.0000
  H   H1183     1.0  0.99714  0.14068  0.54297  1.0000
  C   C1479     1.0  0.91206  0.00328  0.56441  1.0000
  C   C1480     1.0  0.92468  0.02269  0.55300  1.0000
  C   C1481     1.0  0.72377  0.00530  0.58708  1.0000
  H   H1184     1.0  0.99876  0.43562  0.80911  1.0000
  Fe  Fe104     1.0  0.81429  0.47878  0.90313  1.0000
  C   C1482     1.0  0.68010  0.01642  0.54475  1.0000
  C   C1483     1.0  0.69748  0.42442  0.93817  1.0000
  H   H1185     1.0  0.66906  0.06655  0.57301  1.0000
  H   H1186     1.0  0.97792  0.46957  0.82967  1.0000
  C   C1484     1.0  0.88684  0.33762  0.49640  1.0000
  H   H1187     1.0  0.94204  0.45614  0.90677  1.0000
  Fe  Fe105     1.0  0.98601  0.34626  0.57008  1.0000
  S   S208      1.0  0.69976  0.05893  0.52711  1.0000
  S   S209      1.0  0.89002  0.45207  0.94925  1.0000
  C   C1485     1.0  0.82071  0.29693  0.52527  1.0000
  H   H1188     1.0  0.81066  0.18349  0.50339  1.0000
  S   S210      1.0  0.98304  0.30743  0.56930  1.0000
  C   C1486     1.0  0.86302  0.26852  0.50973  1.0000
  C   C1487     1.0  0.73354  0.00113  0.56263  1.0000
  C   C1488     1.0  0.91881  0.47924  0.69433  1.0000
  H   H1189     1.0  0.98726  0.08519  0.52435  1.0000
  H   H1190     1.0  0.96471  0.10822  0.65397  1.0000
  C   C1489     1.0  0.97667  0.11501  0.63752  1.0000
  H   H1191     1.0  0.97111  0.03052  0.58932  1.0000
  H   H1192     1.0  0.82084  0.00903  0.51012  1.0000
  H   H1193     1.0  0.89501  0.08448  0.57261  1.0000
  H   H1194     1.0  0.95202  0.18199  0.61686  1.0000
  H   H1195     1.0  0.92757  0.44153  0.75059  1.0000
  H   H1196     1.0  0.80401  0.04149  0.53513  1.0000
  H   H1197     1.0  0.84408  0.23813  0.52652  1.0000
  Fe  Fe106     1.0  0.98178  0.47550  0.75709  1.0000
  C   C1490     1.0  0.94789  0.10841  0.57036  1.0000
  C   C1491     1.0  0.93877  0.12890  0.58138  1.0000
  C   C1492     1.0  0.99714  0.14787  0.61259  1.0000
  C   C1493     1.0  0.88283  0.34050  0.52231  1.0000
  C   C1494     1.0  0.88452  0.36273  0.52942  1.0000
  C   C1495     1.0  0.91563  0.29026  0.49605  1.0000
  H   H1198     1.0  0.79496  0.37017  0.97443  1.0000
  H   H1199     1.0  0.80644  0.37871  0.92818  1.0000
  H   H1200     1.0  0.80432  0.30793  0.53125  1.0000
  C   C1496     1.0  0.94520  0.25515  0.49193  1.0000
  C   C1497     1.0  0.94062  0.21364  0.63415  1.0000
  H   H1201     1.0  0.73513  0.47597  0.88585  1.0000
  H   H1202     1.0  0.98957  0.41648  0.70745  1.0000
  C   C1498     1.0  0.98689  0.09995  0.61982  1.0000
  H   H1203     1.0  0.89982  0.01657  0.62485  1.0000
  C   C1499     1.0  0.97903  0.40229  0.64121  1.0000
  C   C1500     1.0  0.83870  0.05236  0.53785  1.0000
  H   H1204     1.0  0.97613  0.39850  0.62271  1.0000
  C   C1501     1.0  0.98385  0.04039  0.57606  1.0000
  C   C1502     1.0  0.93343  0.47937  0.80360  1.0000
  C   C1503     1.0  0.89847  0.11708  0.58622  1.0000
  H   H1205     1.0  0.93431  0.24741  0.64864  1.0000
  H   H1206     1.0  0.87966  0.32520  0.53716  1.0000
  H   H1207     1.0  0.88247  0.36443  0.54954  1.0000
  Fe  Fe107     1.0  0.99737  0.30058  0.60755  1.0000
  C   C1504     1.0  0.96688  0.35550  0.51103  1.0000
  H   H1208     1.0  0.90919  0.98993  0.55320  1.0000
  C   C1505     1.0  0.99751  0.46672  0.82753  1.0000
  C   C1506     1.0  0.98204  0.13882  0.63413  1.0000
  C   C1507     1.0  0.92728  0.43746  0.68770  1.0000
  C   C1508     1.0  0.92932  0.43015  0.71382  1.0000
  C   C1509     1.0  0.80427  0.09255  0.49158  1.0000
  C   C1510     1.0  0.98952  0.42298  0.64289  1.0000
  C   C1511     1.0  0.97189  0.38686  0.66348  1.0000
  C   C1512     1.0  0.92557  0.44718  0.73037  1.0000
  H   H1209     1.0  0.93050  0.42421  0.67485  1.0000
  H   H1210     1.0  0.93437  0.41131  0.72107  1.0000
  C   C1513     1.0  0.84062  0.30789  0.51240  1.0000
  H   H1211     1.0  0.98033  0.46474  0.88051  1.0000
  H   H1212     1.0  0.69061  0.00970  0.52861  1.0000
  C   C1514     1.0  0.88889  0.44764  0.98289  1.0000
  H   H1213     1.0  0.67366  0.00156  0.75357  1.0000
  C   C1515     1.0  0.86361  0.04852  0.53105  1.0000
  C   C1516     1.0  0.95908  0.26237  0.50854  1.0000
  C   C1517     1.0  0.93875  0.07209  0.51900  1.0000
  H   H1214     1.0  0.92154  0.21227  0.63422  1.0000
  P   P48       1.0  0.94391  0.06564  0.55247  1.0000
  C   C1518     1.0  0.92809  0.04028  0.56734  1.0000
  C   C1519     1.0  0.97587  0.05829  0.55612  1.0000
  H   H1215     1.0  0.74105  0.01551  0.54922  1.0000
  C   C1520     1.0  0.99349  0.42819  0.66668  1.0000
  C   C1521     1.0  0.99297  0.07096  0.53955  1.0000
  C   C1522     1.0  0.82199  0.27179  0.53048  1.0000
  H   H1216     1.0  0.80664  0.26327  0.54059  1.0000
  C   C1523     1.0  0.87332  0.03014  0.51701  1.0000
  C   C1524     1.0  0.92014  0.47166  0.72073  1.0000
  H   H1217     1.0  0.70299  0.41020  0.95330  1.0000
  S   S211      1.0  0.82002  0.47971  0.94387  1.0000
  C   C1525     1.0  0.82944  0.47502  0.82755  1.0000
  C   C1526     1.0  0.90300  0.00115  0.59024  1.0000
  H   H1218     1.0  0.81326  0.48390  0.83699  1.0000
  C   C1527     1.0  0.95511  0.06176  0.50055  1.0000
  C   C1528     1.0  0.95173  0.28370  0.51830  1.0000
  H   H1219     1.0  0.92452  0.42778  0.98266  1.0000
  H   H1220     1.0  0.83920  0.32739  0.50827  1.0000
  H   H1221     1.0  0.67453  0.02200  0.70833  1.0000
  H   H1222     1.0  0.99429  0.43518  0.62564  1.0000
  C   C1529     1.0  0.00103  0.13512  0.52444  1.0000
  H   H1223     1.0  0.93833  0.34674  0.49232  1.0000
  P   P49       1.0  0.87039  0.99126  0.49201  1.0000
  H   H1224     1.0  0.91790  0.48456  0.73386  1.0000
  H   H1225     1.0  0.95970  0.48667  0.65982  1.0000
  H   H1226     1.0  0.87113  0.48496  0.68218  1.0000
  C   C1530     1.0  0.95576  0.35320  0.48965  1.0000
  H   H1227     1.0  0.70591  0.99027  0.62327  1.0000
  H   H1228     1.0  0.90754  0.48806  0.90846  1.0000
  C   C1531     1.0  0.90455  0.48572  0.84059  1.0000
  H   H1229     1.0  0.87925  0.48793  0.78681  1.0000
  C   C1532     1.0  0.81962  0.39252  0.98423  1.0000
  H   H1230     1.0  0.84388  0.41852  0.98636  1.0000
  Fe  Fe108     1.0  0.97873  0.51714  0.26641  1.0000
  S   S212      1.0  0.94683  0.54093  0.25035  1.0000
  C   C1533     1.0  0.96318  0.75606  0.27611  1.0000
  S   S213      1.0  0.98519  0.56077  0.20172  1.0000
  Fe  Fe109     1.0  0.97220  0.56957  0.24114  1.0000
  S   S214      1.0  0.96151  0.60681  0.25216  1.0000
  Fe  Fe110     1.0  0.96263  0.52976  0.21249  1.0000
  S   S215      1.0  0.94672  0.51636  0.18096  1.0000
  C   C1534     1.0  0.89937  0.50906  0.20040  1.0000
  C   C1535     1.0  0.76573  0.65416  0.04554  1.0000
  C   C1536     1.0  0.88692  0.69799  0.42495  1.0000
  C   C1537     1.0  0.94525  0.48873  0.08965  1.0000
  H   H1231     1.0  0.92192  0.70630  0.43028  1.0000
  C   C1538     1.0  0.97003  0.88439  0.48351  1.0000
  C   C1539     1.0  0.94734  0.66023  0.47771  1.0000
  S   S216      1.0  0.94783  0.71348  0.37918  1.0000
  H   H1232     1.0  0.97015  0.79286  0.31396  1.0000
  C   C1540     1.0  0.90405  0.61937  0.02991  1.0000
  S   S217      1.0  0.90502  0.86959  0.44199  1.0000
  C   C1541     1.0  0.99024  0.49979  0.42032  1.0000
  S   S218      1.0  0.67087  0.59763  0.02827  1.0000
  H   H1233     1.0  0.84036  0.96181  0.42107  1.0000
  H   H1234     1.0  0.76953  0.64205  0.08592  1.0000
  Fe  Fe111     1.0  0.91376  0.82980  0.44179  1.0000
  S   S219      1.0  0.93548  0.81916  0.40611  1.0000
  S   S220      1.0  0.87638  0.82170  0.45798  1.0000
  C   C1542     1.0  0.67593  0.97353  0.38133  1.0000
  C   C1543     1.0  0.87688  0.50121  0.19904  1.0000
  S   S221      1.0  0.79362  0.51354  0.06390  1.0000
  H   H1235     1.0  0.71074  0.50836  0.00785  1.0000
  Fe  Fe112     1.0  0.91754  0.86141  0.48113  1.0000
  C   C1544     1.0  0.94397  0.56483  0.34674  1.0000
  C   C1545     1.0  0.82577  0.58184  0.00373  1.0000
  H   H1236     1.0  0.98276  0.56062  0.41802  1.0000
  C   C1546     1.0  0.98247  0.82861  0.35449  1.0000
  C   C1547     1.0  0.74265  0.62359  0.99194  1.0000
  C   C1548     1.0  0.82324  0.90903  0.46344  1.0000
  C   C1549     1.0  0.71283  0.53614  0.08011  1.0000
  C   C1550     1.0  0.72648  0.52614  0.10052  1.0000
  C   C1551     1.0  0.75145  0.51925  0.09583  1.0000
  C   C1552     1.0  0.76261  0.52210  0.07070  1.0000
  C   C1553     1.0  0.74892  0.53205  0.05041  1.0000
  C   C1554     1.0  0.72409  0.53922  0.05506  1.0000
  C   C1555     1.0  0.71923  0.50541  0.98911  1.0000
  H   H1237     1.0  0.76197  0.51162  0.11158  1.0000
  H   H1238     1.0  0.75753  0.53393  0.03103  1.0000
  H   H1239     1.0  0.71365  0.54693  0.03925  1.0000
  C   C1556     1.0  0.94424  0.74252  0.38766  1.0000
  C   C1557     1.0  0.96426  0.75508  0.38575  1.0000
  C   C1558     1.0  0.96135  0.77827  0.39225  1.0000
  C   C1559     1.0  0.93850  0.78913  0.40070  1.0000
  C   C1560     1.0  0.91841  0.77654  0.40290  1.0000
  C   C1561     1.0  0.92126  0.75333  0.39616  1.0000
  H   H1240     1.0  0.98201  0.74713  0.37898  1.0000
  H   H1241     1.0  0.97691  0.78778  0.39091  1.0000
  H   H1242     1.0  0.90066  0.78492  0.40922  1.0000
  H   H1243     1.0  0.90564  0.74388  0.39741  1.0000
  H   H1244     1.0  0.68223  0.66432  0.00463  1.0000
  H   H1245     1.0  0.69280  0.58990  0.09817  1.0000
  H   H1246     1.0  0.88867  0.70515  0.40466  1.0000
  H   H1247     1.0  0.89756  0.53153  0.34794  1.0000
  C   C1562     1.0  0.77607  0.67884  0.07461  1.0000
  C   C1563     1.0  0.77722  0.69836  0.05464  1.0000
  P   P50       1.0  0.00133  0.73064  0.24896  1.0000
  H   H1248     1.0  0.85505  0.59139  0.05643  1.0000
  C   C1564     1.0  0.99340  0.79108  0.17939  1.0000
  P   P51       1.0  0.75860  0.62582  0.03911  1.0000
  C   C1565     1.0  0.90956  0.49780  0.06677  1.0000
  H   H1249     1.0  0.98133  0.69315  0.47405  1.0000
  H   H1250     1.0  0.84975  0.53446  0.15068  1.0000
  C   C1566     1.0  0.84190  0.97746  0.42958  1.0000
  H   H1251     1.0  0.95075  0.70018  0.32719  1.0000
  C   C1567     1.0  0.99003  0.64333  0.29821  1.0000
  C   C1568     1.0  0.94305  0.51270  0.09354  1.0000
  H   H1252     1.0  0.97312  0.84218  0.36537  1.0000
  C   C1569     1.0  0.77265  0.69588  0.03013  1.0000
  C   C1570     1.0  0.98218  0.61780  0.26840  1.0000
  H   H1253     1.0  0.90004  0.54929  0.00428  1.0000
  H   H1254     1.0  0.67393  0.50341  0.13023  1.0000
  C   C1571     1.0  0.97368  0.63346  0.28617  1.0000
  C   C1572     1.0  0.69930  0.65331  0.00095  1.0000
  H   H1255     1.0  0.95440  0.63784  0.29072  1.0000
  C   C1573     1.0  0.91825  0.50618  0.18096  1.0000
  C   C1574     1.0  0.76133  0.59648  0.08674  1.0000
  H   H1256     1.0  0.85921  0.95643  0.46095  1.0000
  H   H1257     1.0  0.98335  0.65491  0.31229  1.0000
  H   H1258     1.0  0.97148  0.51872  0.36118  1.0000
  H   H1259     1.0  0.95606  0.59032  0.31399  1.0000
  C   C1575     1.0  0.97214  0.71350  0.29246  1.0000
  H   H1260     1.0  0.91344  0.73945  0.46967  1.0000
  H   H1261     1.0  0.74750  0.98499  0.33776  1.0000
  C   C1576     1.0  0.84537  0.53913  0.13105  1.0000
  C   C1577     1.0  0.84564  0.51233  0.01384  1.0000
  H   H1262     1.0  0.98333  0.63685  0.42936  1.0000
  H   H1263     1.0  0.96040  0.75209  0.22062  1.0000
  C   C1578     1.0  0.92134  0.59918  0.02885  1.0000
  C   C1579     1.0  0.85720  0.51887  0.98941  1.0000
  H   H1264     1.0  0.98058  0.76913  0.44791  1.0000
  H   H1265     1.0  0.96039  0.67503  0.43886  1.0000
  C   C1580     1.0  0.92412  0.52926  0.08404  1.0000
  C   C1581     1.0  0.71598  0.64821  0.01916  1.0000
  C   C1582     1.0  0.90392  0.68929  0.46574  1.0000
  C   C1583     1.0  0.95389  0.71566  0.31260  1.0000
  H   H1266     1.0  0.79688  0.55167  0.09655  1.0000
  C   C1584     1.0  0.98042  0.67104  0.22806  1.0000
  H   H1267     1.0  0.89769  0.55308  0.30318  1.0000
  H   H1268     1.0  0.83035  0.50209  0.01641  1.0000
  H   H1269     1.0  0.71985  0.56981  0.13083  1.0000
  C   C1585     1.0  0.75924  0.97591  0.39994  1.0000
  C   C1586     1.0  0.98226  0.54343  0.41202  1.0000
  C   C1587     1.0  0.79754  0.94747  0.46356  1.0000
  H   H1270     1.0  0.92229  0.54759  0.08788  1.0000
  C   C1588     1.0  0.86391  0.53952  0.11087  1.0000
  C   C1589     1.0  0.78589  0.60860  0.02714  1.0000
  C   C1590     1.0  0.97234  0.86975  0.42192  1.0000
  H   H1271     1.0  0.78165  0.71542  0.05814  1.0000
  C   C1591     1.0  0.96947  0.81933  0.33852  1.0000
  H   H1272     1.0  0.89276  0.94229  0.48592  1.0000
  H   H1273     1.0  0.91856  0.60600  0.43864  1.0000
  C   C1592     1.0  0.97107  0.71067  0.46925  1.0000
  C   C1593     1.0  0.98021  0.69231  0.23796  1.0000
  S   S222      1.0  0.68174  0.54480  0.08607  1.0000
  C   C1594     1.0  0.98357  0.73063  0.46050  1.0000
  C   C1595     1.0  0.97910  0.89292  0.41443  1.0000
  H   H1274     1.0  0.96414  0.66223  0.23034  1.0000
  C   C1596     1.0  0.85370  0.51895  0.03501  1.0000
  C   C1597     1.0  0.87278  0.53309  0.03189  1.0000
  H   H1275     1.0  0.76119  0.98594  0.41487  1.0000
  H   H1276     1.0  0.68747  0.90888  0.34638  1.0000
  C   C1598     1.0  0.87367  0.59332  0.04907  1.0000
  C   C1599     1.0  0.73752  0.63279  0.01509  1.0000
  C   C1600     1.0  0.75187  0.58294  0.10940  1.0000
  C   C1601     1.0  0.94343  0.57744  0.32167  1.0000
  C   C1602     1.0  0.88021  0.61643  0.03994  1.0000
  H   H1277     1.0  0.96700  0.77203  0.26263  1.0000
  H   H1278     1.0  0.95046  0.82578  0.33746  1.0000
  S   S223      1.0  0.99894  0.66032  0.37138  1.0000
  H   H1279     1.0  0.93440  0.49468  0.24047  1.0000
  H   H1280     1.0  0.92983  0.49092  0.28789  1.0000
  H   H1281     1.0  0.92835  0.56056  0.03646  1.0000
  C   C1603     1.0  0.91028  0.54444  0.34066  1.0000
  C   C1604     1.0  0.78669  0.58355  0.02883  1.0000
  C   C1605     1.0  0.72713  0.58089  0.11368  1.0000
  H   H1282     1.0  0.71773  0.52361  0.11990  1.0000
  H   H1283     1.0  0.90911  0.63728  0.02284  1.0000
  C   C1606     1.0  0.89100  0.57296  0.04837  1.0000
  P   P52       1.0  0.88224  0.54311  0.05911  1.0000
  C   C1607     1.0  0.94033  0.73798  0.31460  1.0000
  C   C1608     1.0  0.97459  0.54244  0.38820  1.0000
  H   H1284     1.0  0.93457  0.77549  0.29823  1.0000
  C   C1609     1.0  0.92686  0.54875  0.35636  1.0000
  C   C1610     1.0  0.74603  0.60828  0.06827  1.0000
  H   H1285     1.0  0.94398  0.65612  0.37407  1.0000
  H   H1286     1.0  0.85151  0.68741  0.42513  1.0000
  C   C1611     1.0  0.82120  0.54347  0.12597  1.0000
  H   H1287     1.0  0.95567  0.51833  0.10449  1.0000
  H   H1288     1.0  0.99560  0.52298  0.44655  1.0000
  C   C1612     1.0  0.92833  0.60942  0.41976  1.0000
  C   C1613     1.0  0.72124  0.60568  0.07257  1.0000
  H   H1289     1.0  0.69328  0.94769  0.41018  1.0000
  C   C1614     1.0  0.71186  0.59226  0.09528  1.0000
  H   H1290     1.0  0.96275  0.62224  0.35190  1.0000
  H   H1291     1.0  0.93978  0.60142  0.02087  1.0000
  C   C1615     1.0  0.75443  0.88676  0.47113  1.0000
  C   C1616     1.0  0.86428  0.67816  0.46252  1.0000
  C   C1617     1.0  0.97090  0.75361  0.45480  1.0000
  H   H1292     1.0  0.80649  0.92909  0.43077  1.0000
  H   H1293     1.0  0.90191  0.51771  0.21623  1.0000
  H   H1294     1.0  0.78659  0.96256  0.45361  1.0000
  C   C1618     1.0  0.72307  0.94470  0.48389  1.0000
  C   C1619     1.0  0.98347  0.86167  0.48276  1.0000
  C   C1620     1.0  0.69953  0.94240  0.47961  1.0000
  C   C1621     1.0  0.92668  0.57325  0.30612  1.0000
  H   H1295     1.0  0.80692  0.54184  0.14165  1.0000
  C   C1622     1.0  0.91484  0.57604  0.03791  1.0000
  H   H1296     1.0  0.96339  0.70002  0.24726  1.0000
  C   C1623     1.0  0.81556  0.54916  0.10068  1.0000
  H   H1297     1.0  0.99213  0.55448  0.32011  1.0000
  C   C1624     1.0  0.77035  0.65682  0.07012  1.0000
  C   C1625     1.0  0.88476  0.53911  0.00725  1.0000
  Fe  Fe113     1.0  0.98738  0.69985  0.37146  1.0000
  C   C1626     1.0  0.83404  0.55017  0.08047  1.0000
  C   C1627     1.0  0.98151  0.90520  0.47589  1.0000
  C   C1628     1.0  0.93303  0.73673  0.46695  1.0000
  C   C1629     1.0  0.80541  0.62014  0.01377  1.0000
  H   H1298     1.0  0.92649  0.53927  0.37586  1.0000
  C   C1630     1.0  0.85837  0.54432  0.08532  1.0000
  C   C1631     1.0  0.96025  0.65913  0.45351  1.0000
  H   H1299     1.0  0.70903  0.61335  0.05837  1.0000
  C   C1632     1.0  0.91442  0.49527  0.16031  1.0000
  C   C1633     1.0  0.82227  0.85927  0.39667  1.0000
  C   C1634     1.0  0.83948  0.87344  0.38287  1.0000
  C   C1635     1.0  0.83227  0.89705  0.37143  1.0000
  C   C1636     1.0  0.80787  0.90664  0.37405  1.0000
  C   C1637     1.0  0.79053  0.89268  0.38838  1.0000
  C   C1638     1.0  0.79788  0.86879  0.39937  1.0000
  P   P53       1.0  0.75910  0.90518  0.39293  1.0000
  C   C1639     1.0  0.74756  0.89681  0.42612  1.0000
  C   C1640     1.0  0.75713  0.93772  0.38615  1.0000
  C   C1641     1.0  0.76038  0.95078  0.40525  1.0000
  C   C1642     1.0  0.76695  0.67389  0.02557  1.0000
  H   H1300     1.0  0.95609  0.78453  0.18334  1.0000
  S   S224      1.0  0.83583  0.88498  0.44721  1.0000
  C   C1643     1.0  0.75309  0.95019  0.36155  1.0000
  C   C1644     1.0  0.72278  0.89521  0.43308  1.0000
  C   C1645     1.0  0.71400  0.88911  0.45884  1.0000
  C   C1646     1.0  0.91031  0.55658  0.31548  1.0000
  C   C1647     1.0  0.97593  0.76118  0.21207  1.0000
  C   C1648     1.0  0.76327  0.89257  0.44540  1.0000
  C   C1649     1.0  0.74132  0.89444  0.37218  1.0000
  C   C1650     1.0  0.74981  0.87355  0.36138  1.0000
  C   C1651     1.0  0.73589  0.86546  0.34533  1.0000
  C   C1652     1.0  0.71343  0.87815  0.33993  1.0000
  C   C1653     1.0  0.70487  0.89892  0.35059  1.0000
  C   C1654     1.0  0.71870  0.90702  0.36666  1.0000
  H   H1301     1.0  0.82802  0.84121  0.40611  1.0000
  H   H1302     1.0  0.85848  0.86629  0.38161  1.0000
  H   H1303     1.0  0.84571  0.90808  0.36103  1.0000
  H   H1304     1.0  0.80278  0.92506  0.36530  1.0000
  H   H1305     1.0  0.78487  0.85772  0.41063  1.0000
  H   H1306     1.0  0.76364  0.94169  0.42429  1.0000
  C   C1655     1.0  0.97362  0.61678  0.46655  1.0000
  H   H1307     1.0  0.69487  0.88785  0.46407  1.0000
  H   H1308     1.0  0.95719  0.86666  0.43627  1.0000
  H   H1309     1.0  0.75098  0.94058  0.34629  1.0000
  H   H1310     1.0  0.71014  0.89869  0.41877  1.0000
  H   H1311     1.0  0.86675  0.63205  0.04059  1.0000
  H   H1312     1.0  0.92234  0.64814  0.41752  1.0000
  H   H1313     1.0  0.80660  0.55103  0.01776  1.0000
  H   H1314     1.0  0.78243  0.89379  0.44067  1.0000
  H   H1315     1.0  0.76716  0.86347  0.36516  1.0000
  H   H1316     1.0  0.74255  0.84937  0.33702  1.0000
  H   H1317     1.0  0.70264  0.87197  0.32746  1.0000
  C   C1656     1.0  0.87295  0.49072  0.17812  1.0000
  H   H1318     1.0  0.71172  0.92322  0.37465  1.0000
  H   H1319     1.0  0.88238  0.53515  0.11549  1.0000
  H   H1320     1.0  0.84475  0.51314  0.05368  1.0000
  C   C1657     1.0  0.80877  0.92855  0.45071  1.0000
  H   H1321     1.0  0.82919  0.55433  0.06107  1.0000
  C   C1658     1.0  0.90733  0.52198  0.07039  1.0000
  H   H1322     1.0  0.92657  0.58277  0.28664  1.0000
  C   C1659     1.0  0.94263  0.63766  0.38335  1.0000
  C   C1660     1.0  0.93033  0.63317  0.40784  1.0000
  H   H1323     1.0  0.84826  0.67010  0.47141  1.0000
  C   C1661     1.0  0.93889  0.59013  0.40733  1.0000
  C   C1662     1.0  0.95220  0.59448  0.38318  1.0000
  C   C1663     1.0  0.95337  0.61842  0.37095  1.0000
  P   P54       1.0  0.96580  0.56979  0.36681  1.0000
  H   H1324     1.0  0.98314  0.69630  0.29172  1.0000
  S   S225      1.0  0.97631  0.49530  0.30627  1.0000
  C   C1664     1.0  0.90574  0.69872  0.43954  1.0000
  Fe  Fe114     1.0  0.86882  0.86110  0.46145  1.0000
  C   C1665     1.0  0.97346  0.77946  0.19090  1.0000
  C   C1666     1.0  0.86611  0.68787  0.43646  1.0000
  C   C1667     1.0  0.98982  0.52215  0.42812  1.0000
  H   H1325     1.0  0.76682  0.88373  0.48574  1.0000
  C   C1668     1.0  0.80654  0.57027  0.01713  1.0000
  H   H1326     1.0  0.77353  0.71100  0.01461  1.0000
  H   H1327     1.0  0.93671  0.57187  0.41659  1.0000
  H   H1328     1.0  0.92668  0.73970  0.33074  1.0000
  H   H1329     1.0  0.98030  0.83244  0.41795  1.0000
  H   H1330     1.0  0.71181  0.65578  0.03672  1.0000
  C   C1669     1.0  0.69011  0.96653  0.40196  1.0000
  C   C1670     1.0  0.94491  0.75816  0.29633  1.0000
  H   H1331     1.0  0.69471  0.94464  0.46021  1.0000
  C   C1671     1.0  0.97669  0.73358  0.27386  1.0000
  H   H1332     1.0  0.76817  0.55966  0.99496  1.0000
  H   H1333     1.0  0.76374  0.57360  0.12344  1.0000
  H   H1334     1.0  0.80506  0.63948  0.01162  1.0000
  C   C1672     1.0  0.99923  0.89671  0.39658  1.0000
  H   H1335     1.0  0.78062  0.59757  0.08352  1.0000
  H   H1336     1.0  0.77962  0.68076  0.09362  1.0000
  H   H1337     1.0  0.86229  0.50368  0.21403  1.0000
  H   H1338     1.0  0.93583  0.77458  0.45460  1.0000
  H   H1339     1.0  0.72429  0.57372  0.99587  1.0000
  H   H1340     1.0  0.77162  0.57429  0.03841  1.0000
  S   S226      1.0  0.99282  0.50395  0.22945  1.0000
  H   H1341     1.0  0.75474  0.51090  0.99669  1.0000
  C   C1673     1.0  0.99407  0.57669  0.34885  1.0000
  H   H1342     1.0  0.96905  0.90777  0.42299  1.0000
  C   C1674     1.0  0.98561  0.85035  0.41161  1.0000
  C   C1675     1.0  0.97595  0.51994  0.38010  1.0000
  C   C1676     1.0  0.98053  0.80075  0.32538  1.0000
  C   C1677     1.0  0.94564  0.75669  0.45848  1.0000
  C   C1678     1.0  0.75145  0.97538  0.35648  1.0000
  C   C1679     1.0  0.99832  0.75463  0.22208  1.0000
  H   H1343     1.0  0.98438  0.60025  0.46237  1.0000
  C   C1680     1.0  0.88324  0.67861  0.47708  1.0000
  S   S227      1.0  0.92937  0.82222  0.47965  1.0000
  C   C1681     1.0  0.82535  0.60673  0.00227  1.0000
  C   C1682     1.0  0.85270  0.97449  0.45236  1.0000
  C   C1683     1.0  0.98348  0.49872  0.39624  1.0000
  C   C1684     1.0  0.97320  0.63746  0.44797  1.0000
  P   P55       1.0  0.92935  0.68803  0.48364  1.0000
  H   H1344     1.0  0.71160  0.97822  0.42743  1.0000
  H   H1345     1.0  0.76361  0.67226  0.00640  1.0000
  C   C1685     1.0  0.94569  0.71353  0.47195  1.0000
  C   C1686     1.0  0.70051  0.98378  0.41178  1.0000
  H   H1346     1.0  0.73661  0.94866  0.46785  1.0000
  H   H1347     1.0  0.84063  0.57154  0.99391  1.0000
  H   H1348     1.0  0.89652  0.49140  0.05701  1.0000
  C   C1687     1.0  0.72980  0.88491  0.47786  1.0000
  H   H1349     1.0  0.84017  0.61566  0.99151  1.0000
  H   H1350     1.0  0.99148  0.80521  0.16296  1.0000
  H   H1351     1.0  0.97124  0.92274  0.47653  1.0000
  H   H1352     1.0  0.75911  0.61180  0.98801  1.0000
  Fe  Fe115     1.0  0.66960  0.58094  0.99318  1.0000
  H   H1353     1.0  0.92893  0.49282  0.14530  1.0000
  C   C1688     1.0  0.00179  0.66057  0.21595  1.0000
  H   H1354     1.0  0.00188  0.64370  0.20904  1.0000
  C   C1689     1.0  0.00154  0.70317  0.23605  1.0000
  H   H1355     1.0  0.74776  0.94312  0.51179  1.0000
  C   C1690     1.0  0.97172  0.53677  0.80882  1.0000
  C   C1691     1.0  0.97023  0.55384  0.78654  1.0000
  P   P56       1.0  0.91297  0.51086  0.68122  1.0000
  C   C1692     1.0  0.87701  0.53193  0.98610  1.0000
  S   S228      1.0  0.69295  0.58619  0.95535  1.0000
  C   C1693     1.0  0.75503  0.50268  0.95895  1.0000
  C   C1694     1.0  0.92027  0.98049  0.49552  1.0000
  S   S229      1.0  0.86155  0.51580  0.91923  1.0000
  C   C1695     1.0  0.72325  0.57294  0.95584  1.0000
  C   C1696     1.0  0.73678  0.56752  0.93311  1.0000
  C   C1697     1.0  0.76153  0.55866  0.93290  1.0000
  C   C1698     1.0  0.77297  0.55596  0.95527  1.0000
  C   C1699     1.0  0.70527  0.50148  0.97064  1.0000
  C   C1700     1.0  0.70875  0.53435  0.88036  1.0000
  H   H1356     1.0  0.72814  0.57021  0.91564  1.0000
  H   H1357     1.0  0.68401  0.54550  0.93428  1.0000
  C   C1701     1.0  0.87108  0.53426  0.62174  1.0000
  H   H1358     1.0  0.77183  0.55438  0.91539  1.0000
  C   C1702     1.0  0.92879  0.74063  0.58361  1.0000
  C   C1703     1.0  0.90461  0.74802  0.59163  1.0000
  C   C1704     1.0  0.88983  0.76316  0.57471  1.0000
  C   C1705     1.0  0.89915  0.77173  0.54972  1.0000
  C   C1706     1.0  0.92355  0.76496  0.54167  1.0000
  C   C1707     1.0  0.93840  0.74926  0.55859  1.0000
  H   H1359     1.0  0.89705  0.74140  0.61084  1.0000
  H   H1360     1.0  0.87099  0.76814  0.58100  1.0000
  S   S230      1.0  0.88048  0.85600  0.50085  1.0000
  C   C1708     1.0  0.78075  0.88465  0.54571  1.0000
  C   C1709     1.0  0.87980  0.91871  0.51917  1.0000
  C   C1710     1.0  0.79739  0.88956  0.56093  1.0000
  C   C1711     1.0  0.79073  0.90706  0.57681  1.0000
  C   C1712     1.0  0.76750  0.91986  0.57732  1.0000
  C   C1713     1.0  0.75078  0.91526  0.56182  1.0000
  P   P57       1.0  0.72074  0.93174  0.56227  1.0000
  C   C1714     1.0  0.72199  0.96051  0.57211  1.0000
  C   C1715     1.0  0.74036  0.52891  0.84570  1.0000
  C   C1716     1.0  0.86776  0.96204  0.51165  1.0000
  C   C1717     1.0  0.71325  0.96451  0.59714  1.0000
  Fe  Fe116     1.0  0.85347  0.51091  0.88048  1.0000
  C   C1718     1.0  0.84536  0.48869  0.81075  1.0000
  C   C1719     1.0  0.71200  0.93671  0.52997  1.0000
  C   C1720     1.0  0.80079  0.94686  0.48923  1.0000
  H   H1361     1.0  0.89008  0.90284  0.51280  1.0000
  C   C1721     1.0  0.86527  0.91666  0.54251  1.0000
  H   H1362     1.0  0.97762  0.86941  0.57566  1.0000
  H   H1363     1.0  0.80362  0.91086  0.58861  1.0000
  H   H1364     1.0  0.76276  0.93346  0.58961  1.0000
  H   H1365     1.0  0.70578  0.95055  0.61116  1.0000
  C   C1722     1.0  0.70537  0.89035  0.59349  1.0000
  C   C1723     1.0  0.85306  0.95981  0.53514  1.0000
  C   C1724     1.0  0.74461  0.50441  0.85568  1.0000
  H   H1366     1.0  0.88615  0.53660  0.96709  1.0000
  C   C1725     1.0  0.92753  0.50343  0.79260  1.0000
  C   C1726     1.0  0.89825  0.70389  0.52388  1.0000
  S   S231      1.0  0.99388  0.67521  0.56872  1.0000
  H   H1367     1.0  0.71933  0.56293  0.85051  1.0000
  C   C1727     1.0  0.89792  0.50951  0.82933  1.0000
  C   C1728     1.0  0.69937  0.91493  0.58410  1.0000
  H   H1368     1.0  0.96698  0.77972  0.49573  1.0000
  H   H1369     1.0  0.98498  0.77135  0.59132  1.0000
  C   C1729     1.0  0.90983  0.51847  0.80552  1.0000
  C   C1730     1.0  0.94789  0.52032  0.86860  1.0000
  H   H1370     1.0  0.74477  0.89316  0.53448  1.0000
  C   C1731     1.0  0.88599  0.55274  0.74823  1.0000
  C   C1732     1.0  0.72618  0.62922  0.97354  1.0000
  H   H1371     1.0  0.95665  0.52663  0.81586  1.0000
  H   H1372     1.0  0.75028  0.49653  0.92167  1.0000
  C   C1733     1.0  0.98736  0.60009  0.67512  1.0000
  C   C1734     1.0  0.95974  0.50600  0.65523  1.0000
  C   C1735     1.0  0.68884  0.87765  0.61068  1.0000
  H   H1373     1.0  0.97476  0.84550  0.48892  1.0000
  H   H1374     1.0  0.93631  0.63920  0.51432  1.0000
  H   H1375     1.0  0.73000  0.62170  0.95591  1.0000
  H   H1376     1.0  0.83739  0.89345  0.49913  1.0000
  S   S232      1.0  0.87435  0.52811  0.84416  1.0000
  H   H1377     1.0  0.77413  0.50392  0.95430  1.0000
  H   H1378     1.0  0.99738  0.90625  0.55976  1.0000
  C   C1736     1.0  0.99336  0.86873  0.56167  1.0000
  H   H1379     1.0  0.78606  0.87120  0.53324  1.0000
  P   P58       1.0  0.69762  0.49746  0.92095  1.0000
  C   C1737     1.0  0.82651  0.90853  0.48908  1.0000
  C   C1738     1.0  0.91030  0.55142  0.73823  1.0000
  C   C1739     1.0  0.91991  0.68976  0.51694  1.0000
  H   H1380     1.0  0.72282  0.88095  0.58780  1.0000
  H   H1381     1.0  0.99588  0.50231  0.63605  1.0000
  H   H1382     1.0  0.95331  0.67074  0.53052  1.0000
  H   H1383     1.0  0.92297  0.55995  0.74635  1.0000
  H   H1384     1.0  0.92661  0.55970  0.66388  1.0000
  C   C1740     1.0  0.72238  0.54385  0.85799  1.0000
  C   C1741     1.0  0.99574  0.78035  0.60134  1.0000
  H   H1385     1.0  0.96339  0.57492  0.63989  1.0000
  C   C1742     1.0  0.96214  0.55569  0.64382  1.0000
  H   H1386     1.0  0.88188  0.67043  0.49707  1.0000
  C   C1743     1.0  0.92629  0.51522  0.88344  1.0000
  H   H1387     1.0  0.86520  0.52018  0.70976  1.0000
  H   H1388     1.0  0.69540  0.54643  0.88978  1.0000
  H   H1389     1.0  0.84038  0.93567  0.56844  1.0000
  H   H1390     1.0  0.95641  0.65557  0.72279  1.0000
  C   C1744     1.0  0.97560  0.64937  0.72040  1.0000
  S   S233      1.0  0.98346  0.55954  0.71126  1.0000
  C   C1745     1.0  0.99289  0.53220  0.82123  1.0000
  C   C1746     1.0  0.92425  0.49207  0.89705  1.0000
  C   C1747     1.0  0.67651  0.92647  0.59204  1.0000
  C   C1748     1.0  0.70434  0.64366  0.97822  1.0000
  C   C1749     1.0  0.91550  0.81520  0.58549  1.0000
  C   C1750     1.0  0.90429  0.83493  0.56988  1.0000
  C   C1751     1.0  0.91830  0.85114  0.55389  1.0000
  C   C1752     1.0  0.94352  0.84733  0.55304  1.0000
  C   C1753     1.0  0.95501  0.82757  0.56865  1.0000
  C   C1754     1.0  0.94072  0.81146  0.58486  1.0000
  H   H1391     1.0  0.84166  0.50820  0.80725  1.0000
  H   H1392     1.0  0.81550  0.87990  0.56021  1.0000
  H   H1393     1.0  0.87101  0.54797  0.60480  1.0000
  C   C1755     1.0  0.71285  0.50971  0.89049  1.0000
  H   H1394     1.0  0.66924  0.98779  0.50827  1.0000
  H   H1395     1.0  0.67142  0.94544  0.58529  1.0000
  C   C1756     1.0  0.88923  0.53200  0.63804  1.0000
  S   S234      1.0  0.97237  0.49250  0.71793  1.0000
  Fe  Fe117     1.0  0.82127  0.51941  0.92975  1.0000
  Fe  Fe118     1.0  0.89124  0.81721  0.49613  1.0000
  C   C1757     1.0  0.90639  0.69521  0.56828  1.0000
  C   C1758     1.0  0.98049  0.51483  0.64163  1.0000
  C   C1759     1.0  0.93553  0.67982  0.53571  1.0000
  H   H1396     1.0  0.87973  0.56228  0.76422  1.0000
  C   C1760     1.0  0.97622  0.79836  0.52427  1.0000
  H   H1397     1.0  0.86421  0.89910  0.55421  1.0000
  C   C1761     1.0  0.96039  0.61757  0.49050  1.0000
  C   C1762     1.0  0.99977  0.80442  0.59243  1.0000
  C   C1763     1.0  0.71374  0.98695  0.60438  1.0000
  H   H1398     1.0  0.90472  0.80220  0.59737  1.0000
  H   H1399     1.0  0.88482  0.83720  0.56964  1.0000
  H   H1400     1.0  0.90978  0.86617  0.54132  1.0000
  S   S235      1.0  0.81313  0.51869  0.88977  1.0000
  H   H1401     1.0  0.94879  0.79547  0.59635  1.0000
  H   H1402     1.0  0.95703  0.74348  0.55214  1.0000
  S   S236      1.0  0.78692  0.96994  0.50619  1.0000
  H   H1403     1.0  0.97998  0.66495  0.68044  1.0000
  H   H1404     1.0  0.95403  0.55690  0.77676  1.0000
  H   H1405     1.0  0.91096  0.52914  0.88414  1.0000
  C   C1764     1.0  0.91850  0.53882  0.71790  1.0000
  C   C1765     1.0  0.93995  0.52199  0.66333  1.0000
  H   H1406     1.0  0.74002  0.97626  0.53598  1.0000
  S   S237      1.0  0.87893  0.78934  0.52903  1.0000
  H   H1407     1.0  0.90145  0.69762  0.58807  1.0000
  H   H1408     1.0  0.95880  0.80923  0.52521  1.0000
  H   H1409     1.0  0.83937  0.48905  0.65319  1.0000
  S   S238      1.0  0.93875  0.88769  0.49320  1.0000
  C   C1766     1.0  0.86986  0.54139  0.73790  1.0000
  H   H1410     1.0  0.85075  0.51365  0.97317  1.0000
  C   C1767     1.0  0.72930  0.94173  0.50891  1.0000
  C   C1768     1.0  0.85312  0.51880  0.62718  1.0000
  C   C1769     1.0  0.99380  0.80036  0.54006  1.0000
  C   C1770     1.0  0.74123  0.49886  0.94037  1.0000
  H   H1411     1.0  0.95406  0.85925  0.53934  1.0000
  S   S239      1.0  0.94540  0.71953  0.60536  1.0000
  H   H1412     1.0  0.85110  0.54211  0.74596  1.0000
  S   S240      1.0  0.80413  0.54582  0.95588  1.0000
  H   H1413     1.0  0.94056  0.67467  0.57589  1.0000
  H   H1414     1.0  0.81738  0.92672  0.52185  1.0000
  H   H1415     1.0  0.83914  0.52052  0.61447  1.0000
  C   C1771     1.0  0.85194  0.93723  0.55052  1.0000
  C   C1772     1.0  0.90227  0.52797  0.70687  1.0000
  C   C1773     1.0  0.85326  0.50109  0.64899  1.0000
  C   C1774     1.0  0.87136  0.49880  0.66535  1.0000
  C   C1775     1.0  0.94139  0.54695  0.65754  1.0000
  C   C1776     1.0  0.73092  0.49485  0.87792  1.0000
  C   C1777     1.0  0.89146  0.70645  0.54950  1.0000
  H   H1416     1.0  0.93754  0.53762  0.71091  1.0000
  C   C1778     1.0  0.75746  0.89726  0.54632  1.0000
  H   H1417     1.0  0.97233  0.60842  0.68661  1.0000
  H   H1418     1.0  0.94925  0.53850  0.85864  1.0000
  Fe  Fe119     1.0  0.98350  0.70396  0.59364  1.0000
  H   H1419     1.0  0.87505  0.71786  0.55469  1.0000
  C   C1779     1.0  0.87794  0.52902  0.71731  1.0000
  H   H1420     1.0  0.90518  0.53701  0.79702  1.0000
  H   H1421     1.0  0.93637  0.51032  0.77406  1.0000
  Fe  Fe120     1.0  0.99677  0.51974  0.72091  1.0000
  C   C1780     1.0  0.98706  0.63596  0.74107  1.0000
  C   C1781     1.0  0.98074  0.78160  0.50745  1.0000
  P   P59       1.0  0.98752  0.82032  0.56353  1.0000
  C   C1782     1.0  0.81516  0.92733  0.50194  1.0000
  H   H1422     1.0  0.91587  0.96771  0.51253  1.0000
  C   C1783     1.0  0.74401  0.50653  0.98303  1.0000
  C   C1784     1.0  0.92851  0.68216  0.56136  1.0000
  H   H1423     1.0  0.75129  0.53638  0.82871  1.0000
  C   C1785     1.0  0.71609  0.49895  0.94584  1.0000
  H   H1424     1.0  0.98899  0.57878  0.75845  1.0000
  C   C1786     1.0  0.88957  0.51419  0.65998  1.0000
  C   C1787     1.0  0.99002  0.56614  0.77618  1.0000
  C   C1788     1.0  0.99731  0.61344  0.65236  1.0000
  H   H1425     1.0  0.93062  0.77109  0.52220  1.0000
  H   H1426     1.0  0.89313  0.98616  0.59903  1.0000
  H   H1427     1.0  0.84230  0.97531  0.54169  1.0000
  C   C1789     1.0  0.68833  0.93449  0.52546  1.0000
  H   H1428     1.0  0.99790  0.54644  0.62564  1.0000
  C   C1790     1.0  0.96739  0.50205  0.86673  1.0000
  C   C1791     1.0  0.99660  0.57597  0.68290  1.0000
  C   C1792     1.0  0.94696  0.63913  0.49595  1.0000
  C   C1793     1.0  0.98166  0.53964  0.63584  1.0000
  H   H1429     1.0  0.69361  0.85874  0.61802  1.0000
  C   C1794     1.0  0.75942  0.56164  0.97779  1.0000
  C   C1795     1.0  0.73454  0.56946  0.97831  1.0000
  H   H1430     1.0  0.90292  0.54414  0.63332  1.0000
  H   H1431     1.0  0.97675  0.63178  0.75953  1.0000
  C   C1796     1.0  0.88113  0.94123  0.50384  1.0000
  H   H1432     1.0  0.75901  0.49286  0.84670  1.0000
  H   H1433     1.0  0.98993  0.63194  0.64632  1.0000
  C   C1797     1.0  0.73260  0.97889  0.55510  1.0000
  P   P60       1.0  0.99576  0.50861  0.84857  1.0000
  H   H1434     1.0  0.95863  0.97189  0.49793  1.0000
  H   H1435     1.0  0.88689  0.71351  0.50949  1.0000
  C   C1798     1.0  0.98886  0.65467  0.69655  1.0000
  H   H1436     1.0  0.68597  0.50120  0.97550  1.0000
  H   H1437     1.0  0.67452  0.93062  0.54113  1.0000
  H   H1438     1.0  0.96064  0.60149  0.50488  1.0000
  C   C1799     1.0  0.68222  0.93715  0.50038  1.0000
  H   H1439     1.0  0.72293  0.88044  0.49781  1.0000
  H   H1440     1.0  0.69122  0.64700  0.96433  1.0000
  C   C1800     1.0  0.94461  0.98301  0.48747  1.0000
