data_image0
_chemical_formula_structural       FeS2H4FeC2SCH2C4HSCS2H2CHSH3C3H2C2H3C2HC2H3C3HCHCSC2FeHC2H3SH4CHSFeHC2HC3HSC3HC7H2CHC6SHCHCH2C2H2CH2C2H2CHCHFeH4C3H2C3HCHC5PC8FeH2SCH3C2HC2HCH7CH2CHCSHC6PC10H6C2H9C2H2S2C2FeC3HCFeCHC3HSC2HCHC2HCHCHCH3C2H3C2HCHC2SC3HCHCSC2HC2PHCHSCH2CHC2FeC2H2C6FeCPHC3HC2HC5SC2H2PH2C2HCSFeH2CHC2H4C2H2C2H3CSC3H2PSC2HCH2CH2SCH2FeH2C2S2HC2H2C5HCHC2H2C2HC2FeHC3Fe2H4CH2FeS2HCH2CPHC3H3CH3C4H2CFeS2H2C2FeSCSHCHSH2CHSHCPCHCHC3FeC4H2C2HC3H2C6H2PC2HCFeC6H2C8H4CHC2PCH3C4H5SHC2HC2H2C3HC3H4C4HC3H2CH2CH3C4HC2HSC2HFeSCHCH2C2HC2HC2SC2HC2HC5HC5HCHCFeCH4CHC5HC2H2CFeHSHSCH2C2H3C2SH2C2HCH2C2HC3PC7HC2H2CHFeSHSCS2HC2HCSCH2FeS2FeS2FeSFeS3PC3H2C2FeSC4FeS2FeSH2S2HSFeS2CFe2SHSCHFeS3HC3SFeS2FeS2FeSFeS3HC6HCHC6H4CH2CH2C7H4C7HC9H4CH3C2H3C6H4C6H4CH2C3H2C6H4CHC6H2C6H4C3HCH2CHC3HC2H3CHC3HC6PC18H20C5H4C6PC2HC6H2CH8C2H3CHC2HC2HCH2C8H5C6PC16H19C7PC8HC9H11C2H4CH2C6H2C3H2CHC2HSHC4SH5CH2CSHCH5FeHC2HC3PC4HC2HC3PH4CH2C2PCHC5H3CHCHC4HFeHC3H3SC3H2CH2SC4H5PCHSH2C3HSC2SC5HCH2C3PH2C2H2CH2CH2CHCHFeH3C2H2CH2C2HSC2HFeH2SHC3HSHCHC2H3C3HC2PC3HCHS2C2H4FeH3C4HSC3SHC2HC3H4CH2C2HSC4H2C2H2FeC2HFeCSHSH2SCH3C5HCH2CFeHCHCH7C3HC3FeH4CHFe2HCHPSCSHCHC2HSCH2C2HC3S2CH2S2CHCH2CHCHCH5SHCH2C2FeHC2H2C3HCH2Fe2C2FeH2CSHC2PHC5HC4SHCFeC6SC3HSCHC3H4C4H5CH2CFeSC2HC2HC3HCHCH4SC2HCH2CHCHSHC2FeHC2PC2SHCHCH3CFe2CHC3H2CHC3HCSHCH5C2PCH2CH2C2HC2H2C4H2C2H2SH2CSFeCSCH2Fe2C2H2CH3C2SC2H2SCSHCH2C2SH2CHC2FeSHC2FeS2FeS2FeSFeS3FeH2CHFeSH2SHC2H5C3H3C6H3C6H4SHC4FeH3C7H4CH2PC4HC7HCH2CHC3SHCHC3SHFeC2H3C3HCH2CHSCHPSCHC6H4C6PC14H2C2H14FeCH2CHSH2CH2SC6PC18H13CH7CHCFeHC2SHCS2C7SCHCH4PCH3C2HC2HFeH2C3HC2HC3HC3HC4PCH2C5PC21H8SCH7CH2CHCHCHCH4C2H2C3H3CSHFeHCH2CHC5HCH4C2HCHCHCH4SHPSCFeSFeSCPFeHC3HCHC3H2FeCH3C4HFeSC3H2FeSH3FeS2FeCSFe2CSHFeHSCH2FeSFeSC6H4C2HC4H3C8H3C3HSC6FeCH2SC3HC4HPCFeH6CHCH2C6H4C2HCH4C2HC4H2C2HC2H3SHCH4CHC2HCFeH2FeCSH3C2H2C4HSHC2HCH3C4HCH3SHCHC2H2C3HCHCHC3SCHCHCHSCSCSC2HCHCHC2PSCHC2H2C2HCFeH2PH4CSC3HC10HC6HCH8CSPC2SH2CHCHCSCHSHCHC3H2C2SH4CH3C2HC2HC2HC4H4C2HCHCH2CHSC3HCHCHC2H3C2HC3HCSCPSC2HCH2C4SCH3CHC4H3FeH2C3H2CSH2CHC5H2S2CHC3S2H3CHC2H2CHCH3CH2CHC4H3CFeCPCSCH2CHC4HCH2C5HCHCHC2HCHFeC3H3C2H3CHC2HSCH2CHC5H3C2HC4HCFeSHC2HFeS2H2C2H2S2CH2C4FeS2FeHSFeSC2S2C2HSCHSHSHCHCHFeS2FeS2FeSFeS3C6H2CHSCHC8H4CH2FeHCHC9H4C6H4C2HCHC3HSCHPC5H2CSC2H2CH4C7H3CHSFeC3SH2CH2CH3CH4C5HC4H3C4HCHC3SCHCH2PC2H7SCH7FeSC2HCHC3H3C2H2C2H3CSCH4FeC2H4CSCHC2HC4PC18HCH9CH10C3H4CHCHC7PC14H17CPC5HCH3C2HFeC3PC7HCHCH5CH6CH2C2SC2HC3HPC14HC4HCH9PC3HCH3C2HCH2CH2FeHC2FeC4H2CHCHC3HCHC5PC2HC2HC3HCH2C2PHC5HC2H2SHCH2CHC2HC3HSCH2CH2C6HC2HC3HCH4C2HC7H2SCH2C2H2FeH2C2HC2HFeS2PCFeSHSCHCHFeS2FeHFeHS2FeS2FeS2CHFeSCSHP2CH3CHC3HSHCHCFeS2CHFeHS2FeHSC2FeS2FeSFeCS2C6H7C3HC2HC6H4CFeH2C3H2CH4C2SCHC4HCHC3HC3HC2FeCH2SC7H4C2HCH3C2H2C3HC6H5CHC5H2PCH2C2H2C2HCHC2HC3PC18HC2H18C6H2C6SC3HCFeCPCHC2HC2H7PC10H4C6PC8H9SC6HCHCHCHCHC6SCHC2H2C2SCH3SHCH3CHC9PC7HC11H8C2SCH5CHCPC3H2C13H2CHCH9C4H2C5H3CH3C3HCSC4HC5H7C4HCHCH2CH2FeC2HC5HCHPCH2C3H2CH2C7HCH5C2H4CH2C2SH3SC3H2CHC2H5CHC3HFeC3HCH2CH2FeC3HCH2CHCSCSC4FeHC2H3C2HC2SFeC3HC3H3SHCH2CHC2HCH2CH4CHC2H2PSPHC2HC2SHC3H2CH2CHCHC2HCHC3HCH2C3H2C6HCPSCHC4SHSH3CSC2H4CFeHCHSCSC2H5CHSC2FeSHCH2C3H4C5HPCFeC2HC2HCHPCHCH2SC5HC3H5C3HCH4SCHCH4C2H3C2HCHC3HC4H3C3PC2H2C2HC3H2CH3C3HC2SCH3C2HC4H6CH3C3H2CH5C3H3FeHCHC3HC4H3CSC2H2FeHC7HSH4SHSC3FeH2C2HCH4SCPHC2SFeS2FeS2FeSFeS3CS2FeSFe2SCS3CHCHSCH2FeS2HC3H2CHSCHCHC2HCS2H3CHCHCHCSH2C2H2CH6C5H4C6H4C6H4C6H4C2HFeHC6H4CHC2H2CH4C3HC3HCHCHCS2C2H6C4HCHCH2CH6CHCH2C4H2CHFeHC2H3CFeHCHPSC2HC2HCH2C2HC2H2C2HSC3HCH3CPHC2H2C5H3C2HCHCFeSHCH2C5H2C3H2P2CHCHCSHCH4SCHC3HCHFeC2HCHCHCHCHC4HS2H2CFeC2HC2HCPH3CHCH5CHSH2PCHSC2HC3HC3HCH2C3HC3HCHCHC2HC4H2CHCFe2CHC5HC2H2CHCHC3HCHCH4C2HC3HCHC2HCPCHSC2H2C2H4C2HCH2CHCHC3HFeCHC3H2C2FeCSC2HC3HC3HSHC3HCH2SHCS2FeSFeS3HCFeH3CHCFeSFeS2FeSFeS3C4H3C3H3SH2CHCHFeCSPC3HCHC8H2CHC4H2C6H4FeC2HC3H2SHC3HCHC3FeHCH3C4HCHSC4HFeCHCH3CHFeHPC3PC2H3CHC2SC8H3C4PCH7S2HC2HC6HC4HCSCH4CHC3HCHCHC3H4C2HCFeH3CSC4H3C3FeH2PSC3SC2H6CHCH2CHC2H2C3H2C4H2CHCHC3HCHC2HCHSH6C2PHCHC2HC3HC2HSH3C2HC3PC8HC9H7CH5C2H2C3HCSFeCSHCHC5H2C2H2CHCH2C4H3C3HCHCH2SCHC2PC7HCH2CHC2HC4PH2CHSC2HC5H2CFeHC6HCHCHC3HC8H3CHC6HCHCHSH2CHCH2CHCHCHCSCH2SCH4CHPCH3SCHCSCHCHC3HCFeHCSCHCSH2CHFeC2H6C3HC6HCHFeC2HSHC2FeC2H4CHCH2CSCPHC2HCHCHCH4CH2C5HCHCH2CHCH3C2HC2HSCHCHC2HC3FeSH3CH2C3SC2H2CPH2FeH2C3FeH2C4H2C2H2FeHCHFeC2HC2SCH3CSHC3HSCFeS2C2FeSC2FeS2HC2FeHFeSCSFeSHFeSHFe2SHSFeS2FeS2FeSFeS3FeCSFeSCHFeSCFeSFeC2SFeS2H2FeS2HC2H2C7H2CHC2HC3HSHSC6H4C6H4C2HC8H4C5H3CHC6H3PH3C5H4C6H2C5H3CHCH2CH3CHCHC3H5C6PC3HC14HCH5C2H13CHFeHCHSC3SC2SHCHC5FeC2HPH2CH4CPC2HC2HFeH3CH2CHSHCHC4HCHCHCH2CHSPHCH3FeHCPC13HCH2C2H3C2H2FeHCHSHCSCHCFeC3H2C4H2CHSHSHCHC2HC2H2SCHC2HC3HC2HC4HC2SH3CHCH5C8HC2HCHC2HCSCHC2H2C2H3C3SCHCHFeCHPC2H3CHC4HCPC4HPHC2HC7HCHCHC4HC3HC2H2CHSC2H3CHCPC2H3CHSHSC4H2CPCH3CH2SC2HCHCHFeH4CHFeC2HCHC4HCHC2H2C3SHCH3C2HCHCH6C2HCH3CHCHC6HC3H3C7HC5H5C2HCHCH2CHCHCH2CHCHCH2CH2C3HCHC2SCHC2PHCH3CPCPH2C4HC3HCHCHC4H3SHC2HCHCH3CHSCSFeHC2H6CH3C3HFeSCFeSCFeSFeS2CFeSCFeSC2FeSCSFeS2FeS2Fe2S3FeS2FeSHFeS2Fe2S6FeSCSH5CH3SHC2HC2HCHCHSC11H2CHC9H4C6H4C4H2CH2C7H4C6H4C6H4C3HC2H5Fe2CSCH3C6PC3HC5HCSC6H6SPCH3CHCH5SH2FeCHSCHCHC6H2CHSPSCHCPC2H2C2HC2HCH3S2H2FeC2HSH2C2HSHSCHC5HC2HCFeH3C3HFeCHCH5C2H5C3H3CH3SC3H2CHC4HCHC3HCSC3HC2HCHCHCHC7PH2SC3H3C6H3CH3CHFeH5PSC6PC4HC11H6CH4C2H5C8H6C6PC18H11SH8CHC2HCHCHCFeC5H2C4FeC3HC2HCH6C2HCH3CS2HC2H2CSFeC2HC2HCHCHC4HCHCHCH2CH3C5HCH3FeCHC2H3CHSHCSC2SH2C2H4CHCHCHC3PCH2C4H3C2H2CHFeHSHSC2HFeHFeS2H2CHFeH2SCFe2SHFeS2FeSFeS2C2SHFeH2PSHSHFeSHFeC6HCH2C2HCH3CFeC8H4C6H4SC3HCH4CFeH2C2H4C6H6C3HCFeH2CHC4H5C4H7CFeCH2C2H2CHCHC2FeCH2CHC2HC2H2C2H3CHSCH2CHCHCHC2FeH2CHCSCHFeHCSH2C8HC2HC2S2C3HCHCHC2H3C5H2CHCH2CHCSC3HC2FeHCFeC2HC8SHC2HPC5H6SCHCHC4H3C2HC2HCH3CSFeCH3CH3SC2HCH2CHC2FeSCHC3H2CHCPH2C3SHC3HC2H2C2PHC2HS2C3H2CH2CSHSHSC2HC7HFeC2H2C2H2C4H2CHCSC3HC3HCHCHCPC3HC6SFeH4C3HC4H2SC3HC3H3C2H3CH4SCSCH2C2HC2HCH2C4HC4HC2H2CH3C3H2C2HSC5HCPCHC2H2C4HSC4SCHCH2CPCH4C2PHSCHC2HPH2C2HCHCH3C4HCHC4HC2H3CFeCSC2H3CHC3H4C3H2CHCHC2HC3HC2SHC2HSH2CH2PHC3HCHC5SHSH2CHCHC2HC2H3C2HCH2C2HSH3PC2HCH2C2H2FeH3C2HCHC2H2SHSCH2CH5CH2C2FeC3HCHCSHFeC2HC2HCFeS2FeS2FeHFeS3HCHCHSCSCHSH2C2Fe2S2FeS2FeSFeS3CH2FeHSC4SH2CHCH6C6HCSHC7H3C6H4CHC2H2CHC4H3C7H4PC8HCHC7H4C6H7CHCSH2CHC6H3PC9H3C3HC6H6C3HCH2C2HC5H3CHC3SHCHCH2P2HCHC6PC15HC2H21C2H3C6HCH6CHCHC2H3CH2C2H2C2HC2H2CH2CHCHCH2CH4C2HCHC3H4CHSC2H2CH2C2H2CH2CHC2HCH2CHC4H5CPCHC8HFeHSPC2HC4HC2PC13H8CH5CHC2FeHCHCHC2H4C2HCH2C3PC2HC2HC9HC2H2C2HC5H7SH3C6HCH6CSCSC2HCHSCHC4H2FeC3H2CH2C2HCFeH2CH3CH4S2FeSFeS2FeSFeS3HS2C2H3SHC2H2CHC4SHSHCHSHPC2H2C2HCH2SHC5HC2HC3FeCHC2H2CPCH2C7H4CHCHC3PH2C3H2SH3C5H2C6H5Fe2HCHC2HPCHC5HC3HSHSH2CHCHCSCHC2HC6HC2HC2H3C2HCH2C5H2C2HFeC3H2C4PC3H2C7H5CH2C2H2C3HC3HCFeHCHC4H5CHC3HCSHFeSCHC2HCHC2H2FeC8HCH2CPSCHC4H3C6H2CH4CHCH2CHCH2CH2CH2CH2C6PC18H8CH13SCHCFeCHC2H2CHSC2H2FeHC2HC2HCH2C2SC3HPCHFeHSHC3S2H2PC5HCH2C2HCH2CH3CHS2CHCHC3SCH4C2S2H3CH2CHC6HCHC2H2CH3SH2CHC3HC2HC3HCHFeHC2HC3H2CHC2PCHCHCHSHCHC4FeHC2SCHCHSH3C2FeSCSHSHFeSHFeH5FeSHFeS2FeSFeS3HFeS2FeS2FeSFeS4C6H4C2HC9H6C2H2PHCHC6H2SC4HCSCHC2HC2HC6H4C2H2C3SH3C2HC6PC14HSC2H16FeH3CHC3SH2CFeHCHFeCS2H3CHCSHPCH2CHCH4CH3C3HC3HC2H3C6HC3HCHCPHCPH4C2HCH3CH2CH4CHCSHCH2C2H3C2H2C4H2CHCH2C5HCHC2HCHCH3C2HC2H3C2HC2H3CH2C4HC2HC2FeH3CHC7PC4PC12H18CSHSCH3CSCHC3HC3HC2HFeHSHC2H2C6HCHCHFeCHC2H2CH3CHCHSHCSC3HC2H2CHCHC2HCHCHCH4C5SC3HC2FeH2C7HC6PC4HC13H6C2HCSHCHSH2C4HCH3CH2C2PHCHC3HCH6CHC2HC7HCHC2HC2HC3H2C2HC2H2C4HCH4C2H3C3SHCSHC2H2PCHC2HCHPCH2SCSH2CFeS2HCH2SC2HC5HC2HC2FeSCSCHCHCH2CPHCSFeS2Fe2SHSFeS2FeSFe2S3C6H8FeCHC9H4C4H2CPCHSHSC7H4C3HC2HC2H3CH2C2HCHCHC2H3C4H3C2H5CH2CHPH3SC4HCH4CH2C4H2SHC9PC18H20C4H5C3HSCH4CHC2H2CH4C2FeC5H2C2SHCHCPHC2HC2H2CHC2HC4H2CH3C3H2CHC2HC3HCHC4H2CHCHSC3PC18HC2H9C2H6C3HC2HC2H2C3HC2HCH3CHC2H2CHCH3C2HCHC2H3CSC5HC3HCH3C2HC7HC2HC4H2PC4HCHCHC3H2C2H2CPH5CH2CH2CHCH2SHPC3HC2HC3HC3PHC4HC2HC2H2C2H2C2HSHCH5CSHC2HC4H4CH2C3H3CHCH2CHC2HCSCS2FeSFeSH3FeS2FeS2FeSFeS3C7H2CHC3H2CFeC6H6C6HCHC2H4C3HCH2C2H2S2HCH3C2H2CHC2H4CHCH4C4HCHCH2FeCHCHC4HC3HCPCH3C3SHC2H2C2HCH2CHS2CH2C4PC3HCHC7HCHC2HCH3C3HC2HC2HCH2C3H2C3H2C2H2FeCFeHC4SHC2H3SHCHCHCH2C2HCH2C4H2C6H3CH2C2H2C6PC8H2C8H13SH6PC5SC2SHCHCH2SH4FeH6CSC5H2C4HCHC4H4C4H4CHC5HFeHSCHC2HCHCHSHC3HC5PHC4HC6HFeHCH2C5PHC2HC2H2C2H4CHSHFeCH2SPC5PCHCH4C4HCH2CH2C2HC2HC3H3C2HCHCFeC3FeCH3CHC4H2C3H2SC2HC2HCH4CHC2H4CHCH3C5HSC2SHCHCHCH2SCH2SCHC2PCH2C3H7CH2C2HSHC2HC5SHFeHC2H2C2HP2C2HC2HCHSHCFeS2FeS2FeCFeS4FeS2FeS2FeSFeS3FeS2FeSHFeSFeS4HCH3CHCFeHC2H3C2H2C3HC6HSC3HCSHSCH3C3HCHC4H4C3H2C6H4CH2C6H4C3H2C6H7C9H2CH3C4SFeC7H3FeH6C2HC3PC18H4SH5CH3SH2CH3C10HCSFeC2HCH3C3FeH6C2H4C2HC2HC2H2CHCHC4HCHC2H2C2PC3H4C2HFeH2C5PHFeC6PC18H21CHCPC6HC7HSHCH2CH11CH3FeC3HCHC6PC18H18C3S2PC2HC3HC2H4CH10C2HCHC4HCHC3SCHCHCHC4PHC5HSHCHC4HC3HPH2CHC4H4CHCSH2CH2C2H2C3HCHC4H2C4SCH2C2FeCH2CH4C6H2SCFeSHC2HPCSHC5HC2H2CHC2H5CHSH4CSH2C3SC4H4C6HSHCH5CHCFeC2HCHCH3FeS2FeSCFeSC2SC2HC3HC6H2CSH2FeS2HC6FeS2FeS2FeSFeS2PS2H2CHC2SH2C2HC3H2SHP2HCHC2HCHC4HCHC2H2C6H4C6H5CFeCH3CHFeCH3CH2C2H2CSH2CH2CFeH4C6H5C3HCHCH3CHCHCPCH2CH2C2HC5HCSC2H4C2H2CH3CH2CH4SCH3C2H3C2HCHC7HCHC2HCHC6H6C2H2FeCHC2FeHPCHC3HC2H5C5HCHC3H2C2S2CH2CH2PH2C2SC2H2C4HC3H2PC5H2CH2C2HC2HC2HC2HCHC6HCHC6H3C3H2C8HCH2CHC2H4SCHC2HC4H2PSHCH3C2HC2H3CHPC4HSH3C2HC7H2CH2C6HC2HC2HCH3C6HCHC2SHC2H2C2H2C2H2CHCHCHCH5CHCHCHCHCFeSHC3H2C
_chemical_formula_sum              "Fe384 S768 H4608 C5760 P192"
_cell_length_a       80.3824
_cell_length_b       81.267
_cell_length_c       81.6652
_cell_angle_alpha    73.894
_cell_angle_beta     73.8567
_cell_angle_gamma    73.9224

_space_group_name_H-M_alt    "P 1"
_space_group_IT_number       1

loop_
  _space_group_symop_operation_xyz
  'x, y, z'

loop_
  _atom_site_type_symbol
  _atom_site_label
  _atom_site_symmetry_multiplicity
  _atom_site_fract_x
  _atom_site_fract_y
  _atom_site_fract_z
  _atom_site_occupancy
  Fe  Fe1       1.0  0.48122  0.09584  0.01697  1.0000
  S   S1        1.0  0.47309  0.12368  0.00283  1.0000
  S   S2        1.0  0.48017  0.08816  0.04575  1.0000
  H   H1        1.0  0.40647  0.05134  0.10949  1.0000
  H   H2        1.0  0.30614  0.05374  0.01347  1.0000
  H   H3        1.0  0.00348  0.20041  0.01991  1.0000
  H   H4        1.0  0.99931  0.17408  0.12977  1.0000
  Fe  Fe2       1.0  0.45978  0.11249  0.98879  1.0000
  C   C1        1.0  0.08424  0.20436  0.12900  1.0000
  C   C2        1.0  0.48642  0.05495  0.04071  1.0000
  S   S3        1.0  0.46555  0.08540  0.00508  1.0000
  C   C3        1.0  0.16003  0.08127  0.03264  1.0000
  H   H5        1.0  0.00431  0.02352  0.24836  1.0000
  H   H6        1.0  0.18360  0.12560  0.03916  1.0000
  C   C4        1.0  0.42137  0.04634  0.06737  1.0000
  C   C5        1.0  0.41447  0.04585  0.09841  1.0000
  C   C6        1.0  0.31453  0.99213  0.00344  1.0000
  C   C7        1.0  0.00162  0.99657  0.27999  1.0000
  H   H7        1.0  0.46666  0.00082  0.04732  1.0000
  S   S4        1.0  0.46553  0.01088  0.12042  1.0000
  C   C8        1.0  0.43413  0.09990  0.04647  1.0000
  S   S5        1.0  0.19425  0.99407  0.11739  1.0000
  S   S6        1.0  0.49263  0.01053  0.15195  1.0000
  H   H8        1.0  0.37148  0.99033  0.07962  1.0000
  H   H9        1.0  0.14457  0.05462  0.24880  1.0000
  C   C9        1.0  0.28721  0.03083  0.99710  1.0000
  H   H10       1.0  0.02161  0.21925  0.02173  1.0000
  S   S7        1.0  0.42344  0.99110  0.14187  1.0000
  H   H11       1.0  0.03902  0.22580  0.04350  1.0000
  H   H12       1.0  0.10903  0.09793  0.01561  1.0000
  H   H13       1.0  0.06670  0.04722  0.30781  1.0000
  C   C10       1.0  0.04485  0.17508  0.05399  1.0000
  C   C11       1.0  0.34447  0.99259  0.05499  1.0000
  C   C12       1.0  0.18387  0.11959  0.01504  1.0000
  H   H14       1.0  0.10353  0.02288  0.26053  1.0000
  H   H15       1.0  0.12335  0.99972  0.21520  1.0000
  C   C13       1.0  0.48161  0.03951  0.07635  1.0000
  C   C14       1.0  0.34854  0.99228  0.03723  1.0000
  H   H16       1.0  0.00203  0.99569  0.21772  1.0000
  H   H17       1.0  0.19253  0.00089  0.03271  1.0000
  H   H18       1.0  0.42883  0.98499  0.02634  1.0000
  C   C15       1.0  0.43154  0.08287  0.04970  1.0000
  C   C16       1.0  0.40673  0.10588  0.98265  1.0000
  H   H19       1.0  0.26506  0.99977  0.00465  1.0000
  C   C17       1.0  0.20257  0.00630  0.03454  1.0000
  C   C18       1.0  0.13900  0.98487  0.14026  1.0000
  H   H20       1.0  0.13543  0.08653  0.06714  1.0000
  H   H21       1.0  0.11946  0.11468  0.07554  1.0000
  H   H22       1.0  0.19056  0.00005  0.20159  1.0000
  C   C19       1.0  0.17399  0.12109  0.00290  1.0000
  C   C20       1.0  0.05770  0.17480  0.12614  1.0000
  C   C21       1.0  0.06421  0.99455  0.29301  1.0000
  H   H23       1.0  0.07324  0.17915  0.01412  1.0000
  C   C22       1.0  0.09236  0.20557  0.15501  1.0000
  H   H24       1.0  0.20106  0.99241  0.06135  1.0000
  C   C23       1.0  0.48807  0.03679  0.04637  1.0000
  S   S8        1.0  0.48844  0.00626  0.07067  1.0000
  C   C24       1.0  0.48211  0.06547  0.05287  1.0000
  C   C25       1.0  0.47977  0.05775  0.07071  1.0000
  Fe  Fe3       1.0  0.21212  0.04935  0.98445  1.0000
  H   H25       1.0  0.30538  0.98978  0.04151  1.0000
  C   C26       1.0  0.44192  0.99260  0.05314  1.0000
  C   C27       1.0  0.00771  0.20997  0.00837  1.0000
  H   H26       1.0  0.45108  0.08851  0.97624  1.0000
  H   H27       1.0  0.40348  0.01089  0.11126  1.0000
  H   H28       1.0  0.43911  0.07251  0.05806  1.0000
  S   S9        1.0  0.01007  0.21085  0.10102  1.0000
  H   H29       1.0  0.44375  0.02615  0.05899  1.0000
  H   H30       1.0  0.19653  0.08855  0.03897  1.0000
  H   H31       1.0  0.01847  0.17075  0.05901  1.0000
  H   H32       1.0  0.23772  0.99540  0.99993  1.0000
  C   C28       1.0  0.41236  0.00437  0.01038  1.0000
  H   H33       1.0  0.22889  0.08585  0.03355  1.0000
  S   S10       1.0  0.20491  0.02387  0.00045  1.0000
  Fe  Fe4       1.0  0.99822  0.23117  0.08023  1.0000
  H   H34       1.0  0.11257  0.99161  0.13563  1.0000
  C   C29       1.0  0.15322  0.04158  0.08242  1.0000
  C   C30       1.0  0.17980  0.99326  0.20788  1.0000
  H   H35       1.0  0.15756  0.01186  0.29119  1.0000
  C   C31       1.0  0.03223  0.04454  0.25495  1.0000
  C   C32       1.0  0.33275  0.02384  0.04810  1.0000
  C   C33       1.0  0.41114  0.05353  0.08174  1.0000
  H   H36       1.0  0.35823  0.04102  0.07108  1.0000
  S   S11       1.0  0.35579  0.05538  0.99640  1.0000
  C   C34       1.0  0.01796  0.22080  0.00951  1.0000
  C   C35       1.0  0.09440  0.12194  0.00227  1.0000
  C   C36       1.0  0.05753  0.22703  0.01861  1.0000
  H   H37       1.0  0.06232  0.21295  0.02051  1.0000
  C   C37       1.0  0.13361  0.11030  0.07485  1.0000
  C   C38       1.0  0.16090  0.11460  0.07844  1.0000
  C   C39       1.0  0.07626  0.20154  0.16512  1.0000
  C   C40       1.0  0.11343  0.00822  0.22291  1.0000
  C   C41       1.0  0.00579  0.02984  0.23476  1.0000
  C   C42       1.0  0.00748  0.04015  0.27965  1.0000
  C   C43       1.0  0.27376  0.01279  0.97781  1.0000
  H   H38       1.0  0.23304  0.03726  0.07177  1.0000
  H   H39       1.0  0.00416  0.17970  0.17770  1.0000
  C   C44       1.0  0.26237  0.00397  0.99165  1.0000
  H   H40       1.0  0.38661  0.99069  0.14897  1.0000
  C   C45       1.0  0.15802  0.13563  0.03231  1.0000
  C   C46       1.0  0.16104  0.08864  0.06910  1.0000
  C   C47       1.0  0.22263  0.07604  0.04340  1.0000
  C   C48       1.0  0.02215  0.03341  0.26749  1.0000
  C   C49       1.0  0.01684  0.02061  0.22222  1.0000
  C   C50       1.0  0.33672  0.02353  0.03033  1.0000
  S   S12       1.0  0.33138  0.00897  0.08265  1.0000
  H   H41       1.0  0.25098  0.05587  0.01879  1.0000
  C   C51       1.0  0.37866  0.99507  0.08615  1.0000
  H   H42       1.0  0.07709  0.03970  0.24897  1.0000
  C   C52       1.0  0.40604  0.99903  0.08989  1.0000
  H   H43       1.0  0.06547  0.01385  0.26891  1.0000
  H   H44       1.0  0.08193  0.14780  0.99024  1.0000
  C   C53       1.0  0.10231  0.02132  0.24819  1.0000
  C   C54       1.0  0.07719  0.14584  0.12780  1.0000
  H   H45       1.0  0.03409  0.17485  0.15895  1.0000
  H   H46       1.0  0.15220  0.14119  0.04369  1.0000
  C   C55       1.0  0.01374  0.06924  0.26708  1.0000
  H   H47       1.0  0.13884  0.02135  0.09723  1.0000
  H   H48       1.0  0.09785  0.99029  0.16688  1.0000
  C   C56       1.0  0.40088  0.09124  0.98211  1.0000
  C   C57       1.0  0.09635  0.20696  0.13696  1.0000
  H   H49       1.0  0.22885  0.03539  0.01293  1.0000
  H   H50       1.0  0.20110  0.03944  0.07690  1.0000
  C   C58       1.0  0.03055  0.17235  0.04932  1.0000
  H   H51       1.0  0.03543  0.07120  0.24465  1.0000
  C   C59       1.0  0.39714  0.99316  0.08076  1.0000
  H   H52       1.0  0.25546  0.11178  0.00809  1.0000
  Fe  Fe5       1.0  0.01545  0.19273  0.08299  1.0000
  H   H53       1.0  0.03982  0.14689  0.11527  1.0000
  H   H54       1.0  0.49109  0.02871  0.03699  1.0000
  H   H55       1.0  0.31431  0.03174  0.99537  1.0000
  H   H56       1.0  0.48852  0.06078  0.02691  1.0000
  C   C60       1.0  0.26935  0.03778  0.00389  1.0000
  C   C61       1.0  0.04925  0.15137  0.11933  1.0000
  C   C62       1.0  0.05694  0.21820  0.07601  1.0000
  H   H57       1.0  0.10170  0.20767  0.16116  1.0000
  H   H58       1.0  0.34652  0.05658  0.04449  1.0000
  C   C63       1.0  0.45966  0.99029  0.05373  1.0000
  C   C64       1.0  0.15270  0.99004  0.22988  1.0000
  C   C65       1.0  0.43122  0.07469  0.97798  1.0000
  H   H59       1.0  0.25882  0.03433  0.00067  1.0000
  C   C66       1.0  0.15289  0.01683  0.27913  1.0000
  H   H60       1.0  0.02088  0.16907  0.02869  1.0000
  C   C67       1.0  0.20738  0.00151  0.05075  1.0000
  C   C68       1.0  0.29611  0.09346  0.98632  1.0000
  C   C69       1.0  0.11090  0.18574  0.01473  1.0000
  C   C70       1.0  0.12506  0.17205  0.00992  1.0000
  C   C71       1.0  0.13882  0.17601  0.99556  1.0000
  P   P1        1.0  0.12530  0.14971  0.02209  1.0000
  C   C72       1.0  0.14808  0.13744  0.01999  1.0000
  C   C73       1.0  0.11410  0.15103  0.04439  1.0000
  C   C74       1.0  0.11893  0.16135  0.05282  1.0000
  C   C75       1.0  0.10874  0.16465  0.06899  1.0000
  C   C76       1.0  0.09353  0.15785  0.07679  1.0000
  C   C77       1.0  0.08864  0.14753  0.06857  1.0000
  C   C78       1.0  0.09884  0.14413  0.05246  1.0000
  C   C79       1.0  0.15624  0.13003  0.00531  1.0000
  Fe  Fe6       1.0  0.48621  0.99561  0.13579  1.0000
  H   H61       1.0  0.08934  0.13688  0.13060  1.0000
  H   H62       1.0  0.08315  0.16754  0.13346  1.0000
  S   S13       1.0  0.22737  0.00215  0.07294  1.0000
  C   C80       1.0  0.11365  0.13899  0.01363  1.0000
  H   H63       1.0  0.17817  0.05804  0.09897  1.0000
  H   H64       1.0  0.23855  0.02579  0.04106  1.0000
  H   H65       1.0  0.18405  0.09429  0.07356  1.0000
  C   C81       1.0  0.10681  0.11211  0.01229  1.0000
  C   C82       1.0  0.11627  0.12060  0.01811  1.0000
  H   H66       1.0  0.02554  0.01961  0.26739  1.0000
  C   C83       1.0  0.00127  0.21962  0.14969  1.0000
  C   C84       1.0  0.30045  0.03654  0.00082  1.0000
  H   H67       1.0  0.35494  0.00523  0.10374  1.0000
  C   C85       1.0  0.29492  0.99487  0.05158  1.0000
  H   H68       1.0  0.13010  0.16754  0.04649  1.0000
  H   H69       1.0  0.11225  0.17302  0.07517  1.0000
  H   H70       1.0  0.08514  0.16102  0.08892  1.0000
  H   H71       1.0  0.07641  0.14291  0.07431  1.0000
  H   H72       1.0  0.09418  0.13683  0.04605  1.0000
  H   H73       1.0  0.14895  0.13144  0.99550  1.0000
  H   H74       1.0  0.01146  0.16076  0.99424  1.0000
  C   C86       1.0  0.12472  0.20694  0.99158  1.0000
  H   H75       1.0  0.48579  0.99154  0.18835  1.0000
  H   H76       1.0  0.31278  0.00220  0.01042  1.0000
  C   C87       1.0  0.14185  0.01188  0.25642  1.0000
  H   H77       1.0  0.44334  0.10248  0.05244  1.0000
  C   C88       1.0  0.41651  0.99473  0.02634  1.0000
  S   S14       1.0  0.06366  0.99304  0.21902  1.0000
  H   H78       1.0  0.12557  0.11285  0.02616  1.0000
  C   C89       1.0  0.46408  0.04088  0.01330  1.0000
  C   C90       1.0  0.45938  0.03266  0.00290  1.0000
  C   C91       1.0  0.44178  0.03143  0.00571  1.0000
  C   C92       1.0  0.42887  0.03833  0.01899  1.0000
  C   C93       1.0  0.43345  0.04694  0.02929  1.0000
  C   C94       1.0  0.45117  0.04800  0.02642  1.0000
  P   P2        1.0  0.41705  0.05693  0.04591  1.0000
  C   C95       1.0  0.39488  0.05607  0.04536  1.0000
  C   C96       1.0  0.38393  0.04757  0.06010  1.0000
  C   C97       1.0  0.36659  0.04768  0.05974  1.0000
  C   C98       1.0  0.36000  0.05631  0.04474  1.0000
  C   C99       1.0  0.37097  0.06422  0.02989  1.0000
  C   C100      1.0  0.38845  0.06361  0.03001  1.0000
  C   C101      1.0  0.41975  0.07930  0.04187  1.0000
  C   C102      1.0  0.41089  0.09317  0.03053  1.0000
  C   C103      1.0  0.41366  0.11014  0.02724  1.0000
  C   C104      1.0  0.42533  0.11349  0.03512  1.0000
  H   H79       1.0  0.47761  0.04234  0.01075  1.0000
  H   H80       1.0  0.46932  0.02768  0.99240  1.0000
  H   H81       1.0  0.43798  0.02579  0.99713  1.0000
  H   H82       1.0  0.41535  0.03729  0.02075  1.0000
  H   H83       1.0  0.45493  0.05468  0.03412  1.0000
  H   H84       1.0  0.38867  0.04066  0.07185  1.0000
  C   C105      1.0  0.42816  0.03107  0.10081  1.0000
  C   C106      1.0  0.16961  0.05011  0.09837  1.0000
  H   H85       1.0  0.36605  0.07073  0.01814  1.0000
  H   H86       1.0  0.39700  0.06881  0.01798  1.0000
  H   H87       1.0  0.40215  0.09120  0.02377  1.0000
  H   H88       1.0  0.40717  0.12061  0.01807  1.0000
  H   H89       1.0  0.42784  0.12655  0.03212  1.0000
  H   H90       1.0  0.30050  0.02070  0.04274  1.0000
  H   H91       1.0  0.02576  0.02749  0.30544  1.0000
  H   H92       1.0  0.09936  0.16286  0.99943  1.0000
  H   H93       1.0  0.09655  0.01585  0.20449  1.0000
  C   C107      1.0  0.12046  0.98867  0.14528  1.0000
  C   C108      1.0  0.06502  0.13991  0.12274  1.0000
  H   H94       1.0  0.47658  0.06586  0.08013  1.0000
  H   H95       1.0  0.15527  0.04327  0.27642  1.0000
  S   S15       1.0  0.43216  0.12232  0.98368  1.0000
  S   S16       1.0  0.23680  0.09493  0.99533  1.0000
  C   C109      1.0  0.27879  0.01934  0.06515  1.0000
  C   C110      1.0  0.14736  0.02951  0.09747  1.0000
  Fe  Fe7       1.0  0.21362  0.98367  0.09504  1.0000
  C   C111      1.0  0.16710  0.04849  0.02444  1.0000
  C   C112      1.0  0.06145  0.17706  0.02395  1.0000
  C   C113      1.0  0.22835  0.02049  0.03935  1.0000
  H   H96       1.0  0.01167  0.14569  0.14797  1.0000
  C   C114      1.0  0.16477  0.05168  0.08265  1.0000
  Fe  Fe8       1.0  0.48233  0.99649  0.09968  1.0000
  C   C115      1.0  0.11552  0.00978  0.23890  1.0000
  H   H97       1.0  0.32637  0.03602  0.05230  1.0000
  C   C116      1.0  0.20432  0.07753  0.04646  1.0000
  C   C117      1.0  0.15615  0.07992  0.01745  1.0000
  C   C118      1.0  0.04555  0.16870  0.12111  1.0000
  H   H98       1.0  0.14820  0.01827  0.12450  1.0000
  S   S17       1.0  0.35025  0.00725  0.00269  1.0000
  C   C119      1.0  0.02515  0.18750  0.15631  1.0000
  C   C120      1.0  0.17005  0.09873  0.07356  1.0000
  H   H99       1.0  0.04305  0.03925  0.24522  1.0000
  C   C121      1.0  0.27041  0.99122  0.07644  1.0000
  H   H100      1.0  0.08686  0.11544  0.99793  1.0000
  C   C122      1.0  0.22047  0.00841  0.05310  1.0000
  C   C123      1.0  0.26482  0.05005  0.01431  1.0000
  H   H101      1.0  0.13560  0.13261  0.08296  1.0000
  C   C124      1.0  0.25974  0.09418  0.99119  1.0000
  H   H102      1.0  0.07128  0.17979  0.04495  1.0000
  C   C125      1.0  0.48572  0.02906  0.06415  1.0000
  H   H103      1.0  0.37874  0.01173  0.05342  1.0000
  C   C126      1.0  0.99987  0.15430  0.15363  1.0000
  H   H104      1.0  0.44934  0.01264  0.08836  1.0000
  H   H105      1.0  0.37081  0.01540  0.11964  1.0000
  H   H106      1.0  0.37195  0.02864  0.02535  1.0000
  C   C127      1.0  0.43528  0.03164  0.06985  1.0000
  C   C128      1.0  0.09822  0.01756  0.21662  1.0000
  H   H107      1.0  0.33328  0.03543  0.02093  1.0000
  H   H108      1.0  0.15711  0.06259  0.00133  1.0000
  H   H109      1.0  0.43048  0.02498  0.11381  1.0000
  C   C129      1.0  0.43705  0.08931  0.97824  1.0000
  C   C130      1.0  0.03190  0.17142  0.03215  1.0000
  H   H110      1.0  0.13609  0.03478  0.23599  1.0000
  C   C131      1.0  0.02794  0.06248  0.25465  1.0000
  H   H111      1.0  0.40060  0.06511  0.08001  1.0000
  C   C132      1.0  0.14556  0.04091  0.25526  1.0000
  C   C133      1.0  0.20672  0.05010  0.06793  1.0000
  S   S18       1.0  0.03060  0.01613  0.18883  1.0000
  C   C134      1.0  0.43860  0.02401  0.08653  1.0000
  C   C135      1.0  0.38445  0.01928  0.02567  1.0000
  C   C136      1.0  0.39654  0.00699  0.10385  1.0000
  H   H112      1.0  0.14954  0.16576  0.99101  1.0000
  C   C137      1.0  0.14270  0.12039  0.07907  1.0000
  H   H113      1.0  0.09995  0.21358  0.00954  1.0000
  C   C138      1.0  0.38847  0.00963  0.04165  1.0000
  S   S19       1.0  0.08610  0.20130  0.97853  1.0000
  C   C139      1.0  0.23292  0.06175  0.05284  1.0000
  C   C140      1.0  0.42484  0.10479  0.98111  1.0000
  H   H114      1.0  0.16792  0.12231  0.08191  1.0000
  C   C141      1.0  0.37813  0.00935  0.10872  1.0000
  C   C142      1.0  0.08512  0.02889  0.22600  1.0000
  P   P3        1.0  0.05245  0.19723  0.12854  1.0000
  H   H115      1.0  0.15785  0.09417  0.03514  1.0000
  C   C143      1.0  0.05385  0.21233  0.10745  1.0000
  H   H116      1.0  0.06772  0.12641  0.12156  1.0000
  S   S20       1.0  0.07375  0.00558  0.30262  1.0000
  C   C144      1.0  0.00322  0.21150  0.99250  1.0000
  H   H117      1.0  0.08754  0.20550  0.11499  1.0000
  H   H118      1.0  0.17027  0.03587  0.02099  1.0000
  C   C145      1.0  0.03039  0.20092  0.14224  1.0000
  H   H119      1.0  0.14867  0.04292  0.07076  1.0000
  C   C146      1.0  0.01835  0.02843  0.20449  1.0000
  C   C147      1.0  0.26786  0.00874  0.07721  1.0000
  Fe  Fe9       1.0  0.35439  0.03334  0.98581  1.0000
  C   C148      1.0  0.09166  0.14021  0.99788  1.0000
  C   C149      1.0  0.29590  0.04885  0.01124  1.0000
  H   H120      1.0  0.27459  0.06570  0.02541  1.0000
  H   H121      1.0  0.18016  0.11548  0.99147  1.0000
  C   C150      1.0  0.19615  0.06485  0.05912  1.0000
  C   C151      1.0  0.06036  0.17737  0.04135  1.0000
  C   C152      1.0  0.15263  0.02774  0.11290  1.0000
  C   C153      1.0  0.10141  0.14873  0.00331  1.0000
  C   C154      1.0  0.22305  0.02578  0.02339  1.0000
  C   C155      1.0  0.21045  0.01843  0.02086  1.0000
  Fe  Fe10      1.0  0.45299  0.98754  0.13127  1.0000
  C   C156      1.0  0.14270  0.09441  0.07003  1.0000
  P   P4        1.0  0.17233  0.06769  0.06364  1.0000
  H   H122      1.0  0.17759  0.03809  0.04761  1.0000
  C   C157      1.0  0.29218  0.01244  0.05223  1.0000
  C   C158      1.0  0.08727  0.03094  0.24166  1.0000
  C   C159      1.0  0.22499  0.04873  0.06497  1.0000
  H   H123      1.0  0.27685  0.03290  0.06576  1.0000
  C   C160      1.0  0.16370  0.03807  0.11338  1.0000
  C   C161      1.0  0.34476  0.00778  0.02488  1.0000
  H   H124      1.0  0.42149  0.00237  0.99820  1.0000
  C   C162      1.0  0.15959  0.06353  0.01340  1.0000
  C   C163      1.0  0.00942  0.04580  0.19938  1.0000
  C   C164      1.0  0.27809  0.05560  0.01800  1.0000
  C   C165      1.0  0.00821  0.19024  0.16708  1.0000
  C   C166      1.0  0.17118  0.04980  0.03954  1.0000
  S   S21       1.0  0.04831  0.17254  0.99806  1.0000
  C   C167      1.0  0.16717  0.06614  0.04403  1.0000
  C   C168      1.0  0.07361  0.16326  0.12942  1.0000
  H   H125      1.0  0.15108  0.09161  0.00843  1.0000
  H   H126      1.0  0.07328  0.03599  0.22112  1.0000
  P   P5        1.0  0.29321  0.01667  0.98179  1.0000
  H   H127      1.0  0.47993  0.03362  0.09009  1.0000
  H   H128      1.0  0.05840  0.21346  0.06442  1.0000
  C   C169      1.0  0.33657  0.00834  0.06047  1.0000
  C   C170      1.0  0.16677  0.99870  0.22190  1.0000
  H   H129      1.0  0.28720  0.11153  0.00345  1.0000
  C   C171      1.0  0.04725  0.17389  0.01940  1.0000
  S   S22       1.0  0.04279  0.17661  0.07544  1.0000
  Fe  Fe11      1.0  0.49023  0.08139  0.98433  1.0000
  H   H130      1.0  0.16783  0.03656  0.12536  1.0000
  H   H131      1.0  0.25720  0.01409  0.08704  1.0000
  C   C172      1.0  0.39636  0.01668  0.01008  1.0000
  H   H132      1.0  0.16768  0.00974  0.22629  1.0000
  C   C173      1.0  0.15159  0.03452  0.27081  1.0000
  C   C174      1.0  0.36921  0.00342  0.09987  1.0000
  H   H133      1.0  0.09984  0.18303  0.02540  1.0000
  H   H134      1.0  0.05484  0.99729  0.25400  1.0000
  H   H135      1.0  0.43532  0.00506  0.04630  1.0000
  H   H136      1.0  0.07314  0.20049  0.17911  1.0000
  C   C175      1.0  0.26522  0.10390  0.99962  1.0000
  C   C176      1.0  0.28323  0.10370  0.99705  1.0000
  H   H137      1.0  0.01031  0.08318  0.26679  1.0000
  H   H138      1.0  0.39723  0.11787  0.98470  1.0000
  C   C177      1.0  0.06215  0.00141  0.27579  1.0000
  C   C178      1.0  0.14074  0.02964  0.24806  1.0000
  H   H139      1.0  0.24711  0.06053  0.05046  1.0000
  H   H140      1.0  0.02372  0.00724  0.22633  1.0000
  H   H141      1.0  0.19778  0.11297  0.01285  1.0000
  C   C179      1.0  0.06797  0.20044  0.13905  1.0000
  S   S23       1.0  0.20016  0.07371  0.99484  1.0000
  C   C180      1.0  0.00360  0.05813  0.27959  1.0000
  C   C181      1.0  0.11088  0.20311  0.00574  1.0000
  C   C182      1.0  0.40463  0.99736  0.04214  1.0000
  H   H142      1.0  0.39317  0.02423  0.99777  1.0000
  H   H143      1.0  0.01083  0.05196  0.18567  1.0000
  P   P6        1.0  0.13509  0.99755  0.24729  1.0000
  S   S24       1.0  0.40654  0.05627  0.98104  1.0000
  C   C183      1.0  0.17586  0.12675  0.02980  1.0000
  C   C184      1.0  0.30662  0.99541  0.98924  1.0000
  H   H144      1.0  0.01202  0.07698  0.30140  1.0000
  C   C185      1.0  0.05284  0.23018  0.10614  1.0000
  H   H145      1.0  0.03322  0.17739  0.11845  1.0000
  H   H146      1.0  0.09575  0.03150  0.29399  1.0000
  C   C186      1.0  0.01829  0.21699  0.13903  1.0000
  H   H147      1.0  0.10435  0.99338  0.27646  1.0000
  H   H148      1.0  0.05762  0.19272  0.09263  1.0000
  S   S25       1.0  0.00567  0.21367  0.06134  1.0000
  C   C187      1.0  0.05635  0.20639  0.09217  1.0000
  H   H149      1.0  0.38689  0.09196  0.98376  1.0000
  H   H150      1.0  0.42031  0.99729  0.08658  1.0000
  Fe  Fe12      1.0  0.04716  0.99143  0.20169  1.0000
  H   H151      1.0  0.10880  0.21016  0.12911  1.0000
  H   H152      1.0  0.05172  0.19591  0.16531  1.0000
  C   C188      1.0  0.06410  0.19896  0.15720  1.0000
  C   C189      1.0  0.05608  0.99204  0.26737  1.0000
  S   S26       1.0  0.99998  0.12874  0.18363  1.0000
  S   S27       1.0  0.31845  0.09479  0.98295  1.0000
  H   H153      1.0  0.02177  0.22739  0.12815  1.0000
  C   C190      1.0  0.41315  0.07551  0.98008  1.0000
  C   C191      1.0  0.13867  0.19340  0.98651  1.0000
  H   H154      1.0  0.14908  0.99190  0.27872  1.0000
  H   H155      1.0  0.01367  0.99221  0.28493  1.0000
  C   C192      1.0  0.14805  0.00553  0.27198  1.0000
  C   C193      1.0  0.99669  0.04711  0.22977  1.0000
  C   C194      1.0  0.24694  0.00135  0.98901  1.0000
  C   C195      1.0  0.99866  0.05521  0.21203  1.0000
  C   C196      1.0  0.09430  0.03538  0.30607  1.0000
  H   H156      1.0  0.01192  0.13549  0.01920  1.0000
  C   C197      1.0  0.27253  0.08408  0.98016  1.0000
  H   H157      1.0  0.12447  0.22034  0.98430  1.0000
  C   C198      1.0  0.28425  0.98402  0.06388  1.0000
  C   C199      1.0  0.00240  0.16221  0.00658  1.0000
  H   H158      1.0  0.12135  0.02360  0.30806  1.0000
  H   H159      1.0  0.20678  0.98607  0.00642  1.0000
  C   C200      1.0  0.00274  0.14781  0.02076  1.0000
  C   C201      1.0  0.29077  0.08354  0.97787  1.0000
  H   H160      1.0  0.99620  0.14018  0.28674  1.0000
  C   C202      1.0  0.11213  0.98780  0.16298  1.0000
  C   C203      1.0  0.99865  0.98668  0.26995  1.0000
  Fe  Fe13      1.0  0.22592  0.08178  0.98093  1.0000
  H   H161      1.0  0.07472  0.23262  0.99314  1.0000
  C   C204      1.0  0.99625  0.20628  0.16375  1.0000
  C   C205      1.0  0.00923  0.22399  0.97780  1.0000
  C   C206      1.0  0.02369  0.23331  0.99489  1.0000
  Fe  Fe14      1.0  0.34099  0.07250  0.97594  1.0000
  Fe  Fe15      1.0  0.06699  0.18674  0.97656  1.0000
  H   H162      1.0  0.44083  0.06270  0.97612  1.0000
  H   H163      1.0  0.09756  0.15401  0.52804  1.0000
  H   H164      1.0  0.02899  0.12533  0.32875  1.0000
  H   H165      1.0  0.04709  0.13390  0.53955  1.0000
  C   C207      1.0  0.04119  0.11536  0.32848  1.0000
  H   H166      1.0  0.17400  0.00270  0.55036  1.0000
  H   H167      1.0  0.11847  0.00431  0.57157  1.0000
  Fe  Fe16      1.0  0.08557  0.01774  0.48665  1.0000
  S   S28       1.0  0.11449  0.01374  0.47397  1.0000
  S   S29       1.0  0.06795  0.04392  0.47970  1.0000
  H   H168      1.0  0.05986  0.08090  0.47205  1.0000
  C   C208      1.0  0.04463  0.00599  0.63529  1.0000
  H   H169      1.0  0.04130  0.00885  0.32831  1.0000
  H   H170      1.0  0.09177  0.02320  0.40460  1.0000
  C   C209      1.0  0.02132  0.01573  0.31323  1.0000
  P   P7        1.0  0.04612  0.11030  0.49004  1.0000
  H   H171      1.0  0.08395  0.08453  0.51032  1.0000
  C   C210      1.0  0.05459  0.03206  0.57596  1.0000
  C   C211      1.0  0.00753  0.14060  0.56598  1.0000
  C   C212      1.0  0.02528  0.98960  0.33611  1.0000
  H   H172      1.0  0.05459  0.04309  0.59731  1.0000
  H   H173      1.0  0.00216  0.16288  0.52523  1.0000
  H   H174      1.0  0.02608  0.01140  0.48314  1.0000
  C   C213      1.0  0.10669  0.03547  0.32983  1.0000
  H   H175      1.0  0.00936  0.01692  0.37748  1.0000
  H   H176      1.0  0.09438  0.06101  0.49348  1.0000
  H   H177      1.0  0.04843  0.06546  0.44184  1.0000
  C   C214      1.0  0.04250  0.13617  0.61546  1.0000
  C   C215      1.0  0.09833  0.11301  0.52415  1.0000
  C   C216      1.0  0.04879  0.14385  0.48993  1.0000
  C   C217      1.0  0.10061  0.13351  0.49592  1.0000
  H   H178      1.0  0.10101  0.01074  0.43302  1.0000
  H   H179      1.0  0.03171  0.03607  0.35341  1.0000
  C   C218      1.0  0.02464  0.03419  0.45012  1.0000
  Fe  Fe17      1.0  0.12820  0.00881  0.60622  1.0000
  S   S30       1.0  0.09983  0.01263  0.60567  1.0000
  S   S31       1.0  0.15021  0.00575  0.58255  1.0000
  H   H180      1.0  0.07165  0.99353  0.56844  1.0000
  H   H181      1.0  0.00303  0.03068  0.57017  1.0000
  C   C219      1.0  0.09027  0.04456  0.33769  1.0000
  C   C220      1.0  0.03161  0.01885  0.60982  1.0000
  Fe  Fe18      1.0  0.09477  0.03193  0.62240  1.0000
  S   S32       1.0  0.07848  0.05927  0.61580  1.0000
  C   C221      1.0  0.05318  0.03394  0.39010  1.0000
  S   S33       1.0  0.12353  0.02977  0.62112  1.0000
  H   H182      1.0  0.07783  0.09410  0.62716  1.0000
  C   C222      1.0  0.07004  0.08830  0.46880  1.0000
  H   H183      1.0  0.04023  0.99171  0.41568  1.0000
  S   S34       1.0  0.00458  0.11993  0.63344  1.0000
  H   H184      1.0  0.03709  0.09956  0.46209  1.0000
  H   H185      1.0  0.02897  0.07873  0.36652  1.0000
  C   C223      1.0  0.11606  0.07514  0.58248  1.0000
  H   H186      1.0  0.04868  0.14697  0.47616  1.0000
  S   S35       1.0  0.01391  0.14337  0.58381  1.0000
  H   H187      1.0  0.10113  0.10639  0.49939  1.0000
  C   C224      1.0  0.07321  0.10717  0.32299  1.0000
  P   P8        1.0  0.03390  0.02489  0.58633  1.0000
  C   C225      1.0  0.07416  0.09204  0.54962  1.0000
  H   H188      1.0  0.08885  0.02932  0.54018  1.0000
  C   C226      1.0  0.04253  0.12836  0.63302  1.0000
  H   H189      1.0  0.02311  0.05902  0.59542  1.0000
  C   C227      1.0  0.05533  0.06224  0.62253  1.0000
  C   C228      1.0  0.04726  0.04973  0.63544  1.0000
  C   C229      1.0  0.00682  0.05536  0.32296  1.0000
  Fe  Fe19      1.0  0.09470  0.99190  0.35956  1.0000
  C   C230      1.0  0.02632  0.08103  0.62051  1.0000
  C   C231      1.0  0.04482  0.07777  0.61498  1.0000
  C   C232      1.0  0.05506  0.11295  0.63767  1.0000
  C   C233      1.0  0.04569  0.05276  0.44325  1.0000
  H   H190      1.0  0.01835  0.09299  0.61442  1.0000
  H   H191      1.0  0.05100  0.08739  0.60494  1.0000
  C   C234      1.0  0.03334  0.00740  0.56138  1.0000
  C   C235      1.0  0.02763  0.04506  0.34198  1.0000
  H   H192      1.0  0.99728  0.08351  0.59217  1.0000
  C   C236      1.0  0.03682  0.05829  0.33220  1.0000
  C   C237      1.0  0.08353  0.98358  0.56971  1.0000
  C   C238      1.0  0.03425  0.00578  0.57871  1.0000
  H   H193      1.0  0.14189  0.07475  0.58560  1.0000
  H   H194      1.0  0.05817  0.13388  0.31940  1.0000
  C   C239      1.0  0.11657  0.98369  0.39692  1.0000
  C   C240      1.0  0.02964  0.98867  0.50377  1.0000
  C   C241      1.0  0.01299  0.01742  0.63909  1.0000
  C   C242      1.0  0.01258  0.04374  0.33744  1.0000
  C   C243      1.0  0.02869  0.05315  0.64122  1.0000
  C   C244      1.0  0.00672  0.01123  0.31069  1.0000
  H   H195      1.0  0.03241  0.14772  0.61202  1.0000
  H   H196      1.0  0.08901  0.04806  0.34992  1.0000
  P   P9        1.0  0.05465  0.06159  0.33953  1.0000
  C   C245      1.0  0.01822  0.06896  0.63398  1.0000
  C   C246      1.0  0.04042  0.09766  0.33341  1.0000
  H   H197      1.0  0.03705  0.04161  0.41373  1.0000
  C   C247      1.0  0.04810  0.13651  0.52560  1.0000
  Fe  Fe20      1.0  0.11082  0.98911  0.46947  1.0000
  C   C248      1.0  0.14265  0.00099  0.53051  1.0000
  C   C249      1.0  0.12788  0.00206  0.54455  1.0000
  C   C250      1.0  0.12981  0.00349  0.56078  1.0000
  C   C251      1.0  0.14649  0.00382  0.56289  1.0000
  C   C252      1.0  0.16109  0.00254  0.54886  1.0000
  C   C253      1.0  0.13316  0.07833  0.57657  1.0000
  H   H198      1.0  0.09990  0.16017  0.49609  1.0000
  H   H199      1.0  0.06730  0.01090  0.44147  1.0000
  C   C254      1.0  0.00837  0.15365  0.55067  1.0000
  C   C255      1.0  0.10005  0.11657  0.50597  1.0000
  C   C256      1.0  0.04595  0.04389  0.49087  1.0000
  C   C257      1.0  0.04184  0.03044  0.50531  1.0000
  C   C258      1.0  0.02459  0.03211  0.51574  1.0000
  C   C259      1.0  0.01150  0.04704  0.51164  1.0000
  C   C260      1.0  0.01525  0.05951  0.49627  1.0000
  C   C261      1.0  0.03250  0.05812  0.48607  1.0000
  H   H200      1.0  0.05208  0.01919  0.50885  1.0000
  H   H201      1.0  0.02144  0.02220  0.52730  1.0000
  H   H202      1.0  0.00494  0.07033  0.49230  1.0000
  H   H203      1.0  0.03542  0.06825  0.47463  1.0000
  C   C262      1.0  0.04761  0.12331  0.51793  1.0000
  H   H204      1.0  0.00301  0.02830  0.61578  1.0000
  C   C263      1.0  0.09818  0.14357  0.52187  1.0000
  C   C264      1.0  0.06771  0.11361  0.60676  1.0000
  P   P10       1.0  0.09690  0.09136  0.53763  1.0000
  C   C265      1.0  0.00937  0.01260  0.42986  1.0000
  H   H205      1.0  0.04892  0.16360  0.52160  1.0000
  H   H206      1.0  0.07057  0.07030  0.54131  1.0000
  H   H207      1.0  0.00358  0.08355  0.53951  1.0000
  C   C266      1.0  0.02800  0.06481  0.53370  1.0000
  C   C267      1.0  0.01295  0.11700  0.45719  1.0000
  C   C268      1.0  0.10532  0.00317  0.42301  1.0000
  C   C269      1.0  0.10005  0.09121  0.45434  1.0000
  H   H208      1.0  0.07729  0.10764  0.59664  1.0000
  H   H209      1.0  0.15240  0.08821  0.55442  1.0000
  H   H210      1.0  0.05911  0.02345  0.55180  1.0000
  H   H211      1.0  0.11275  0.08649  0.44623  1.0000
  H   H212      1.0  0.12713  0.06051  0.53698  1.0000
  S   S36       1.0  0.09992  0.00988  0.37342  1.0000
  H   H213      1.0  0.08594  0.11085  0.31898  1.0000
  C   C270      1.0  0.04042  0.04531  0.39968  1.0000
  C   C271      1.0  0.04783  0.12691  0.50002  1.0000
  H   H214      1.0  0.05619  0.99990  0.64087  1.0000
  C   C272      1.0  0.08864  0.03925  0.56206  1.0000
  C   C273      1.0  0.11072  0.08684  0.55314  1.0000
  H   H215      1.0  0.01363  0.10792  0.51653  1.0000
  H   H216      1.0  0.02327  0.05401  0.54327  1.0000
  C   C274      1.0  0.11633  0.04792  0.50577  1.0000
  C   C275      1.0  0.02553  0.99071  0.38092  1.0000
  C   C276      1.0  0.11983  0.06115  0.52744  1.0000
  H   H217      1.0  0.11154  0.06915  0.59608  1.0000
  C   C277      1.0  0.08123  0.03238  0.55261  1.0000
  C   C278      1.0  0.09732  0.10613  0.46090  1.0000
  C   C279      1.0  0.10485  0.07936  0.57084  1.0000
  H   H218      1.0  0.05960  0.00761  0.60894  1.0000
  H   H219      1.0  0.03903  0.98699  0.60263  1.0000
  H   H220      1.0  0.01656  0.02295  0.42373  1.0000
  H   H221      1.0  0.09174  0.07659  0.57578  1.0000
  C   C280      1.0  0.06713  0.10316  0.47564  1.0000
  C   C281      1.0  0.01437  0.99935  0.44395  1.0000
  C   C282      1.0  0.05598  0.08449  0.33312  1.0000
  C   C283      1.0  0.03935  0.09230  0.50715  1.0000
  H   H222      1.0  0.06374  0.07295  0.50190  1.0000
  C   C284      1.0  0.03954  0.09233  0.56975  1.0000
  C   C285      1.0  0.10142  0.06118  0.50298  1.0000
  C   C286      1.0  0.03793  0.98887  0.58931  1.0000
  H   H223      1.0  0.08448  0.04894  0.58506  1.0000
  H   H224      1.0  0.04652  0.11054  0.52617  1.0000
  C   C287      1.0  0.06422  0.02899  0.55940  1.0000
  H   H225      1.0  0.01099  0.03278  0.45386  1.0000
  H   H226      1.0  0.05453  0.13460  0.58879  1.0000
  C   C288      1.0  0.10874  0.03095  0.31397  1.0000
  H   H227      1.0  0.13712  0.03764  0.52004  1.0000
  H   H228      1.0  0.01511  0.13972  0.49220  1.0000
  H   H229      1.0  0.11508  0.00179  0.54290  1.0000
  C   C289      1.0  0.04651  0.01056  0.61715  1.0000
  C   C290      1.0  0.07244  0.08942  0.32792  1.0000
  C   C291      1.0  0.01363  0.05826  0.58860  1.0000
  C   C292      1.0  0.04952  0.05536  0.36313  1.0000
  H   H230      1.0  0.22154  0.99851  0.63721  1.0000
  C   C293      1.0  0.04872  0.10430  0.57034  1.0000
  C   C294      1.0  0.09772  0.12664  0.53194  1.0000
  H   H231      1.0  0.01176  0.11030  0.44793  1.0000
  S   S37       1.0  0.08926  0.00423  0.51381  1.0000
  C   C295      1.0  0.10473  0.07452  0.52488  1.0000
  C   C296      1.0  0.08639  0.08232  0.45829  1.0000
  H   H232      1.0  0.07294  0.11319  0.56162  1.0000
  Fe  Fe21      1.0  0.08124  0.99063  0.32831  1.0000
  S   S38       1.0  0.06747  0.99762  0.35418  1.0000
  C   C297      1.0  0.00989  0.00327  0.37854  1.0000
  H   H233      1.0  0.17064  0.00032  0.52209  1.0000
  C   C298      1.0  0.07561  0.04891  0.32993  1.0000
  H   H234      1.0  0.04977  0.17011  0.48986  1.0000
  H   H235      1.0  0.12076  0.03754  0.49854  1.0000
  C   C299      1.0  0.03028  0.00512  0.32616  1.0000
  C   C300      1.0  0.06176  0.04005  0.58478  1.0000
  H   H236      1.0  0.08848  0.07058  0.45344  1.0000
  C   C301      1.0  0.02819  0.05068  0.44789  1.0000
  C   C302      1.0  0.02735  0.11092  0.46537  1.0000
  H   H237      1.0  0.10209  0.04120  0.55723  1.0000
  C   C303      1.0  0.10568  0.00044  0.39387  1.0000
  C   C304      1.0  0.06598  0.10411  0.56044  1.0000
  S   S39       1.0  0.14162  0.99991  0.50954  1.0000
  C   C305      1.0  0.13906  0.08590  0.55901  1.0000
  C   C306      1.0  0.03671  0.99247  0.55459  1.0000
  H   H238      1.0  0.11770  0.03159  0.33631  1.0000
  C   C307      1.0  0.10011  0.01019  0.40693  1.0000
  C   C308      1.0  0.04505  0.06204  0.52325  1.0000
  H   H239      1.0  0.09706  0.12421  0.54580  1.0000
  C   C309      1.0  0.15918  0.00116  0.53283  1.0000
  C   C310      1.0  0.09953  0.14704  0.50388  1.0000
  C   C311      1.0  0.03171  0.06138  0.39110  1.0000
  C   C312      1.0  0.08095  0.11209  0.47148  1.0000
  C   C313      1.0  0.02250  0.09514  0.51823  1.0000
  H   H240      1.0  0.05978  0.02131  0.39672  1.0000
  C   C314      1.0  0.02858  0.11912  0.47794  1.0000
  C   C315      1.0  0.09563  0.07443  0.51249  1.0000
  C   C316      1.0  0.05072  0.07571  0.51004  1.0000
  C   C317      1.0  0.01507  0.13351  0.48210  1.0000
  C   C318      1.0  0.04750  0.08026  0.55912  1.0000
  H   H241      1.0  0.10793  0.11305  0.45777  1.0000
  C   C319      1.0  0.05498  0.12873  0.60234  1.0000
  H   H242      1.0  0.04041  0.07081  0.55894  1.0000
  C   C320      1.0  0.11648  0.98654  0.42591  1.0000
  Fe  Fe22      1.0  0.11806  0.99824  0.50071  1.0000
  C   C321      1.0  0.01683  0.08142  0.53140  1.0000
  H   H243      1.0  0.05364  0.04909  0.52480  1.0000
  H   H244      1.0  0.06690  0.02958  0.36471  1.0000
  H   H245      1.0  0.04248  0.11352  0.57879  1.0000
  H   H246      1.0  0.02635  0.09228  0.57777  1.0000
  C   C322      1.0  0.03621  0.06641  0.37289  1.0000
  H   H247      1.0  0.10197  0.13618  0.48192  1.0000
  C   C323      1.0  0.05746  0.03881  0.37188  1.0000
  C   C324      1.0  0.04901  0.15332  0.51548  1.0000
  C   C325      1.0  0.06471  0.08009  0.54907  1.0000
  C   C326      1.0  0.12789  0.09016  0.54732  1.0000
  C   C327      1.0  0.04943  0.15697  0.49763  1.0000
  H   H248      1.0  0.07924  0.12359  0.47641  1.0000
  C   C328      1.0  0.12555  0.04797  0.51792  1.0000
  C   C329      1.0  0.07872  0.04352  0.57785  1.0000
  H   H249      1.0  0.13277  0.09570  0.53368  1.0000
  H   H250      1.0  0.02124  0.06982  0.39857  1.0000
  C   C330      1.0  0.01560  0.04322  0.58232  1.0000
  Fe  Fe23      1.0  0.09858  0.99227  0.63065  1.0000
  H   H251      1.0  0.08472  0.07968  0.32764  1.0000
  S   S40       1.0  0.12755  0.98720  0.63022  1.0000
  H   H252      1.0  0.05531  0.03769  0.64131  1.0000
  S   S41       1.0  0.08141  0.99454  0.47995  1.0000
  C   C331      1.0  0.05172  0.98482  0.42112  1.0000
  H   H253      1.0  0.01323  0.16509  0.54979  1.0000
  H   H254      1.0  0.03677  0.99378  0.54101  1.0000
  C   C332      1.0  0.05252  0.98556  0.43786  1.0000
  C   C333      1.0  0.02909  0.99719  0.48646  1.0000
  H   H255      1.0  0.03683  0.99477  0.38195  1.0000
  H   H256      1.0  0.02697  0.99631  0.51351  1.0000
  H   H257      1.0  0.08526  0.98863  0.59367  1.0000
  C   C334      1.0  0.01479  0.02207  0.62097  1.0000
  C   C335      1.0  0.05620  0.02188  0.44308  1.0000
  S   S42       1.0  0.10849  0.98789  0.33244  1.0000
  H   H258      1.0  0.02764  0.09421  0.33744  1.0000
  H   H259      1.0  0.07327  0.03984  0.43785  1.0000
  C   C336      1.0  0.00164  0.99565  0.32089  1.0000
  C   C337      1.0  0.00071  0.13957  0.47389  1.0000
  H   H260      1.0  0.00106  0.11545  0.57855  1.0000
  C   C338      1.0  0.03864  0.01970  0.44742  1.0000
  H   H261      1.0  0.00522  0.03382  0.34530  1.0000
  H   H262      1.0  0.01740  0.06185  0.44991  1.0000
  C   C339      1.0  0.05759  0.12014  0.32324  1.0000
  C   C340      1.0  0.06782  0.10577  0.62432  1.0000
  H   H263      1.0  0.03085  0.02021  0.55283  1.0000
  C   C341      1.0  0.07776  0.04422  0.31404  1.0000
  C   C342      1.0  0.01098  0.98484  0.33347  1.0000
  C   C343      1.0  0.00245  0.04226  0.57452  1.0000
  P   P11       1.0  0.03423  0.99822  0.45092  1.0000
  C   C344      1.0  0.05968  0.03835  0.44094  1.0000
  C   C345      1.0  0.00133  0.12576  0.56694  1.0000
  C   C346      1.0  0.03292  0.98740  0.47364  1.0000
  C   C347      1.0  0.00490  0.98592  0.45123  1.0000
  C   C348      1.0  0.00211  0.15239  0.53679  1.0000
  C   C349      1.0  0.03149  0.06932  0.31713  1.0000
  C   C350      1.0  0.01651  0.06788  0.31259  1.0000
  H   H264      1.0  0.00262  0.12573  0.31577  1.0000
  C   C351      1.0  0.99963  0.13131  0.46146  1.0000
  C   C352      1.0  0.99900  0.07220  0.58679  1.0000
  H   H265      1.0  0.03850  0.07943  0.30919  1.0000
  H   H266      1.0  0.37482  0.14045  0.75142  1.0000
  C   C353      1.0  0.12815  0.14524  0.87268  1.0000
  H   H267      1.0  0.21225  0.10064  0.71685  1.0000
  Fe  Fe24      1.0  0.36295  0.01141  0.78038  1.0000
  S   S43       1.0  0.35273  0.02510  0.80269  1.0000
  H   H268      1.0  0.47091  0.07918  0.76822  1.0000
  S   S44       1.0  0.39116  0.00044  0.76879  1.0000
  C   C354      1.0  0.47614  0.08811  0.75653  1.0000
  S   S45       1.0  0.48667  0.08848  0.85402  1.0000
  S   S46       1.0  0.48130  0.13884  0.82807  1.0000
  H   H269      1.0  0.45935  0.03840  0.69295  1.0000
  C   C355      1.0  0.12228  0.09413  0.75833  1.0000
  C   C356      1.0  0.15330  0.00587  0.68720  1.0000
  H   H270      1.0  0.27822  0.02524  0.95016  1.0000
  C   C357      1.0  0.00287  0.08099  0.68036  1.0000
  S   S47       1.0  0.47038  0.07760  0.90436  1.0000
  C   C358      1.0  0.34857  0.06495  0.70769  1.0000
  H   H271      1.0  0.30332  0.98415  0.96955  1.0000
  H   H272      1.0  0.17600  0.04362  0.79995  1.0000
  Fe  Fe25      1.0  0.38311  0.09688  0.82139  1.0000
  S   S48       1.0  0.38344  0.11850  0.79744  1.0000
  S   S49       1.0  0.39757  0.06983  0.81756  1.0000
  Fe  Fe26      1.0  0.36476  0.12188  0.84540  1.0000
  S   S50       1.0  0.36381  0.14563  0.82360  1.0000
  S   S51       1.0  0.35293  0.12443  0.87298  1.0000
  Fe  Fe27      1.0  0.35562  0.12926  0.81051  1.0000
  S   S52       1.0  0.33293  0.14143  0.79692  1.0000
  Fe  Fe28      1.0  0.39173  0.13271  0.81274  1.0000
  S   S53       1.0  0.41259  0.14865  0.80000  1.0000
  S   S54       1.0  0.35442  0.10630  0.83328  1.0000
  S   S55       1.0  0.39347  0.11036  0.83578  1.0000
  P   P12       1.0  0.48390  0.10467  0.77851  1.0000
  C   C359      1.0  0.14282  0.04752  0.70737  1.0000
  C   C360      1.0  0.48138  0.12799  0.77620  1.0000
  C   C361      1.0  0.17739  0.01622  0.65651  1.0000
  H   H273      1.0  0.00082  0.17745  0.70368  1.0000
  H   H274      1.0  0.12102  0.07714  0.73271  1.0000
  C   C362      1.0  0.32200  0.02077  0.95334  1.0000
  C   C363      1.0  0.04471  0.14809  0.68821  1.0000
  Fe  Fe29      1.0  0.36342  0.05280  0.94838  1.0000
  S   S56       1.0  0.36849  0.04934  0.92101  1.0000
  C   C364      1.0  0.32304  0.04763  0.93114  1.0000
  C   C365      1.0  0.16082  0.01421  0.65567  1.0000
  C   C366      1.0  0.43381  0.99707  0.80066  1.0000
  C   C367      1.0  0.30763  0.99652  0.71228  1.0000
  Fe  Fe30      1.0  0.07533  0.19570  0.93699  1.0000
  S   S57       1.0  0.09508  0.21106  0.93544  1.0000
  S   S58       1.0  0.06762  0.19223  0.91398  1.0000
  Fe  Fe31      1.0  0.10431  0.18893  0.95662  1.0000
  S   S59       1.0  0.13389  0.17920  0.95401  1.0000
  H   H275      1.0  0.12501  0.22184  0.91288  1.0000
  H   H276      1.0  0.32605  0.08305  0.71877  1.0000
  S   S60       1.0  0.08596  0.17270  0.95644  1.0000
  S   S61       1.0  0.05480  0.20851  0.95698  1.0000
  H   H277      1.0  0.17735  0.17656  0.89570  1.0000
  S   S62       1.0  0.35518  0.02423  0.75473  1.0000
  Fe  Fe32      1.0  0.13575  0.20730  0.78607  1.0000
  S   S63       1.0  0.11447  0.19729  0.80777  1.0000
  S   S64       1.0  0.14965  0.19365  0.76390  1.0000
  C   C368      1.0  0.28481  0.04830  0.71837  1.0000
  Fe  Fe33      1.0  0.24706  0.00036  0.71174  1.0000
  Fe  Fe34      1.0  0.12604  0.20659  0.82467  1.0000
  S   S65       1.0  0.13311  0.19073  0.84995  1.0000
  H   H278      1.0  0.15744  0.01664  0.64315  1.0000
  S   S66       1.0  0.14877  0.21415  0.80335  1.0000
  C   C369      1.0  0.44883  0.00273  0.84311  1.0000
  H   H279      1.0  0.25074  0.02107  0.94598  1.0000
  Fe  Fe35      1.0  0.22773  0.06967  0.94882  1.0000
  S   S67       1.0  0.21648  0.09587  0.95617  1.0000
  S   S68       1.0  0.24416  0.06640  0.92225  1.0000
  S   S69       1.0  0.16291  0.09701  0.96970  1.0000
  H   H280      1.0  0.14327  0.12095  0.72341  1.0000
  C   C370      1.0  0.30915  0.99652  0.74161  1.0000
  C   C371      1.0  0.10483  0.06031  0.66930  1.0000
  C   C372      1.0  0.28127  0.99633  0.73539  1.0000
  S   S70       1.0  0.20238  0.06035  0.95972  1.0000
  Fe  Fe36      1.0  0.25519  0.09494  0.81119  1.0000
  S   S71       1.0  0.23844  0.07802  0.83186  1.0000
  S   S72       1.0  0.28453  0.08785  0.80945  1.0000
  Fe  Fe37      1.0  0.22434  0.11678  0.79503  1.0000
  S   S73       1.0  0.20483  0.10204  0.81464  1.0000
  S   S74       1.0  0.22007  0.13557  0.76979  1.0000
  Fe  Fe38      1.0  0.21912  0.10348  0.83421  1.0000
  S   S75       1.0  0.20484  0.10896  0.86083  1.0000
  Fe  Fe39      1.0  0.22587  0.07791  0.81061  1.0000
  S   S76       1.0  0.22056  0.05269  0.80859  1.0000
  S   S77       1.0  0.23681  0.12054  0.81483  1.0000
  S   S78       1.0  0.24445  0.09244  0.78973  1.0000
  H   H281      1.0  0.07525  0.15528  0.93077  1.0000
  C   C373      1.0  0.21799  0.05177  0.78816  1.0000
  C   C374      1.0  0.21575  0.03614  0.78574  1.0000
  C   C375      1.0  0.21287  0.03539  0.76976  1.0000
  C   C376      1.0  0.21217  0.05032  0.75615  1.0000
  C   C377      1.0  0.21496  0.06577  0.75845  1.0000
  C   C378      1.0  0.21783  0.06651  0.77439  1.0000
  H   H282      1.0  0.21597  0.02467  0.79634  1.0000
  C   C379      1.0  0.49430  0.03661  0.89494  1.0000
  H   H283      1.0  0.21976  0.07853  0.77608  1.0000
  C   C380      1.0  0.23331  0.07846  0.90521  1.0000
  C   C381      1.0  0.24239  0.07891  0.88781  1.0000
  C   C382      1.0  0.23385  0.08840  0.87410  1.0000
  C   C383      1.0  0.21611  0.09736  0.87773  1.0000
  C   C384      1.0  0.20716  0.09717  0.89512  1.0000
  C   C385      1.0  0.21569  0.08769  0.90885  1.0000
  H   H284      1.0  0.25608  0.07198  0.88492  1.0000
  H   H285      1.0  0.24109  0.08900  0.86076  1.0000
  H   H286      1.0  0.19361  0.10443  0.89797  1.0000
  H   H287      1.0  0.20867  0.08763  0.92223  1.0000
  C   C386      1.0  0.26833  0.13927  0.76241  1.0000
  H   H288      1.0  0.10303  0.13993  0.84798  1.0000
  H   H289      1.0  0.27304  0.11351  0.77894  1.0000
  C   C387      1.0  0.29731  0.11986  0.76214  1.0000
  H   H290      1.0  0.41836  0.08323  0.78057  1.0000
  H   H291      1.0  0.43621  0.06614  0.71610  1.0000
  C   C388      1.0  0.00005  0.19079  0.96999  1.0000
  C   C389      1.0  0.16894  0.17735  0.76646  1.0000
  C   C390      1.0  0.17392  0.17063  0.78258  1.0000
  C   C391      1.0  0.18932  0.15729  0.78406  1.0000
  C   C392      1.0  0.20003  0.15125  0.76923  1.0000
  C   C393      1.0  0.19508  0.15819  0.75314  1.0000
  C   C394      1.0  0.17945  0.17093  0.75183  1.0000
  H   H292      1.0  0.16598  0.17580  0.79382  1.0000
  H   H293      1.0  0.19315  0.15206  0.79651  1.0000
  H   H294      1.0  0.20332  0.15358  0.74167  1.0000
  H   H295      1.0  0.17567  0.17608  0.73937  1.0000
  C   C395      1.0  0.14206  0.15634  0.95779  1.0000
  C   C396      1.0  0.16040  0.14949  0.95550  1.0000
  C   C397      1.0  0.16710  0.13124  0.95877  1.0000
  C   C398      1.0  0.15541  0.11985  0.96448  1.0000
  C   C399      1.0  0.42242  0.98897  0.79700  1.0000
  C   C400      1.0  0.13049  0.14489  0.96326  1.0000
  C   C401      1.0  0.30506  0.02847  0.96185  1.0000
  H   H296      1.0  0.47251  0.07421  0.73924  1.0000
  C   C402      1.0  0.49191  0.04312  0.82323  1.0000
  C   C403      1.0  0.20019  0.10086  0.71323  1.0000
  C   C404      1.0  0.08586  0.19141  0.89623  1.0000
  C   C405      1.0  0.08325  0.19359  0.87944  1.0000
  C   C406      1.0  0.09768  0.19387  0.86504  1.0000
  C   C407      1.0  0.11479  0.19136  0.86757  1.0000
  C   C408      1.0  0.11746  0.18869  0.88440  1.0000
  C   C409      1.0  0.10299  0.18890  0.89871  1.0000
  C   C410      1.0  0.26975  0.01845  0.96116  1.0000
  H   H297      1.0  0.09561  0.19582  0.85204  1.0000
  H   H298      1.0  0.13071  0.18668  0.88631  1.0000
  H   H299      1.0  0.10515  0.18690  0.91167  1.0000
  H   H300      1.0  0.07366  0.13424  0.95942  1.0000
  C   C411      1.0  0.27951  0.01179  0.82995  1.0000
  H   H301      1.0  0.27188  0.99966  0.81359  1.0000
  H   H302      1.0  0.17642  0.08081  0.93776  1.0000
  H   H303      1.0  0.02171  0.17850  0.92481  1.0000
  C   C412      1.0  0.32021  0.00558  0.83955  1.0000
  C   C413      1.0  0.02630  0.18208  0.94818  1.0000
  H   H304      1.0  0.11757  0.14301  0.73412  1.0000
  H   H305      1.0  0.11520  0.05831  0.71677  1.0000
  H   H306      1.0  0.02999  0.13253  0.71028  1.0000
  C   C414      1.0  0.31893  0.12680  0.80139  1.0000
  C   C415      1.0  0.30093  0.13310  0.80093  1.0000
  C   C416      1.0  0.28986  0.12129  0.80432  1.0000
  C   C417      1.0  0.29702  0.10322  0.80735  1.0000
  C   C418      1.0  0.31496  0.09703  0.80791  1.0000
  C   C419      1.0  0.32577  0.10876  0.80535  1.0000
  H   H307      1.0  0.29552  0.14708  0.79809  1.0000
  H   H308      1.0  0.27596  0.12616  0.80408  1.0000
  H   H309      1.0  0.32056  0.08308  0.81035  1.0000
  H   H310      1.0  0.33956  0.10378  0.80588  1.0000
  C   C420      1.0  0.35636  0.10348  0.88629  1.0000
  C   C421      1.0  0.36496  0.08895  0.87884  1.0000
  C   C422      1.0  0.36839  0.07219  0.88953  1.0000
  C   C423      1.0  0.36297  0.06999  0.90765  1.0000
  C   C424      1.0  0.35357  0.08440  0.91504  1.0000
  C   C425      1.0  0.35049  0.10121  0.90437  1.0000
  H   H311      1.0  0.36919  0.09062  0.86485  1.0000
  H   H312      1.0  0.37548  0.06102  0.88378  1.0000
  H   H313      1.0  0.34864  0.08263  0.92896  1.0000
  H   H314      1.0  0.34360  0.11242  0.91013  1.0000
  C   C426      1.0  0.33612  0.17017  0.75369  1.0000
  H   H315      1.0  0.46142  0.01004  0.91531  1.0000
  H   H316      1.0  0.26933  0.06326  0.85351  1.0000
  C   C427      1.0  0.09084  0.17085  0.79098  1.0000
  C   C428      1.0  0.13713  0.12672  0.96663  1.0000
  C   C429      1.0  0.27897  0.12322  0.76865  1.0000
  H   H317      1.0  0.43599  0.10832  0.75654  1.0000
  H   H318      1.0  0.44004  0.11594  0.72241  1.0000
  C   C430      1.0  0.46103  0.14108  0.82246  1.0000
  C   C431      1.0  0.45389  0.15731  0.81271  1.0000
  C   C432      1.0  0.43852  0.15962  0.80674  1.0000
  C   C433      1.0  0.43011  0.14571  0.81033  1.0000
  C   C434      1.0  0.43654  0.12971  0.82102  1.0000
  C   C435      1.0  0.45212  0.12732  0.82700  1.0000
  H   H319      1.0  0.30526  0.10766  0.76786  1.0000
  H   H320      1.0  0.43343  0.17213  0.79883  1.0000
  H   H321      1.0  0.42976  0.11912  0.82439  1.0000
  H   H322      1.0  0.45734  0.11484  0.83483  1.0000
  C   C436      1.0  0.47857  0.07140  0.92347  1.0000
  H   H323      1.0  0.09941  0.10968  0.96462  1.0000
  C   C437      1.0  0.07901  0.07138  0.65650  1.0000
  C   C438      1.0  0.45215  0.99203  0.79467  1.0000
  C   C439      1.0  0.47916  0.05275  0.95235  1.0000
  C   C440      1.0  0.47299  0.05774  0.93685  1.0000
  C   C441      1.0  0.17011  0.06912  0.78324  1.0000
  C   C442      1.0  0.17577  0.07383  0.91437  1.0000
  H   H324      1.0  0.33805  0.14131  0.95613  1.0000
  H   H325      1.0  0.46391  0.05099  0.93522  1.0000
  C   C443      1.0  0.36557  0.03777  0.80575  1.0000
  C   C444      1.0  0.35692  0.05179  0.81394  1.0000
  C   C445      1.0  0.36665  0.06199  0.81718  1.0000
  C   C446      1.0  0.38516  0.05791  0.81257  1.0000
  C   C447      1.0  0.39389  0.04397  0.80416  1.0000
  C   C448      1.0  0.38408  0.03405  0.80051  1.0000
  H   H326      1.0  0.34261  0.05499  0.81735  1.0000
  H   H327      1.0  0.35982  0.07279  0.82350  1.0000
  H   H328      1.0  0.40822  0.04083  0.80049  1.0000
  H   H329      1.0  0.39081  0.02331  0.79405  1.0000
  C   C449      1.0  0.00191  0.17506  0.69104  1.0000
  C   C450      1.0  0.44340  0.10591  0.71499  1.0000
  C   C451      1.0  0.42259  0.11520  0.75548  1.0000
  H   H330      1.0  0.08141  0.09900  0.68009  1.0000
  C   C452      1.0  0.13347  0.11672  0.73478  1.0000
  H   H331      1.0  0.28421  0.05199  0.96124  1.0000
  H   H332      1.0  0.36190  0.11423  0.71793  1.0000
  C   C453      1.0  0.44893  0.02962  0.85037  1.0000
  H   H333      1.0  0.47763  0.04551  0.82673  1.0000
  C   C454      1.0  0.42245  0.02614  0.72084  1.0000
  C   C455      1.0  0.43382  0.03218  0.70523  1.0000
  C   C456      1.0  0.45082  0.03363  0.70517  1.0000
  H   H334      1.0  0.42946  0.03579  0.69307  1.0000
  C   C457      1.0  0.29101  0.99662  0.74708  1.0000
  C   C458      1.0  0.35564  0.04762  0.70585  1.0000
  H   H335      1.0  0.10098  0.11304  0.87153  1.0000
  H   H336      1.0  0.40093  0.09526  0.71636  1.0000
  H   H337      1.0  0.12003  0.16062  0.84902  1.0000
  C   C459      1.0  0.17507  0.15446  0.88739  1.0000
  H   H338      1.0  0.04156  0.15921  0.69428  1.0000
  C   C460      1.0  0.39743  0.08387  0.72601  1.0000
  C   C461      1.0  0.36214  0.12139  0.95486  1.0000
  C   C462      1.0  0.27267  0.01187  0.81592  1.0000
  H   H339      1.0  0.07488  0.15415  0.81021  1.0000
  C   C463      1.0  0.29474  0.06291  0.89723  1.0000
  C   C464      1.0  0.31299  0.05780  0.89080  1.0000
  C   C465      1.0  0.32357  0.07023  0.88525  1.0000
  C   C466      1.0  0.31591  0.08775  0.88607  1.0000
  C   C467      1.0  0.29756  0.09298  0.89239  1.0000
  C   C468      1.0  0.28707  0.08040  0.89809  1.0000
  P   P13       1.0  0.28789  0.11530  0.89467  1.0000
  C   C469      1.0  0.29025  0.11768  0.91523  1.0000
  C   C470      1.0  0.29946  0.12980  0.87693  1.0000
  C   C471      1.0  0.30374  0.12705  0.85988  1.0000
  C   C472      1.0  0.31255  0.13827  0.84606  1.0000
  C   C473      1.0  0.31735  0.15221  0.84912  1.0000
  C   C474      1.0  0.31333  0.15494  0.86607  1.0000
  C   C475      1.0  0.30440  0.14380  0.87995  1.0000
  C   C476      1.0  0.30439  0.10696  0.92278  1.0000
  C   C477      1.0  0.30655  0.10929  0.93834  1.0000
  C   C478      1.0  0.29461  0.12226  0.94650  1.0000
  C   C479      1.0  0.28052  0.13298  0.93909  1.0000
  C   C480      1.0  0.27842  0.13083  0.92342  1.0000
  C   C481      1.0  0.26469  0.12043  0.89375  1.0000
  C   C482      1.0  0.25933  0.12794  0.87781  1.0000
  C   C483      1.0  0.24141  0.13164  0.87723  1.0000
  C   C484      1.0  0.22869  0.12806  0.89254  1.0000
  C   C485      1.0  0.23388  0.12045  0.90841  1.0000
  C   C486      1.0  0.25181  0.11643  0.90902  1.0000
  H   H340      1.0  0.28644  0.05338  0.90170  1.0000
  H   H341      1.0  0.31895  0.04424  0.89017  1.0000
  H   H342      1.0  0.33775  0.06630  0.88040  1.0000
  H   H343      1.0  0.32434  0.09717  0.88195  1.0000
  H   H344      1.0  0.27297  0.08399  0.90331  1.0000
  H   H345      1.0  0.30016  0.11632  0.85723  1.0000
  H   H346      1.0  0.31580  0.13607  0.83297  1.0000
  H   H347      1.0  0.32443  0.16071  0.83839  1.0000
  H   H348      1.0  0.31753  0.16543  0.86852  1.0000
  H   H349      1.0  0.30169  0.14603  0.89298  1.0000
  H   H350      1.0  0.31390  0.09693  0.91667  1.0000
  H   H351      1.0  0.31747  0.10100  0.94417  1.0000
  H   H352      1.0  0.29629  0.12394  0.95862  1.0000
  H   H353      1.0  0.27124  0.14296  0.94551  1.0000
  H   H354      1.0  0.26764  0.13949  0.91767  1.0000
  H   H355      1.0  0.26882  0.13086  0.86573  1.0000
  H   H356      1.0  0.23739  0.13707  0.86486  1.0000
  H   H357      1.0  0.21483  0.13075  0.89205  1.0000
  H   H358      1.0  0.22402  0.11722  0.92016  1.0000
  H   H359      1.0  0.25558  0.10998  0.92138  1.0000
  C   C487      1.0  0.42891  0.07278  0.77613  1.0000
  C   C488      1.0  0.43749  0.06004  0.78836  1.0000
  C   C489      1.0  0.45035  0.04583  0.78327  1.0000
  C   C490      1.0  0.45470  0.04429  0.76596  1.0000
  C   C491      1.0  0.44632  0.05704  0.75366  1.0000
  H   H360      1.0  0.43390  0.06088  0.80194  1.0000
  H   H361      1.0  0.45679  0.03590  0.79279  1.0000
  H   H362      1.0  0.46451  0.03315  0.76205  1.0000
  H   H363      1.0  0.44987  0.05544  0.74040  1.0000
  C   C492      1.0  0.43720  0.08636  0.87285  1.0000
  C   C493      1.0  0.42102  0.09044  0.86789  1.0000
  C   C494      1.0  0.41348  0.07699  0.86764  1.0000
  C   C495      1.0  0.42208  0.05948  0.87227  1.0000
  C   C496      1.0  0.43832  0.05519  0.87740  1.0000
  C   C497      1.0  0.44583  0.06884  0.87753  1.0000
  P   P14       1.0  0.44927  0.03239  0.88355  1.0000
  C   C498      1.0  0.43774  0.02254  0.90495  1.0000
  C   C499      1.0  0.35549  0.11231  0.69476  1.0000
  H   H364      1.0  0.38668  0.11163  0.74331  1.0000
  C   C500      1.0  0.30638  0.00827  0.85410  1.0000
  C   C501      1.0  0.16962  0.10010  0.70377  1.0000
  C   C502      1.0  0.41967  0.00704  0.93796  1.0000
  C   C503      1.0  0.41030  0.01665  0.92506  1.0000
  C   C504      1.0  0.41925  0.02437  0.90864  1.0000
  C   C505      1.0  0.47230  0.03086  0.88316  1.0000
  H   H365      1.0  0.03198  0.22176  0.76752  1.0000
  H   H366      1.0  0.45375  0.13444  0.77468  1.0000
  C   C506      1.0  0.48482  0.09573  0.72494  1.0000
  H   H367      1.0  0.39329  0.15316  0.76227  1.0000
  H   H368      1.0  0.42364  0.13701  0.76513  1.0000
  H   H369      1.0  0.44308  0.09675  0.87316  1.0000
  H   H370      1.0  0.41436  0.10401  0.86423  1.0000
  H   H371      1.0  0.40101  0.08010  0.86370  1.0000
  H   H372      1.0  0.41610  0.04936  0.87157  1.0000
  H   H373      1.0  0.45841  0.06620  0.88104  1.0000
  H   H374      1.0  0.27294  0.03845  0.70338  1.0000
  C   C507      1.0  0.47667  0.03662  0.89582  1.0000
  C   C508      1.0  0.38827  0.13348  0.75223  1.0000
  H   H375      1.0  0.16944  0.15830  0.95119  1.0000
  H   H376      1.0  0.39598  0.01846  0.92790  1.0000
  H   H377      1.0  0.41156  0.03187  0.89902  1.0000
  C   C509      1.0  0.08478  0.08781  0.67416  1.0000
  H   H378      1.0  0.45676  0.07049  0.68744  1.0000
  C   C510      1.0  0.25865  0.03600  0.73012  1.0000
  C   C511      1.0  0.39869  0.14072  0.75828  1.0000
  H   H379      1.0  0.35380  0.18756  0.73983  1.0000
  C   C512      1.0  0.45576  0.08090  0.82515  1.0000
  C   C513      1.0  0.46939  0.08724  0.81214  1.0000
  H   H380      1.0  0.12805  0.11796  0.97116  1.0000
  C   C514      1.0  0.39500  0.11707  0.74780  1.0000
  H   H381      1.0  0.45827  0.07371  0.83786  1.0000
  H   H382      1.0  0.40608  0.05688  0.76440  1.0000
  C   C515      1.0  0.43669  0.09055  0.72166  1.0000
  C   C516      1.0  0.33633  0.14760  0.73932  1.0000
  C   C517      1.0  0.34022  0.10957  0.75363  1.0000
  C   C518      1.0  0.33975  0.09265  0.75290  1.0000
  C   C519      1.0  0.34889  0.07792  0.76293  1.0000
  C   C520      1.0  0.35916  0.07996  0.77317  1.0000
  C   C521      1.0  0.35988  0.09668  0.77385  1.0000
  C   C522      1.0  0.35019  0.11148  0.76437  1.0000
  H   H383      1.0  0.33224  0.09085  0.74466  1.0000
  H   H384      1.0  0.34819  0.06483  0.76273  1.0000
  H   H385      1.0  0.36667  0.06857  0.78050  1.0000
  H   H386      1.0  0.36762  0.09813  0.78212  1.0000
  H   H387      1.0  0.35049  0.12426  0.76568  1.0000
  C   C523      1.0  0.18636  0.11552  0.76841  1.0000
  C   C524      1.0  0.18183  0.12205  0.75216  1.0000
  C   C525      1.0  0.16413  0.12940  0.75119  1.0000
  C   C526      1.0  0.15101  0.13049  0.76649  1.0000
  C   C527      1.0  0.15563  0.12484  0.78286  1.0000
  C   C528      1.0  0.17334  0.11696  0.78367  1.0000
  P   P15       1.0  0.13900  0.12663  0.80282  1.0000
  C   C529      1.0  0.12012  0.14405  0.79847  1.0000
  C   C530      1.0  0.13179  0.10616  0.81168  1.0000
  C   C531      1.0  0.12566  0.10062  0.82975  1.0000
  C   C532      1.0  0.12028  0.08466  0.83652  1.0000
  C   C533      1.0  0.12081  0.07421  0.82530  1.0000
  C   C534      1.0  0.12648  0.07984  0.80727  1.0000
  C   C535      1.0  0.13178  0.09584  0.80048  1.0000
  C   C536      1.0  0.12261  0.15964  0.78623  1.0000
  C   C537      1.0  0.10803  0.17286  0.78235  1.0000
  C   C538      1.0  0.10280  0.14214  0.80715  1.0000
  C   C539      1.0  0.14887  0.13148  0.81787  1.0000
  C   C540      1.0  0.15821  0.11783  0.82898  1.0000
  C   C541      1.0  0.16634  0.12158  0.84019  1.0000
  C   C542      1.0  0.16571  0.13895  0.84004  1.0000
  C   C543      1.0  0.15663  0.15261  0.82893  1.0000
  C   C544      1.0  0.14811  0.14892  0.81800  1.0000
  H   H388      1.0  0.20010  0.10988  0.76919  1.0000
  H   H389      1.0  0.19210  0.12159  0.74037  1.0000
  H   H390      1.0  0.16065  0.13447  0.73857  1.0000
  H   H391      1.0  0.13736  0.13601  0.76545  1.0000
  H   H392      1.0  0.17722  0.11217  0.79607  1.0000
  H   H393      1.0  0.12511  0.10860  0.83861  1.0000
  H   H394      1.0  0.11579  0.08034  0.85050  1.0000
  H   H395      1.0  0.11680  0.06175  0.83057  1.0000
  H   H396      1.0  0.12694  0.07173  0.79856  1.0000
  H   H397      1.0  0.13593  0.10013  0.78649  1.0000
  H   H398      1.0  0.13584  0.16164  0.77968  1.0000
  H   H399      1.0  0.11016  0.18481  0.77286  1.0000
  H   H400      1.0  0.10045  0.13042  0.81684  1.0000
  H   H401      1.0  0.15964  0.10425  0.82874  1.0000
  H   H402      1.0  0.17363  0.11101  0.84864  1.0000
  H   H403      1.0  0.17242  0.14183  0.84841  1.0000
  H   H404      1.0  0.15619  0.16610  0.82879  1.0000
  H   H405      1.0  0.14127  0.15978  0.80948  1.0000
  H   H406      1.0  0.16391  0.09262  0.76409  1.0000
  C   C545      1.0  0.43893  0.08391  0.82181  1.0000
  C   C546      1.0  0.42414  0.14164  0.86466  1.0000
  C   C547      1.0  0.40935  0.14383  0.85784  1.0000
  C   C548      1.0  0.39424  0.13823  0.86863  1.0000
  C   C549      1.0  0.39380  0.13057  0.88630  1.0000
  C   C550      1.0  0.40842  0.12878  0.89343  1.0000
  C   C551      1.0  0.42371  0.13413  0.88235  1.0000
  P   P16       1.0  0.40753  0.11947  0.91647  1.0000
  C   C552      1.0  0.38564  0.12673  0.92913  1.0000
  C   C553      1.0  0.41193  0.09583  0.92048  1.0000
  C   C554      1.0  0.42166  0.08546  0.93305  1.0000
  C   C555      1.0  0.42419  0.06724  0.93688  1.0000
  C   C556      1.0  0.41672  0.05919  0.92856  1.0000
  C   C557      1.0  0.40687  0.06935  0.91619  1.0000
  C   C558      1.0  0.40439  0.08762  0.91220  1.0000
  C   C559      1.0  0.37925  0.11612  0.94518  1.0000
  H   H407      1.0  0.11641  0.14997  0.96512  1.0000
  C   C560      1.0  0.35138  0.13740  0.94869  1.0000
  C   C561      1.0  0.35783  0.14829  0.93296  1.0000
  C   C562      1.0  0.37496  0.14306  0.92327  1.0000
  C   C563      1.0  0.42363  0.12588  0.92377  1.0000
  C   C564      1.0  0.41820  0.13766  0.93494  1.0000
  C   C565      1.0  0.43070  0.14152  0.94147  1.0000
  C   C566      1.0  0.44864  0.13357  0.93702  1.0000
  C   C567      1.0  0.45418  0.12201  0.92575  1.0000
  C   C568      1.0  0.44174  0.11823  0.91910  1.0000
  H   H408      1.0  0.43595  0.14582  0.85622  1.0000
  H   H409      1.0  0.40960  0.14981  0.84417  1.0000
  H   H410      1.0  0.38285  0.13983  0.86326  1.0000
  H   H411      1.0  0.38194  0.12623  0.89438  1.0000
  H   H412      1.0  0.43533  0.13272  0.88722  1.0000
  H   H413      1.0  0.42700  0.09131  0.94030  1.0000
  H   H414      1.0  0.43153  0.05941  0.94673  1.0000
  H   H415      1.0  0.41827  0.04513  0.93206  1.0000
  H   H416      1.0  0.40086  0.06312  0.90991  1.0000
  H   H417      1.0  0.39629  0.09522  0.90295  1.0000
  H   H418      1.0  0.38742  0.10369  0.95019  1.0000
  C   C569      1.0  0.03495  0.07573  0.67241  1.0000
  C   C570      1.0  0.01561  0.18169  0.93749  1.0000
  H   H419      1.0  0.34953  0.16076  0.92823  1.0000
  H   H420      1.0  0.37980  0.15172  0.91120  1.0000
  H   H421      1.0  0.40434  0.14353  0.93908  1.0000
  H   H422      1.0  0.42639  0.15004  0.95065  1.0000
  C   C571      1.0  0.08642  0.14449  0.93306  1.0000
  H   H423      1.0  0.46802  0.11557  0.92254  1.0000
  H   H424      1.0  0.44618  0.10891  0.91073  1.0000
  C   C572      1.0  0.31918  0.06178  0.84775  1.0000
  C   C573      1.0  0.30657  0.07726  0.84956  1.0000
  C   C574      1.0  0.28863  0.07768  0.85173  1.0000
  C   C575      1.0  0.28332  0.06265  0.85184  1.0000
  C   C576      1.0  0.29594  0.04704  0.84977  1.0000
  C   C577      1.0  0.31396  0.04673  0.84773  1.0000
  H   H425      1.0  0.32031  0.01495  0.82717  1.0000
  H   H426      1.0  0.26109  0.02792  0.79427  1.0000
  C   C578      1.0  0.01753  0.10534  0.67155  1.0000
  C   C579      1.0  0.06631  0.22382  0.78342  1.0000
  C   C580      1.0  0.44138  0.07798  0.71140  1.0000
  H   H427      1.0  0.42838  0.07889  0.83177  1.0000
  H   H428      1.0  0.36939  0.04368  0.69937  1.0000
  C   C581      1.0  0.47706  0.08518  0.74017  1.0000
  H   H429      1.0  0.07111  0.06977  0.64850  1.0000
  C   C582      1.0  0.07402  0.08614  0.66400  1.0000
  C   C583      1.0  0.05494  0.14899  0.67121  1.0000
  H   H430      1.0  0.17021  0.02810  0.78055  1.0000
  S   S79       1.0  0.33754  0.05022  0.96712  1.0000
  H   H431      1.0  0.49394  0.14531  0.91396  1.0000
  C   C584      1.0  0.27474  0.04344  0.82185  1.0000
  C   C585      1.0  0.26783  0.04350  0.80789  1.0000
  C   C586      1.0  0.18202  0.01292  0.67268  1.0000
  C   C587      1.0  0.32035  0.05739  0.72361  1.0000
  S   S80       1.0  0.00371  0.22726  0.74644  1.0000
  H   H432      1.0  0.33306  0.06150  0.84628  1.0000
  H   H433      1.0  0.31078  0.08895  0.84909  1.0000
  H   H434      1.0  0.27883  0.08974  0.85295  1.0000
  H   H435      1.0  0.41260  0.00146  0.95080  1.0000
  H   H436      1.0  0.32408  0.03498  0.84623  1.0000
  C   C588      1.0  0.01407  0.18037  0.65999  1.0000
  H   H437      1.0  0.29511  0.05210  0.70729  1.0000
  H   H438      1.0  0.01638  0.11936  0.66908  1.0000
  C   C589      1.0  0.10778  0.10678  0.76438  1.0000
  S   S81       1.0  0.23883  0.05620  0.97278  1.0000
  H   H439      1.0  0.14395  0.00205  0.69913  1.0000
  C   C590      1.0  0.99714  0.18553  0.94313  1.0000
  H   H440      1.0  0.45002  0.02728  0.82449  1.0000
  H   H441      1.0  0.27543  0.05574  0.82390  1.0000
  H   H442      1.0  0.26326  0.05579  0.79938  1.0000
  H   H443      1.0  0.48316  0.02031  0.85972  1.0000
  H   H444      1.0  0.21079  0.02341  0.76809  1.0000
  Fe  Fe40      1.0  0.38306  0.01121  0.74316  1.0000
  H   H445      1.0  0.33132  0.17605  0.76502  1.0000
  C   C591      1.0  0.41224  0.10781  0.74941  1.0000
  C   C592      1.0  0.43354  0.07155  0.75855  1.0000
  H   H446      1.0  0.25415  0.14194  0.76783  1.0000
  C   C593      1.0  0.08823  0.15553  0.80342  1.0000
  C   C594      1.0  0.45472  0.10850  0.69847  1.0000
  C   C595      1.0  0.30512  0.13249  0.74902  1.0000
  P   P17       1.0  0.32875  0.12839  0.74010  1.0000
  C   C596      1.0  0.35137  0.11643  0.71116  1.0000
  C   C597      1.0  0.43558  0.09376  0.80565  1.0000
  C   C598      1.0  0.45291  0.08049  0.69503  1.0000
  C   C599      1.0  0.27599  0.15191  0.74936  1.0000
  H   H447      1.0  0.32005  0.15100  0.76469  1.0000
  C   C600      1.0  0.29432  0.14854  0.74264  1.0000
  C   C601      1.0  0.38891  0.05384  0.75014  1.0000
  H   H448      1.0  0.42236  0.09653  0.80329  1.0000
  C   C602      1.0  0.38154  0.06040  0.73540  1.0000
  C   C603      1.0  0.40507  0.07725  0.74068  1.0000
  C   C604      1.0  0.40053  0.06229  0.75288  1.0000
  P   P18       1.0  0.42168  0.08709  0.74282  1.0000
  H   H449      1.0  0.35681  0.07449  0.70240  1.0000
  H   H450      1.0  0.38568  0.04212  0.75942  1.0000
  H   H451      1.0  0.37278  0.05362  0.73319  1.0000
  H   H452      1.0  0.46057  0.16806  0.80938  1.0000
  C   C605      1.0  0.32976  0.15589  0.75349  1.0000
  H   H453      1.0  0.26767  0.16439  0.74463  1.0000
  H   H454      1.0  0.30008  0.15853  0.73261  1.0000
  C   C606      1.0  0.33376  0.12340  0.71879  1.0000
  C   C607      1.0  0.48598  0.02463  0.86986  1.0000
  P   P19       1.0  0.15455  0.08259  0.73673  1.0000
  C   C608      1.0  0.38576  0.07541  0.72337  1.0000
  H   H455      1.0  0.30654  0.13075  0.71566  1.0000
  C   C609      1.0  0.32028  0.12575  0.70997  1.0000
  C   C610      1.0  0.34903  0.15413  0.72508  1.0000
  C   C611      1.0  0.34885  0.17653  0.73957  1.0000
  C   C612      1.0  0.10986  0.13702  0.85850  1.0000
  C   C613      1.0  0.35523  0.16858  0.72522  1.0000
  H   H456      1.0  0.35423  0.14816  0.71390  1.0000
  H   H457      1.0  0.07064  0.21006  0.68851  1.0000
  H   H458      1.0  0.07951  0.18123  0.78821  1.0000
  C   C614      1.0  0.10612  0.12439  0.75568  1.0000
  H   H459      1.0  0.30176  0.02895  0.76255  1.0000
  C   C615      1.0  0.16191  0.06994  0.75645  1.0000
  H   H460      1.0  0.40822  0.99257  0.80195  1.0000
  C   C616      1.0  0.43810  0.00480  0.93433  1.0000
  C   C617      1.0  0.30648  0.99575  0.86990  1.0000
  C   C618      1.0  0.32444  0.12150  0.69362  1.0000
  C   C619      1.0  0.34202  0.11482  0.68600  1.0000
  H   H461      1.0  0.21510  0.07717  0.74784  1.0000
  Fe  Fe41      1.0  0.49327  0.11500  0.84633  1.0000
  H   H462      1.0  0.27176  0.08496  0.75866  1.0000
  C   C620      1.0  0.41581  0.13154  0.75997  1.0000
  C   C621      1.0  0.10876  0.12190  0.87173  1.0000
  C   C622      1.0  0.12710  0.13012  0.88603  1.0000
  H   H463      1.0  0.36508  0.17355  0.71427  1.0000
  H   H464      1.0  0.17341  0.07121  0.88963  1.0000
  H   H465      1.0  0.31402  0.12342  0.68681  1.0000
  S   S82       1.0  0.40110  0.02483  0.71976  1.0000
  C   C623      1.0  0.28057  0.02761  0.83302  1.0000
  C   C624      1.0  0.45958  0.09573  0.68855  1.0000
  C   C625      1.0  0.11948  0.14868  0.85904  1.0000
  H   H466      1.0  0.24885  0.03026  0.72827  1.0000
  H   H467      1.0  0.32861  0.00764  0.95871  1.0000
  C   C626      1.0  0.11539  0.11690  0.93891  1.0000
  H   H468      1.0  0.33026  0.05519  0.91961  1.0000
  H   H469      1.0  0.10838  0.07637  0.68450  1.0000
  S   S83       1.0  0.27695  0.99745  0.70271  1.0000
  C   C627      1.0  0.01170  0.18439  0.67628  1.0000
  C   C628      1.0  0.16370  0.05771  0.71650  1.0000
  C   C629      1.0  0.44916  0.10015  0.79265  1.0000
  C   C630      1.0  0.45678  0.02921  0.72071  1.0000
  H   H470      1.0  0.04063  0.17917  0.94381  1.0000
  H   H471      1.0  0.31630  0.04077  0.80403  1.0000
  H   H472      1.0  0.46635  0.04182  0.90601  1.0000
  H   H473      1.0  0.44628  0.10775  0.78030  1.0000
  H   H474      1.0  0.45989  0.12034  0.69347  1.0000
  P   P20       1.0  0.28848  0.02736  0.85178  1.0000
  C   C631      1.0  0.03422  0.09385  0.66878  1.0000
  H   H475      1.0  0.42842  0.00711  0.80827  1.0000
  S   S84       1.0  0.47764  0.03354  0.71942  1.0000
  H   H476      1.0  0.38037  0.08015  0.71179  1.0000
  H   H477      1.0  0.31453  0.07149  0.78808  1.0000
  C   C632      1.0  0.15352  0.16754  0.91010  1.0000
  C   C633      1.0  0.16839  0.04226  0.77711  1.0000
  C   C634      1.0  0.27218  0.04080  0.71603  1.0000
  H   H478      1.0  0.48614  0.09288  0.71239  1.0000
  S   S85       1.0  0.12793  0.00592  0.67062  1.0000
  C   C635      1.0  0.16029  0.04730  0.70728  1.0000
  C   C636      1.0  0.25798  0.03829  0.74663  1.0000
  S   S86       1.0  0.20301  0.01546  0.67307  1.0000
  C   C637      1.0  0.42838  0.02150  0.73650  1.0000
  C   C638      1.0  0.14963  0.06862  0.72573  1.0000
  C   C639      1.0  0.30919  0.03286  0.78422  1.0000
  C   C640      1.0  0.31144  0.06234  0.78255  1.0000
  C   C641      1.0  0.30271  0.05601  0.75923  1.0000
  H   H479      1.0  0.26907  0.04842  0.76173  1.0000
  C   C642      1.0  0.26426  0.10954  0.74131  1.0000
  H   H480      1.0  0.30542  0.08151  0.75985  1.0000
  H   H481      1.0  0.30060  0.07578  0.96936  1.0000
  C   C643      1.0  0.11722  0.11853  0.88552  1.0000
  C   C644      1.0  0.03816  0.13306  0.69719  1.0000
  C   C645      1.0  0.13174  0.21619  0.72397  1.0000
  P   P21       1.0  0.29875  0.06261  0.73748  1.0000
  H   H482      1.0  0.13523  0.15469  0.87294  1.0000
  H   H483      1.0  0.18125  0.12602  0.95701  1.0000
  C   C646      1.0  0.25315  0.02840  0.86968  1.0000
  C   C647      1.0  0.44919  0.02054  0.83804  1.0000
  H   H484      1.0  0.41966  0.01715  0.74871  1.0000
  H   H485      1.0  0.00004  0.02039  0.64758  1.0000
  C   C648      1.0  0.47783  0.16454  0.76928  1.0000
  H   H486      1.0  0.24785  0.03407  0.75763  1.0000
  H   H487      1.0  0.16054  0.20099  0.86510  1.0000
  C   C649      1.0  0.31265  0.04489  0.79149  1.0000
  H   H488      1.0  0.11577  0.10711  0.89603  1.0000
  H   H489      1.0  0.30015  0.06879  0.93430  1.0000
  C   C650      1.0  0.11892  0.12933  0.74085  1.0000
  H   H490      1.0  0.46107  0.99806  0.79772  1.0000
  C   C651      1.0  0.30634  0.06795  0.76655  1.0000
  H   H491      1.0  0.25397  0.11498  0.75140  1.0000
  Fe  Fe42      1.0  0.34790  0.99880  0.75673  1.0000
  H   H492      1.0  0.09381  0.21442  0.77272  1.0000
  H   H493      1.0  0.25028  0.02813  0.85757  1.0000
  H   H494      1.0  0.13098  0.15595  0.92243  1.0000
  C   C652      1.0  0.49044  0.06183  0.95476  1.0000
  C   C653      1.0  0.18685  0.09350  0.72571  1.0000
  H   H495      1.0  0.11666  0.05027  0.67131  1.0000
  H   H496      1.0  0.22555  0.03254  0.88274  1.0000
  C   C654      1.0  0.44560  0.02281  0.73643  1.0000
  H   H497      1.0  0.02195  0.18727  0.64853  1.0000
  H   H498      1.0  0.28683  0.02835  0.88749  1.0000
  C   C655      1.0  0.27443  0.09257  0.74541  1.0000
  C   C656      1.0  0.27031  0.04610  0.74897  1.0000
  H   H499      1.0  0.31050  0.01920  0.79096  1.0000
  S   S87       1.0  0.20715  0.05031  0.73646  1.0000
  C   C657      1.0  0.30422  0.03842  0.76813  1.0000
  C   C658      1.0  0.28392  0.05101  0.73488  1.0000
  H   H500      1.0  0.12345  0.08054  0.76526  1.0000
  Fe  Fe43      1.0  0.09898  0.22508  0.80248  1.0000
  H   H501      1.0  0.14078  0.21677  0.88718  1.0000
  H   H502      1.0  0.29915  0.08926  0.70469  1.0000
  S   S88       1.0  0.48371  0.10802  0.96716  1.0000
  H   H503      1.0  0.16946  0.13244  0.88194  1.0000
  C   C659      1.0  0.27976  0.11208  0.71106  1.0000
  C   C660      1.0  0.33417  0.99089  0.84084  1.0000
  C   C661      1.0  0.26703  0.11936  0.72420  1.0000
  H   H504      1.0  0.15572  0.10928  0.93237  1.0000
  S   S89       1.0  0.23204  0.00033  0.73936  1.0000
  H   H505      1.0  0.49369  0.05839  0.84018  1.0000
  C   C662      1.0  0.27361  0.02850  0.88655  1.0000
  H   H506      1.0  0.25897  0.13246  0.72113  1.0000
  C   C663      1.0  0.28750  0.08529  0.73239  1.0000
  C   C664      1.0  0.14875  0.00894  0.67103  1.0000
  H   H507      1.0  0.28443  0.99699  0.76048  1.0000
  H   H508      1.0  0.14916  0.17730  0.91801  1.0000
  H   H509      1.0  0.15183  0.09922  0.88452  1.0000
  C   C665      1.0  0.14319  0.15540  0.91253  1.0000
  C   C666      1.0  0.29724  0.04582  0.95483  1.0000
  C   C667      1.0  0.30618  0.05535  0.93951  1.0000
  H   H510      1.0  0.10234  0.15231  0.90765  1.0000
  C   C668      1.0  0.08553  0.13262  0.94917  1.0000
  C   C669      1.0  0.17149  0.09302  0.72110  1.0000
  P   P22       1.0  0.13587  0.12681  0.90508  1.0000
  C   C670      1.0  0.10186  0.14279  0.91998  1.0000
  C   C671      1.0  0.14872  0.14277  0.90226  1.0000
  C   C672      1.0  0.12873  0.05822  0.71667  1.0000
  H   H511      1.0  0.17334  0.00516  0.70054  1.0000
  C   C673      1.0  0.16941  0.16712  0.89753  1.0000
  H   H512      1.0  0.28382  0.99938  0.83847  1.0000
  S   S90       1.0  0.01652  0.19248  0.72918  1.0000
  S   S91       1.0  0.05607  0.20467  0.73994  1.0000
  C   C674      1.0  0.01857  0.18652  0.96438  1.0000
  C   C675      1.0  0.11647  0.12893  0.92273  1.0000
  H   H513      1.0  0.36912  0.10715  0.68884  1.0000
  H   H514      1.0  0.44999  0.01925  0.74856  1.0000
  H   H515      1.0  0.20867  0.11343  0.68635  1.0000
  H   H516      1.0  0.02654  0.00594  0.66028  1.0000
  Fe  Fe44      1.0  0.48918  0.08875  0.88067  1.0000
  H   H517      1.0  0.18888  0.08772  0.73875  1.0000
  H   H518      1.0  0.23117  0.03508  0.91026  1.0000
  H   H519      1.0  0.12621  0.10596  0.94155  1.0000
  C   C676      1.0  0.16993  0.00770  0.68804  1.0000
  C   C677      1.0  0.46629  0.09670  0.79564  1.0000
  C   C678      1.0  0.31754  0.99640  0.72414  1.0000
  C   C679      1.0  0.04161  0.11901  0.68911  1.0000
  H   H520      1.0  0.04733  0.06630  0.67084  1.0000
  S   S92       1.0  0.23120  0.98387  0.70683  1.0000
  C   C680      1.0  0.27057  0.02716  0.87089  1.0000
  C   C681      1.0  0.06991  0.22398  0.68648  1.0000
  C   C682      1.0  0.28989  0.09503  0.71510  1.0000
  S   S93       1.0  0.09059  0.01207  0.64753  1.0000
  H   H521      1.0  0.44947  0.04335  0.84614  1.0000
  C   C683      1.0  0.19821  0.10795  0.69605  1.0000
  C   C684      1.0  0.09428  0.05856  0.65916  1.0000
  H   H522      1.0  0.33158  0.99617  0.71982  1.0000
  C   C685      1.0  0.17071  0.08462  0.92636  1.0000
  C   C686      1.0  0.44714  0.01231  0.91784  1.0000
  C   C687      1.0  0.25422  0.01590  0.95862  1.0000
  H   H523      1.0  0.34520  0.11156  0.67332  1.0000
  H   H524      1.0  0.44776  0.99603  0.88634  1.0000
  H   H525      1.0  0.45183  0.99624  0.70485  1.0000
  H   H526      1.0  0.34418  0.02461  0.93166  1.0000
  C   C688      1.0  0.15879  0.10072  0.92335  1.0000
  H   H527      1.0  0.18554  0.06167  0.91642  1.0000
  H   H528      1.0  0.02245  0.04386  0.65169  1.0000
  C   C689      1.0  0.16886  0.07918  0.89933  1.0000
  C   C690      1.0  0.08036  0.21601  0.77159  1.0000
  H   H529      1.0  0.46856  0.09760  0.67587  1.0000
  S   S94       1.0  0.02062  0.20139  0.67787  1.0000
  C   C691      1.0  0.28939  0.99658  0.71787  1.0000
  C   C692      1.0  0.01935  0.06939  0.67805  1.0000
  C   C693      1.0  0.23902  0.03098  0.88394  1.0000
  C   C694      1.0  0.33089  0.03033  0.93797  1.0000
  H   H530      1.0  0.08797  0.20403  0.74933  1.0000
  H   H531      1.0  0.13678  0.21525  0.93927  1.0000
  C   C695      1.0  0.00557  0.16803  0.65835  1.0000
  C   C696      1.0  0.13533  0.09901  0.74356  1.0000
  H   H532      1.0  0.29579  0.99721  0.88120  1.0000
  H   H533      1.0  0.35715  0.11296  0.96709  1.0000
  Fe  Fe45      1.0  0.21427  0.02469  0.72780  1.0000
  C   C697      1.0  0.26670  0.02775  0.80496  1.0000
  C   C698      1.0  0.33107  0.06980  0.71677  1.0000
  H   H534      1.0  0.09781  0.10296  0.77586  1.0000
  Fe  Fe46      1.0  0.07539  0.22219  0.95714  1.0000
  C   C699      1.0  0.16481  0.14228  0.88980  1.0000
  S   S95       1.0  0.48957  0.02316  0.80222  1.0000
  H   H535      1.0  0.09794  0.04724  0.65332  1.0000
  S   S96       1.0  0.23016  0.02560  0.70040  1.0000
  H   H536      1.0  0.15799  0.09961  0.69983  1.0000
  H   H537      1.0  0.05974  0.16080  0.66422  1.0000
  S   S97       1.0  0.36593  0.07656  0.95569  1.0000
  C   C700      1.0  0.24217  0.03235  0.89945  1.0000
  H   H538      1.0  0.48227  0.08467  0.81511  1.0000
  H   H539      1.0  0.16152  0.04455  0.75294  1.0000
  H   H540      1.0  0.17125  0.03906  0.70001  1.0000
  C   C701      1.0  0.13209  0.06881  0.72578  1.0000
  C   C702      1.0  0.15105  0.10579  0.90878  1.0000
  C   C703      1.0  0.15654  0.09511  0.89651  1.0000
  C   C704      1.0  0.44834  0.02094  0.86790  1.0000
  C   C705      1.0  0.32760  0.04000  0.72183  1.0000
  H   H541      1.0  0.17323  0.07578  0.79146  1.0000
  C   C706      1.0  0.07700  0.21018  0.75836  1.0000
  H   H542      1.0  0.44538  0.99731  0.94433  1.0000
  H   H543      1.0  0.17735  0.05728  0.71637  1.0000
  C   C707      1.0  0.05143  0.12002  0.67182  1.0000
  Fe  Fe47      1.0  0.21276  0.00935  0.69810  1.0000
  H   H544      1.0  0.24572  0.00581  0.64523  1.0000
  C   C708      1.0  0.10002  0.11885  0.95210  1.0000
  H   H545      1.0  0.16629  0.21609  0.83395  1.0000
  C   C709      1.0  0.13629  0.22810  0.93062  1.0000
  H   H546      1.0  0.26739  0.99619  0.73998  1.0000
  H   H547      1.0  0.31986  0.03002  0.72785  1.0000
  H   H548      1.0  0.26834  0.07662  0.97357  1.0000
  H   H549      1.0  0.28143  0.11948  0.69768  1.0000
  H   H550      1.0  0.45814  0.13601  0.94274  1.0000
  H   H551      1.0  0.03615  0.10760  0.69619  1.0000
  H   H552      1.0  0.07000  0.19552  0.87749  1.0000
  C   C710      1.0  0.34512  0.03516  0.71290  1.0000
  C   C711      1.0  0.00198  0.09892  0.67736  1.0000
  C   C712      1.0  0.44798  0.00304  0.87293  1.0000
  H   H553      1.0  0.14355  0.20675  0.72710  1.0000
  C   C713      1.0  0.49042  0.08004  0.92558  1.0000
  C   C714      1.0  0.25947  0.03095  0.90080  1.0000
  C   C715      1.0  0.17164  0.05098  0.78805  1.0000
  Fe  Fe48      1.0  0.01305  0.21063  0.70350  1.0000
  H   H554      1.0  0.09490  0.13422  0.76039  1.0000
  H   H555      1.0  0.18147  0.11285  0.67794  1.0000
  H   H556      1.0  0.35069  0.02160  0.71193  1.0000
  H   H557      1.0  0.23392  0.98708  0.78935  1.0000
  C   C716      1.0  0.05957  0.21233  0.75672  1.0000
  H   H558      1.0  0.47470  0.04228  0.96264  1.0000
  Fe  Fe49      1.0  0.19188  0.08532  0.96933  1.0000
  Fe  Fe50      1.0  0.02920  0.21237  0.73272  1.0000
  H   H559      1.0  0.18741  0.15403  0.87766  1.0000
  C   C717      1.0  0.18290  0.10760  0.69133  1.0000
  H   H560      1.0  0.26181  0.03259  0.91263  1.0000
  P   P23       1.0  0.05410  0.10276  0.66062  1.0000
  S   S98       1.0  0.38000  0.03388  0.96621  1.0000
  C   C718      1.0  0.16357  0.05167  0.76134  1.0000
  S   S99       1.0  0.19535  0.01052  0.72464  1.0000
  H   H561      1.0  0.02705  0.18680  0.97249  1.0000
  C   C719      1.0  0.12875  0.22055  0.70709  1.0000
  H   H562      1.0  0.13828  0.21446  0.69703  1.0000
  C   C720      1.0  0.15477  0.21484  0.86130  1.0000
  C   C721      1.0  0.04548  0.22016  0.76856  1.0000
  H   H563      1.0  0.02000  0.05549  0.68020  1.0000
  S   S100      1.0  0.49309  0.11629  0.87352  1.0000
  C   C722      1.0  0.16506  0.07858  0.76762  1.0000
  H   H564      1.0  0.41333  0.98867  0.72976  1.0000
  H   H565      1.0  0.14026  0.03939  0.70022  1.0000
  C   C723      1.0  0.14343  0.22392  0.87384  1.0000
  C   C724      1.0  0.04885  0.22587  0.78189  1.0000
  H   H566      1.0  0.26292  0.98377  0.66558  1.0000
  C   C725      1.0  0.10011  0.07496  0.67675  1.0000
  C   C726      1.0  0.24278  0.00743  0.97256  1.0000
  C   C727      1.0  0.05844  0.13496  0.66308  1.0000
  S   S101      1.0  0.35380  0.98697  0.78339  1.0000
  S   S102      1.0  0.32035  0.99621  0.75749  1.0000
  C   C728      1.0  0.24298  0.99279  0.65026  1.0000
  H   H567      1.0  0.23036  0.00614  0.97079  1.0000
  H   H568      1.0  0.14912  0.19624  0.97515  1.0000
  S   S103      1.0  0.37496  0.98690  0.74264  1.0000
  S   S104      1.0  0.02743  0.22961  0.70621  1.0000
  C   C729      1.0  0.46519  0.13943  0.77372  1.0000
  H   H569      1.0  0.43859  0.99531  0.68118  1.0000
  C   C730      1.0  0.44779  0.98386  0.68650  1.0000
  H   H570      1.0  0.47629  0.17859  0.76712  1.0000
  H   H571      1.0  0.45086  0.16624  0.76840  1.0000
  C   C731      1.0  0.46353  0.15759  0.76999  1.0000
  H   H572      1.0  0.31407  0.99656  0.69875  1.0000
  C   C732      1.0  0.02790  0.00936  0.64624  1.0000
  H   H573      1.0  0.07996  0.22090  0.70914  1.0000
  C   C733      1.0  0.48284  0.10190  0.75766  1.0000
  H   H574      1.0  0.18668  0.02030  0.64458  1.0000
  H   H575      1.0  0.34488  0.98915  0.82951  1.0000
  H   H576      1.0  0.12876  0.98580  0.72873  1.0000
  H   H577      1.0  0.49485  0.09055  0.91524  1.0000
  H   H578      1.0  0.47035  0.98677  0.74759  1.0000
  S   S105      1.0  0.07035  0.23095  0.80025  1.0000
  H   H579      1.0  0.12155  0.22016  0.75012  1.0000
  C   C734      1.0  0.45525  0.98444  0.69981  1.0000
  H   H580      1.0  0.06619  0.13602  0.64981  1.0000
  H   H581      1.0  0.44926  0.99568  0.83347  1.0000
  C   C735      1.0  0.44815  0.99400  0.86056  1.0000
  C   C736      1.0  0.11933  0.22381  0.73699  1.0000
  Fe  Fe51      1.0  0.21488  0.98593  0.73360  1.0000
  H   H582      1.0  0.00691  0.16548  0.64568  1.0000
  C   C737      1.0  0.49043  0.11261  0.74223  1.0000
  C   C738      1.0  0.15791  0.22330  0.84372  1.0000
  H   H583      1.0  0.00635  0.22513  0.96529  1.0000
  H   H584      1.0  0.43175  0.98576  0.75044  1.0000
  C   C739      1.0  0.49135  0.10956  0.72594  1.0000
  C   C740      1.0  0.12966  0.23187  0.91557  1.0000
  C   C741      1.0  0.22935  0.98865  0.64573  1.0000
  H   H585      1.0  0.07391  0.23022  0.87425  1.0000
  C   C742      1.0  0.07510  0.23019  0.69821  1.0000
  H   H586      1.0  0.03790  0.23188  0.79103  1.0000
  H   H587      1.0  0.05821  0.23094  0.66409  1.0000
  Fe  Fe52      1.0  0.11993  0.00849  0.64527  1.0000
  Fe  Fe53      1.0  0.49501  0.02608  0.73922  1.0000
  C   C743      1.0  0.49402  0.15331  0.77168  1.0000
  C   C744      1.0  0.11336  0.23257  0.70329  1.0000
  Fe  Fe54      1.0  0.38033  0.05733  0.97541  1.0000
  H   H588      1.0  0.03254  0.13427  0.64294  1.0000
  H   H589      1.0  0.06862  0.39446  0.99594  1.0000
  C   C745      1.0  0.01856  0.42191  0.12911  1.0000
  S   S106      1.0  0.02598  0.29145  0.11984  1.0000
  H   H590      1.0  0.02623  0.31644  0.02817  1.0000
  C   C746      1.0  0.00693  0.40348  0.01085  1.0000
  C   C747      1.0  0.14860  0.36250  0.03097  1.0000
  P   P24       1.0  0.04917  0.40646  0.02803  1.0000
  H   H591      1.0  0.11635  0.37509  0.97839  1.0000
  C   C748      1.0  0.09385  0.36827  0.03425  1.0000
  C   C749      1.0  0.13866  0.40411  0.08197  1.0000
  C   C750      1.0  0.05907  0.41788  0.00660  1.0000
  C   C751      1.0  0.13822  0.39205  0.03586  1.0000
  C   C752      1.0  0.02392  0.40436  0.01136  1.0000
  H   H592      1.0  0.07124  0.29451  0.98701  1.0000
  C   C753      1.0  0.08771  0.43173  0.06096  1.0000
  C   C754      1.0  0.00309  0.45087  0.00605  1.0000
  C   C755      1.0  0.00161  0.42179  0.13972  1.0000
  C   C756      1.0  0.12320  0.41317  0.98267  1.0000
  S   S107      1.0  0.02394  0.47197  0.13773  1.0000
  H   H593      1.0  0.04522  0.36114  0.00254  1.0000
  C   C757      1.0  0.04167  0.35442  0.01603  1.0000
  Fe  Fe55      1.0  0.12065  0.45149  0.99428  1.0000
  C   C758      1.0  0.99796  0.40022  0.04220  1.0000
  C   C759      1.0  0.06386  0.38566  0.03435  1.0000
  C   C760      1.0  0.07716  0.37456  0.09787  1.0000
  C   C761      1.0  0.14290  0.43721  0.06153  1.0000
  C   C762      1.0  0.07172  0.29433  0.00018  1.0000
  C   C763      1.0  0.01703  0.45967  0.99922  1.0000
  S   S108      1.0  0.14133  0.46756  0.98280  1.0000
  C   C764      1.0  0.12795  0.38592  0.05228  1.0000
  C   C765      1.0  0.09750  0.41682  0.03698  1.0000
  C   C766      1.0  0.04451  0.26348  0.01326  1.0000
  H   H594      1.0  0.06909  0.36637  0.09677  1.0000
  S   S109      1.0  0.10898  0.46454  0.01703  1.0000
  C   C767      1.0  0.13910  0.35616  0.04766  1.0000
  H   H595      1.0  0.02941  0.47876  0.00223  1.0000
  C   C768      1.0  0.00967  0.25834  0.10161  1.0000
  C   C769      1.0  0.05004  0.33357  0.04153  1.0000
  C   C770      1.0  0.03261  0.43446  0.04464  1.0000
  H   H596      1.0  0.06004  0.32413  0.04782  1.0000
  H   H597      1.0  0.12179  0.36256  0.07125  1.0000
  H   H598      1.0  0.09031  0.37815  0.07084  1.0000
  H   H599      1.0  0.12404  0.43552  0.04839  1.0000
  C   C771      1.0  0.02885  0.44346  0.05802  1.0000
  C   C772      1.0  0.15053  0.41235  0.08466  1.0000
  C   C773      1.0  0.07621  0.44482  0.05178  1.0000
  C   C774      1.0  0.15259  0.42893  0.07449  1.0000
  H   H600      1.0  0.00405  0.27642  0.02199  1.0000
  H   H601      1.0  0.00407  0.40367  0.99859  1.0000
  H   H602      1.0  0.15627  0.35355  0.02256  1.0000
  H   H603      1.0  0.03694  0.32292  0.99100  1.0000
  H   H604      1.0  0.15826  0.40582  0.09451  1.0000
  C   C775      1.0  0.02012  0.28182  0.10610  1.0000
  H   H605      1.0  0.06557  0.45844  0.98348  1.0000
  H   H606      1.0  0.02581  0.43994  0.03401  1.0000
  C   C776      1.0  0.09860  0.41773  0.05350  1.0000
  Fe  Fe56      1.0  0.08214  0.34643  0.98489  1.0000
  S   S110      1.0  0.00533  0.33698  0.13326  1.0000
  C   C777      1.0  0.08723  0.29639  0.00318  1.0000
  C   C778      1.0  0.05724  0.37219  0.04734  1.0000
  H   H607      1.0  0.15543  0.38550  0.01214  1.0000
  C   C779      1.0  0.12887  0.36780  0.05834  1.0000
  C   C780      1.0  0.07567  0.44418  0.03504  1.0000
  H   H608      1.0  0.07495  0.29226  0.04723  1.0000
  C   C781      1.0  0.04497  0.41839  0.04506  1.0000
  C   C782      1.0  0.02806  0.40745  0.12174  1.0000
  C   C783      1.0  0.05848  0.29078  0.03114  1.0000
  H   H609      1.0  0.13802  0.40594  0.03108  1.0000
  C   C784      1.0  0.09969  0.39185  0.08459  1.0000
  H   H610      1.0  0.06516  0.37418  0.12500  1.0000
  C   C785      1.0  0.05785  0.43607  0.00268  1.0000
  H   H611      1.0  0.08784  0.39396  0.01831  1.0000
  H   H612      1.0  0.04124  0.40748  0.11377  1.0000
  H   H613      1.0  0.10415  0.40564  0.10170  1.0000
  H   H614      1.0  0.06719  0.45467  0.02773  1.0000
  S   S111      1.0  0.03200  0.37589  0.11385  1.0000
  C   C786      1.0  0.14823  0.38044  0.02513  1.0000
  C   C787      1.0  0.08929  0.38115  0.08326  1.0000
  H   H615      1.0  0.06778  0.45550  0.05762  1.0000
  C   C788      1.0  0.09712  0.39657  0.10056  1.0000
  H   H616      1.0  0.08698  0.43005  0.01429  1.0000
  H   H617      1.0  0.13957  0.34222  0.05226  1.0000
  C   C789      1.0  0.08715  0.35494  0.04718  1.0000
  H   H618      1.0  0.08268  0.39386  0.12740  1.0000
  C   C790      1.0  0.06888  0.35702  0.05388  1.0000
  H   H619      1.0  0.10551  0.40611  0.03095  1.0000
  S   S112      1.0  0.10113  0.46882  0.97851  1.0000
  H   H620      1.0  0.06367  0.34665  0.06384  1.0000
  C   C791      1.0  0.05529  0.23603  0.07490  1.0000
  C   C792      1.0  0.08483  0.39005  0.11514  1.0000
  Fe  Fe57      1.0  0.12781  0.48252  0.00396  1.0000
  H   H621      1.0  0.99726  0.32843  0.04567  1.0000
  C   C793      1.0  0.13103  0.42901  0.05884  1.0000
  C   C794      1.0  0.08838  0.29569  0.02013  1.0000
  P   P25       1.0  0.03813  0.28697  0.01044  1.0000
  C   C795      1.0  0.01525  0.28296  0.07778  1.0000
  C   C796      1.0  0.06587  0.44453  0.98615  1.0000
  S   S113      1.0  0.07719  0.33977  0.01395  1.0000
  H   H622      1.0  0.16186  0.43528  0.07647  1.0000
  C   C797      1.0  0.05810  0.25616  0.00063  1.0000
  H   H623      1.0  0.09831  0.29869  0.99230  1.0000
  C   C798      1.0  0.01990  0.35045  0.04341  1.0000
  H   H624      1.0  0.06232  0.39872  0.06060  1.0000
  H   H625      1.0  0.02816  0.25787  0.03918  1.0000
  H   H626      1.0  0.02441  0.43309  0.12670  1.0000
  C   C799      1.0  0.04856  0.41983  0.07324  1.0000
  Fe  Fe58      1.0  0.01562  0.32064  0.11302  1.0000
  Fe  Fe59      1.0  0.09101  0.48341  0.00021  1.0000
  C   C800      1.0  0.07407  0.29274  0.03412  1.0000
  H   H627      1.0  0.10022  0.29780  0.02235  1.0000
  C   C801      1.0  0.06767  0.40849  0.99337  1.0000
  C   C802      1.0  0.05711  0.29189  0.01409  1.0000
  C   C803      1.0  0.12851  0.41256  0.06932  1.0000
  H   H628      1.0  0.05209  0.25582  0.08911  1.0000
  H   H629      1.0  0.03391  0.40537  0.99937  1.0000
  C   C804      1.0  0.99881  0.31709  0.04048  1.0000
  H   H630      1.0  0.09606  0.34288  0.05179  1.0000
  C   C805      1.0  0.05287  0.41112  0.05958  1.0000
  C   C806      1.0  0.08229  0.38365  0.02801  1.0000
  C   C807      1.0  0.02415  0.35829  0.02564  1.0000
  H   H631      1.0  0.10800  0.36664  0.02892  1.0000
  C   C808      1.0  0.08648  0.43025  0.02760  1.0000
  S   S114      1.0  0.12651  0.42203  0.99860  1.0000
  H   H632      1.0  0.04313  0.37337  0.05261  1.0000
  C   C809      1.0  0.05475  0.34257  0.02428  1.0000
  H   H633      1.0  0.08819  0.43264  0.07380  1.0000
  H   H634      1.0  0.03352  0.44289  0.08297  1.0000
  H   H635      1.0  0.12009  0.38859  0.00055  1.0000
  H   H636      1.0  0.05476  0.41408  0.08432  1.0000
  H   H637      1.0  0.05146  0.44374  0.01245  1.0000
  C   C810      1.0  0.07494  0.37898  0.11381  1.0000
  C   C811      1.0  0.03663  0.43605  0.07245  1.0000
  P   P26       1.0  0.11399  0.40150  0.06517  1.0000
  C   C812      1.0  0.03476  0.29770  0.98879  1.0000
  H   H638      1.0  0.14470  0.44993  0.05336  1.0000
  H   H639      1.0  0.13744  0.39112  0.08967  1.0000
  C   C813      1.0  0.02794  0.40352  0.02729  1.0000
  H   H640      1.0  0.01453  0.25921  0.12608  1.0000
  H   H641      1.0  0.06385  0.26452  0.98878  1.0000
  C   C814      1.0  0.02041  0.39311  0.12443  1.0000
  C   C815      1.0  0.05348  0.24197  0.08993  1.0000
  H   H642      1.0  0.02411  0.30292  0.08372  1.0000
  C   C816      1.0  0.12050  0.39601  0.98727  1.0000
  C   C817      1.0  0.01001  0.26692  0.08414  1.0000
  H   H643      1.0  0.06506  0.47766  0.12795  1.0000
  H   H644      1.0  0.01803  0.39959  0.05520  1.0000
  C   C818      1.0  0.03258  0.33732  0.05097  1.0000
  C   C819      1.0  0.00349  0.39295  0.13509  1.0000
  C   C820      1.0  0.01752  0.29495  0.02453  1.0000
  C   C821      1.0  0.01492  0.40110  0.04273  1.0000
  H   H645      1.0  0.01972  0.45606  0.05738  1.0000
  H   H646      1.0  0.03177  0.24158  0.99568  1.0000
  C   C822      1.0  0.04432  0.23427  0.03148  1.0000
  C   C823      1.0  0.03792  0.25244  0.02888  1.0000
  H   H647      1.0  0.02901  0.33017  0.06418  1.0000
  H   H648      1.0  0.02688  0.45679  0.98771  1.0000
  S   S115      1.0  0.99931  0.35781  0.05660  1.0000
  H   H649      1.0  0.05526  0.24527  0.06244  1.0000
  H   H650      1.0  0.04760  0.28826  0.04214  1.0000
  C   C824      1.0  0.01847  0.47203  0.00740  1.0000
  S   S116      1.0  0.00408  0.47433  0.10637  1.0000
  Fe  Fe60      1.0  0.00009  0.46435  0.13536  1.0000
  C   C825      1.0  0.01530  0.31004  0.03080  1.0000
  S   S117      1.0  0.02838  0.34112  0.09277  1.0000
  C   C826      1.0  0.02015  0.29047  0.08874  1.0000
  H   H651      1.0  0.03051  0.27499  0.98280  1.0000
  H   H652      1.0  0.01547  0.28964  0.06435  1.0000
  Fe  Fe61      1.0  0.00231  0.35045  0.08449  1.0000
  Fe  Fe62      1.0  0.01559  0.35840  0.11201  1.0000
  C   C827      1.0  0.01935  0.23491  0.97905  1.0000
  C   C828      1.0  0.00280  0.28763  0.02730  1.0000
  H   H653      1.0  0.00007  0.48306  0.06251  1.0000
  H   H654      1.0  0.01411  0.36776  0.01951  1.0000
  C   C829      1.0  0.01489  0.26572  0.11255  1.0000
  H   H655      1.0  0.00201  0.44128  0.99970  1.0000
  H   H656      1.0  0.00517  0.24620  0.10668  1.0000
  H   H657      1.0  0.99790  0.40933  0.07892  1.0000
  C   C830      1.0  0.00597  0.47561  0.02244  1.0000
  C   C831      1.0  0.03421  0.31575  0.98300  1.0000
  S   S118      1.0  0.05352  0.48062  0.09160  1.0000
  C   C832      1.0  0.07545  0.41703  0.97678  1.0000
  C   C833      1.0  0.03052  0.28883  0.97850  1.0000
  H   H658      1.0  0.99760  0.38191  0.13712  1.0000
  H   H659      1.0  0.05117  0.23509  0.11768  1.0000
  S   S119      1.0  0.00327  0.25838  0.07010  1.0000
  C   C834      1.0  0.06449  0.23802  0.00323  1.0000
  S   S120      1.0  0.07584  0.37297  0.96768  1.0000
  H   H660      1.0  0.09685  0.32234  0.67354  1.0000
  C   C835      1.0  0.13813  0.26596  0.74752  1.0000
  H   H661      1.0  0.11845  0.29484  0.66819  1.0000
  H   H662      1.0  0.04591  0.47494  0.65492  1.0000
  C   C836      1.0  0.06595  0.45556  0.70390  1.0000
  C   C837      1.0  0.12877  0.24847  0.90429  1.0000
  S   S121      1.0  0.11539  0.30088  0.95178  1.0000
  H   H663      1.0  0.05504  0.26295  0.66043  1.0000
  H   H664      1.0  0.01950  0.25780  0.74553  1.0000
  C   C838      1.0  0.06992  0.42471  0.68161  1.0000
  H   H665      1.0  0.20276  0.47247  0.97574  1.0000
  C   C839      1.0  0.11520  0.27655  0.87607  1.0000
  C   C840      1.0  0.09924  0.24588  0.89107  1.0000
  Fe  Fe63      1.0  0.11781  0.47139  0.84072  1.0000
  S   S122      1.0  0.12604  0.44231  0.84159  1.0000
  H   H666      1.0  0.07710  0.35964  0.71516  1.0000
  C   C841      1.0  0.12388  0.42266  0.96543  1.0000
  C   C842      1.0  0.10850  0.31287  0.86278  1.0000
  Fe  Fe64      1.0  0.06480  0.35662  0.81183  1.0000
  S   S123      1.0  0.08830  0.36885  0.80513  1.0000
  S   S124      1.0  0.05850  0.34905  0.79008  1.0000
  Fe  Fe65      1.0  0.06187  0.35113  0.85077  1.0000
  S   S125      1.0  0.08541  0.36256  0.84714  1.0000
  S   S126      1.0  0.04847  0.33815  0.87730  1.0000
  Fe  Fe66      1.0  0.07340  0.38324  0.82646  1.0000
  S   S127      1.0  0.07054  0.41255  0.82218  1.0000
  Fe  Fe67      1.0  0.09805  0.34698  0.82626  1.0000
  S   S128      1.0  0.12664  0.33208  0.82168  1.0000
  S   S129      1.0  0.04879  0.37279  0.83148  1.0000
  S   S130      1.0  0.07554  0.33391  0.83165  1.0000
  Fe  Fe68      1.0  0.10353  0.36580  0.95240  1.0000
  H   H667      1.0  0.08237  0.40963  0.96675  1.0000
  H   H668      1.0  0.06465  0.27404  0.68072  1.0000
  C   C843      1.0  0.14097  0.25762  0.92365  1.0000
  H   H669      1.0  0.06823  0.39875  0.65604  1.0000
  Fe  Fe69      1.0  0.06914  0.35882  0.95126  1.0000
  S   S131      1.0  0.04647  0.37287  0.93820  1.0000
  H   H670      1.0  0.14930  0.25870  0.75345  1.0000
  H   H671      1.0  0.00318  0.39353  0.78569  1.0000
  S   S132      1.0  0.09657  0.35304  0.93482  1.0000
  H   H672      1.0  0.03994  0.30709  0.80368  1.0000
  C   C844      1.0  0.07476  0.27201  0.80230  1.0000
  C   C845      1.0  0.13818  0.24996  0.85112  1.0000
  H   H673      1.0  0.06129  0.24642  0.92287  1.0000
  H   H674      1.0  0.04627  0.44052  0.74560  1.0000
  H   H675      1.0  0.02553  0.42768  0.97460  1.0000
  H   H676      1.0  0.02435  0.24424  0.96760  1.0000
  H   H677      1.0  0.07307  0.43716  0.68013  1.0000
  C   C846      1.0  0.08599  0.46921  0.71017  1.0000
  C   C847      1.0  0.07047  0.24452  0.91067  1.0000
  C   C848      1.0  0.06243  0.39237  0.68413  1.0000
  H   H678      1.0  0.04459  0.32174  0.72927  1.0000
  H   H679      1.0  0.08001  0.30809  0.94578  1.0000
  H   H680      1.0  0.08468  0.34654  0.88942  1.0000
  C   C849      1.0  0.13123  0.31181  0.81535  1.0000
  C   C850      1.0  0.14807  0.30622  0.80538  1.0000
  C   C851      1.0  0.15188  0.29121  0.79858  1.0000
  C   C852      1.0  0.13908  0.28129  0.80199  1.0000
  C   C853      1.0  0.12238  0.28638  0.81257  1.0000
  C   C854      1.0  0.11844  0.30167  0.81921  1.0000
  H   H681      1.0  0.15804  0.31385  0.80235  1.0000
  H   H682      1.0  0.11240  0.27879  0.81532  1.0000
  H   H683      1.0  0.10551  0.30562  0.82718  1.0000
  C   C855      1.0  0.04785  0.34809  0.89401  1.0000
  C   C856      1.0  0.05030  0.33755  0.91027  1.0000
  C   C857      1.0  0.05091  0.34511  0.92350  1.0000
  C   C858      1.0  0.04748  0.36335  0.92104  1.0000
  C   C859      1.0  0.04446  0.37398  0.90495  1.0000
  C   C860      1.0  0.04520  0.36632  0.89123  1.0000
  H   H684      1.0  0.05222  0.32345  0.91247  1.0000
  H   H685      1.0  0.05371  0.33684  0.93572  1.0000
  H   H686      1.0  0.04191  0.38809  0.90300  1.0000
  H   H687      1.0  0.04327  0.37452  0.87868  1.0000
  S   S133      1.0  0.06512  0.25119  0.95625  1.0000
  H   H688      1.0  0.05467  0.40345  0.75553  1.0000
  C   C861      1.0  0.06421  0.41445  0.69816  1.0000
  C   C862      1.0  0.07434  0.29270  0.70265  1.0000
  C   C863      1.0  0.10155  0.28699  0.95288  1.0000
  C   C864      1.0  0.08604  0.27886  0.78700  1.0000
  Fe  Fe70      1.0  0.01000  0.40073  0.69131  1.0000
  H   H689      1.0  0.04164  0.29931  0.69142  1.0000
  H   H690      1.0  0.10144  0.24341  0.96086  1.0000
  H   H691      1.0  0.06297  0.40562  0.78481  1.0000
  C   C865      1.0  0.07235  0.43959  0.71460  1.0000
  C   C866      1.0  0.11044  0.43413  0.83634  1.0000
  C   C867      1.0  0.09699  0.44551  0.82831  1.0000
  C   C868      1.0  0.08483  0.43876  0.82400  1.0000
  C   C869      1.0  0.08597  0.42061  0.82779  1.0000
  C   C870      1.0  0.09941  0.40924  0.83580  1.0000
  C   C871      1.0  0.11167  0.41599  0.83994  1.0000
  H   H692      1.0  0.09605  0.45951  0.82520  1.0000
  H   H693      1.0  0.07453  0.44763  0.81769  1.0000
  H   H694      1.0  0.10028  0.39527  0.83896  1.0000
  H   H695      1.0  0.12197  0.40710  0.84614  1.0000
  C   C872      1.0  0.10761  0.26871  0.95696  1.0000
  H   H696      1.0  0.14792  0.32074  0.95302  1.0000
  H   H697      1.0  0.02878  0.45770  0.95792  1.0000
  P   P27       1.0  0.08100  0.25603  0.71095  1.0000
  C   C873      1.0  0.12242  0.41476  0.95274  1.0000
  C   C874      1.0  0.09679  0.25749  0.95752  1.0000
  C   C875      1.0  0.01591  0.46535  0.82075  1.0000
  C   C876      1.0  0.08711  0.24869  0.90668  1.0000
  H   H698      1.0  0.15188  0.24726  0.82498  1.0000
  C   C877      1.0  0.05268  0.29906  0.79892  1.0000
  C   C878      1.0  0.04052  0.36126  0.78057  1.0000
  C   C879      1.0  0.02783  0.37459  0.78767  1.0000
  C   C880      1.0  0.01315  0.38339  0.78009  1.0000
  C   C881      1.0  0.01128  0.37894  0.76538  1.0000
  C   C882      1.0  0.02420  0.36589  0.75813  1.0000
  C   C883      1.0  0.03880  0.35714  0.76566  1.0000
  H   H699      1.0  0.02912  0.37783  0.79918  1.0000
  C   C884      1.0  0.07481  0.43498  0.97326  1.0000
  H   H700      1.0  0.02270  0.36213  0.74702  1.0000
  H   H701      1.0  0.04864  0.34699  0.76002  1.0000
  C   C885      1.0  0.04656  0.25602  0.73109  1.0000
  H   H702      1.0  0.00375  0.47948  0.65811  1.0000
  C   C886      1.0  0.06763  0.40289  0.66775  1.0000
  C   C887      1.0  0.02638  0.29784  0.96236  1.0000
  C   C888      1.0  0.07437  0.34698  0.72237  1.0000
  S   S134      1.0  0.08921  0.48269  0.85029  1.0000
  H   H703      1.0  0.04172  0.44763  0.65052  1.0000
  C   C889      1.0  0.07151  0.41897  0.66649  1.0000
  H   H704      1.0  0.11170  0.26620  0.68427  1.0000
  C   C890      1.0  0.08522  0.33592  0.73355  1.0000
  C   C891      1.0  0.12572  0.27924  0.75485  1.0000
  C   C892      1.0  0.06551  0.26601  0.74296  1.0000
  S   S135      1.0  0.00281  0.38038  0.68227  1.0000
  H   H705      1.0  0.11961  0.26776  0.71431  1.0000
  Fe  Fe71      1.0  0.99686  0.38482  0.72936  1.0000
  C   C893      1.0  0.05983  0.34179  0.72074  1.0000
  C   C894      1.0  0.07811  0.30892  0.69315  1.0000
  H   H706      1.0  0.11254  0.37034  0.72771  1.0000
  H   H707      1.0  0.04514  0.48291  0.78593  1.0000
  H   H708      1.0  0.15237  0.41377  0.69635  1.0000
  C   C895      1.0  0.08163  0.31955  0.74304  1.0000
  C   C896      1.0  0.11847  0.38832  0.97472  1.0000
  C   C897      1.0  0.02630  0.42136  0.72643  1.0000
  H   H709      1.0  0.14487  0.26778  0.92706  1.0000
  C   C898      1.0  0.03592  0.43643  0.74265  1.0000
  H   H710      1.0  0.05527  0.45674  0.69775  1.0000
  H   H711      1.0  0.12759  0.28235  0.76617  1.0000
  C   C899      1.0  0.02849  0.30037  0.69967  1.0000
  H   H712      1.0  0.09458  0.24117  0.74378  1.0000
  S   S136      1.0  0.11062  0.34038  0.97114  1.0000
  C   C900      1.0  0.15415  0.42384  0.71745  1.0000
  H   H713      1.0  0.13679  0.30969  0.85509  1.0000
  P   P28       1.0  0.09510  0.30531  0.75792  1.0000
  S   S137      1.0  0.03591  0.47950  0.73317  1.0000
  C   C901      1.0  0.06700  0.31447  0.74129  1.0000
  H   H714      1.0  0.02336  0.32266  0.94385  1.0000
  C   C902      1.0  0.15555  0.32502  0.94001  1.0000
  C   C903      1.0  0.01990  0.28624  0.70418  1.0000
  C   C904      1.0  0.12350  0.32104  0.75260  1.0000
  C   C905      1.0  0.13345  0.32986  0.75742  1.0000
  C   C906      1.0  0.12732  0.33539  0.77321  1.0000
  C   C907      1.0  0.11123  0.33218  0.78404  1.0000
  H   H715      1.0  0.12849  0.31661  0.74045  1.0000
  H   H716      1.0  0.14609  0.33204  0.74915  1.0000
  H   H717      1.0  0.13510  0.34186  0.77731  1.0000
  H   H718      1.0  0.10650  0.33617  0.79637  1.0000
  C   C908      1.0  0.11094  0.30956  0.90799  1.0000
  C   C909      1.0  0.09582  0.32082  0.90289  1.0000
  C   C910      1.0  0.09638  0.33799  0.89363  1.0000
  C   C911      1.0  0.11205  0.34401  0.88970  1.0000
  C   C912      1.0  0.12709  0.33296  0.89543  1.0000
  C   C913      1.0  0.12659  0.31552  0.90413  1.0000
  P   P29       1.0  0.14757  0.34025  0.89001  1.0000
  C   C914      1.0  0.16105  0.33008  0.87223  1.0000
  C   C915      1.0  0.14368  0.36392  0.88414  1.0000
  C   C916      1.0  0.13332  0.37362  0.89667  1.0000
  C   C917      1.0  0.13059  0.39192  0.89268  1.0000
  C   C918      1.0  0.13822  0.40066  0.87618  1.0000
  C   C919      1.0  0.14888  0.39111  0.86376  1.0000
  C   C920      1.0  0.15169  0.37279  0.86770  1.0000
  C   C921      1.0  0.15555  0.33455  0.85636  1.0000
  C   C922      1.0  0.16523  0.32602  0.84283  1.0000
  C   C923      1.0  0.18022  0.31270  0.84515  1.0000
  C   C924      1.0  0.18557  0.30791  0.86102  1.0000
  C   C925      1.0  0.17596  0.31646  0.87458  1.0000
  C   C926      1.0  0.15758  0.33432  0.90867  1.0000
  C   C927      1.0  0.17485  0.33653  0.90643  1.0000
  H   H719      1.0  0.12341  0.42193  0.93932  1.0000
  H   H720      1.0  0.09898  0.27090  0.78291  1.0000
  C   C928      1.0  0.06639  0.26004  0.68235  1.0000
  C   C929      1.0  0.14783  0.32895  0.92563  1.0000
  H   H721      1.0  0.11041  0.29627  0.91514  1.0000
  H   H722      1.0  0.11239  0.35721  0.88218  1.0000
  H   H723      1.0  0.13818  0.30659  0.90826  1.0000
  H   H724      1.0  0.12752  0.36707  0.90965  1.0000
  H   H725      1.0  0.12267  0.39930  0.90248  1.0000
  H   H726      1.0  0.13595  0.41486  0.87303  1.0000
  H   H727      1.0  0.15485  0.39802  0.85102  1.0000
  H   H728      1.0  0.16026  0.36573  0.85797  1.0000
  H   H729      1.0  0.14356  0.34439  0.85457  1.0000
  H   H730      1.0  0.16074  0.32933  0.83073  1.0000
  H   H731      1.0  0.18747  0.30587  0.83476  1.0000
  H   H732      1.0  0.19699  0.29734  0.86293  1.0000
  H   H733      1.0  0.17998  0.31210  0.88695  1.0000
  H   H734      1.0  0.18229  0.34142  0.89354  1.0000
  Fe  Fe72      1.0  0.13065  0.24076  0.79901  1.0000
  C   C930      1.0  0.18251  0.33270  0.92086  1.0000
  H   H735      1.0  0.00938  0.33664  0.66792  1.0000
  H   H736      1.0  0.13418  0.32803  0.92796  1.0000
  C   C931      1.0  0.09438  0.30447  0.87048  1.0000
  H   H737      1.0  0.08928  0.32042  0.78842  1.0000
  S   S138      1.0  0.03032  0.33418  0.69840  1.0000
  H   H738      1.0  0.06171  0.29252  0.71187  1.0000
  H   H739      1.0  0.07805  0.26894  0.74222  1.0000
  C   C932      1.0  0.00884  0.42600  0.73564  1.0000
  H   H740      1.0  0.16609  0.42855  0.71033  1.0000
  H   H741      1.0  0.06843  0.32089  0.69505  1.0000
  S   S139      1.0  0.11954  0.23457  0.77956  1.0000
  C   C933      1.0  0.07436  0.40199  0.73129  1.0000
  C   C934      1.0  0.07985  0.26458  0.95406  1.0000
  C   C935      1.0  0.13144  0.40886  0.71899  1.0000
  C   C936      1.0  0.12387  0.41093  0.73612  1.0000
  C   C937      1.0  0.13099  0.42007  0.74381  1.0000
  C   C938      1.0  0.14659  0.42595  0.73456  1.0000
  P   P30       1.0  0.12149  0.42197  0.76620  1.0000
  C   C939      1.0  0.09753  0.42645  0.76968  1.0000
  C   C940      1.0  0.13025  0.40153  0.77995  1.0000
  C   C941      1.0  0.12061  0.39578  0.79682  1.0000
  C   C942      1.0  0.12742  0.37996  0.80740  1.0000
  C   C943      1.0  0.14397  0.36985  0.80128  1.0000
  C   C944      1.0  0.15378  0.37555  0.78459  1.0000
  C   C945      1.0  0.14700  0.39136  0.77397  1.0000
  C   C946      1.0  0.08769  0.44379  0.76647  1.0000
  C   C947      1.0  0.06918  0.44730  0.76961  1.0000
  C   C948      1.0  0.06028  0.43354  0.77626  1.0000
  C   C949      1.0  0.06993  0.41625  0.77920  1.0000
  C   C950      1.0  0.08848  0.41268  0.77555  1.0000
  C   C951      1.0  0.12732  0.43984  0.77098  1.0000
  C   C952      1.0  0.12890  0.45537  0.75824  1.0000
  C   C953      1.0  0.13344  0.46914  0.76199  1.0000
  C   C954      1.0  0.13606  0.46768  0.77859  1.0000
  C   C955      1.0  0.13418  0.45245  0.79141  1.0000
  C   C956      1.0  0.12976  0.43860  0.78770  1.0000
  H   H742      1.0  0.12576  0.40200  0.71303  1.0000
  H   H743      1.0  0.11256  0.40526  0.74343  1.0000
  H   H744      1.0  0.15311  0.43191  0.74062  1.0000
  H   H745      1.0  0.10778  0.40346  0.80177  1.0000
  H   H746      1.0  0.11978  0.37540  0.82030  1.0000
  H   H747      1.0  0.14911  0.35753  0.80948  1.0000
  H   H748      1.0  0.16662  0.36766  0.77991  1.0000
  H   H749      1.0  0.15490  0.39556  0.76115  1.0000
  H   H750      1.0  0.09416  0.45472  0.76155  1.0000
  H   H751      1.0  0.06175  0.46074  0.76713  1.0000
  H   H752      1.0  0.04590  0.43626  0.77928  1.0000
  H   H753      1.0  0.09568  0.39918  0.77774  1.0000
  H   H754      1.0  0.12625  0.45702  0.74553  1.0000
  C   C957      1.0  0.07367  0.24823  0.69605  1.0000
  H   H755      1.0  0.14526  0.25116  0.72753  1.0000
  H   H756      1.0  0.13591  0.45144  0.80438  1.0000
  H   H757      1.0  0.12800  0.42712  0.79804  1.0000
  H   H758      1.0  0.12610  0.43586  0.96176  1.0000
  H   H759      1.0  0.99833  0.42191  0.73296  1.0000
  H   H760      1.0  0.04426  0.25076  0.72132  1.0000
  H   H761      1.0  0.16481  0.28734  0.79047  1.0000
  C   C958      1.0  0.10745  0.31750  0.76369  1.0000
  H   H762      1.0  0.08378  0.31606  0.90587  1.0000
  C   C959      1.0  0.00490  0.43578  0.74837  1.0000
  Fe  Fe73      1.0  0.01374  0.36049  0.70400  1.0000
  H   H763      1.0  0.00654  0.44012  0.70084  1.0000
  C   C960      1.0  0.11084  0.28836  0.74785  1.0000
  C   C961      1.0  0.01555  0.44744  0.69111  1.0000
  S   S140      1.0  0.02355  0.38048  0.71118  1.0000
  H   H764      1.0  0.09620  0.34029  0.73492  1.0000
  C   C962      1.0  0.14648  0.41544  0.70960  1.0000
  S   S141      1.0  0.10866  0.23365  0.82169  1.0000
  S   S142      1.0  0.02199  0.42231  0.67127  1.0000
  C   C963      1.0  0.02432  0.44166  0.67562  1.0000
  C   C964      1.0  0.08652  0.27705  0.69986  1.0000
  C   C965      1.0  0.06741  0.39668  0.74919  1.0000
  C   C966      1.0  0.10141  0.32315  0.77944  1.0000
  C   C967      1.0  0.10618  0.29424  0.67789  1.0000
  C   C968      1.0  0.09767  0.28639  0.87718  1.0000
  C   C969      1.0  0.06077  0.39810  0.69927  1.0000
  S   S143      1.0  0.14475  0.26318  0.79200  1.0000
  C   C970      1.0  0.03512  0.45181  0.66263  1.0000
  H   H765      1.0  0.05146  0.35021  0.71204  1.0000
  C   C971      1.0  0.08468  0.29402  0.94927  1.0000
  H   H766      1.0  0.01534  0.44863  0.76175  1.0000
  H   H767      1.0  0.01145  0.46727  0.70583  1.0000
  H   H768      1.0  0.06106  0.28840  0.94668  1.0000
  H   H769      1.0  0.09754  0.29131  0.72714  1.0000
  P   P31       1.0  0.06271  0.42094  0.71811  1.0000
  C   C972      1.0  0.07294  0.47022  0.70144  1.0000
  H   H770      1.0  0.14292  0.27773  0.86675  1.0000
  H   H771      1.0  0.01412  0.45279  0.82920  1.0000
  H   H772      1.0  0.04945  0.27662  0.82011  1.0000
  C   C973      1.0  0.02912  0.47298  0.68069  1.0000
  C   C974      1.0  0.13583  0.26175  0.73297  1.0000
  H   H773      1.0  0.10594  0.32688  0.85768  1.0000
  C   C975      1.0  0.09205  0.45352  0.72132  1.0000
  C   C976      1.0  0.13518  0.24166  0.86893  1.0000
  H   H774      1.0  0.08929  0.42708  0.73299  1.0000
  Fe  Fe74      1.0  0.00110  0.24313  0.71969  1.0000
  H   H775      1.0  0.07890  0.25887  0.80963  1.0000
  H   H776      1.0  0.11117  0.23556  0.69018  1.0000
  C   C977      1.0  0.10233  0.27798  0.68715  1.0000
  C   C978      1.0  0.09430  0.23936  0.87931  1.0000
  C   C979      1.0  0.07395  0.28284  0.94977  1.0000
  H   H777      1.0  0.05354  0.27387  0.76754  1.0000
  C   C980      1.0  0.06327  0.25905  0.72995  1.0000
  C   C981      1.0  0.06098  0.25380  0.67076  1.0000
  H   H778      1.0  0.06386  0.30200  0.74863  1.0000
  C   C982      1.0  0.03005  0.32471  0.96688  1.0000
  C   C983      1.0  0.09303  0.37273  0.75151  1.0000
  C   C984      1.0  0.10875  0.28433  0.73299  1.0000
  H   H779      1.0  0.02643  0.27439  0.69942  1.0000
  C   C985      1.0  0.03998  0.42670  0.72974  1.0000
  C   C986      1.0  0.01816  0.46296  0.69380  1.0000
  C   C987      1.0  0.17288  0.32686  0.93764  1.0000
  H   H780      1.0  0.19581  0.33448  0.91908  1.0000
  C   C988      1.0  0.05605  0.32563  0.73033  1.0000
  C   C989      1.0  0.09080  0.39254  0.72360  1.0000
  C   C990      1.0  0.03491  0.26640  0.75800  1.0000
  C   C991      1.0  0.10003  0.37783  0.73367  1.0000
  P   P32       1.0  0.11975  0.25322  0.88504  1.0000
  C   C992      1.0  0.05151  0.26926  0.75714  1.0000
  H   H781      1.0  0.02404  0.26895  0.76895  1.0000
  H   H782      1.0  0.09093  0.48076  0.70880  1.0000
  C   C993      1.0  0.03338  0.48230  0.79630  1.0000
  C   C994      1.0  0.02574  0.46970  0.88263  1.0000
  C   C995      1.0  0.03649  0.45545  0.89169  1.0000
  C   C996      1.0  0.05294  0.45692  0.89329  1.0000
  C   C997      1.0  0.05798  0.47308  0.88661  1.0000
  P   P33       1.0  0.06671  0.43846  0.90498  1.0000
  C   C998      1.0  0.05409  0.43460  0.92724  1.0000
  C   C999      1.0  0.07223  0.41960  0.89532  1.0000
  C   C1000     1.0  0.08296  0.40396  0.90259  1.0000
  C   C1001     1.0  0.08680  0.38909  0.89569  1.0000
  C   C1002     1.0  0.08038  0.38981  0.88124  1.0000
  C   C1003     1.0  0.07027  0.40547  0.87351  1.0000
  C   C1004     1.0  0.06644  0.42041  0.88032  1.0000
  C   C1005     1.0  0.04557  0.44897  0.93509  1.0000
  C   C1006     1.0  0.03533  0.44648  0.95211  1.0000
  C   C1007     1.0  0.03349  0.42962  0.96146  1.0000
  C   C1008     1.0  0.04179  0.41525  0.95371  1.0000
  C   C1009     1.0  0.05197  0.41772  0.93664  1.0000
  C   C1010     1.0  0.08745  0.44373  0.90398  1.0000
  C   C1011     1.0  0.10101  0.44300  0.88886  1.0000
  C   C1012     1.0  0.11696  0.44745  0.88771  1.0000
  C   C1013     1.0  0.11946  0.45282  0.90152  1.0000
  C   C1014     1.0  0.10606  0.45358  0.91660  1.0000
  C   C1015     1.0  0.09013  0.44901  0.91787  1.0000
  C   C1016     1.0  0.08054  0.29581  0.77735  1.0000
  C   C1017     1.0  0.00245  0.28794  0.71405  1.0000
  C   C1018     1.0  0.10081  0.24044  0.71632  1.0000
  H   H783      1.0  0.03217  0.44316  0.89718  1.0000
  H   H784      1.0  0.07035  0.47467  0.88812  1.0000
  H   H785      1.0  0.08810  0.40315  0.91382  1.0000
  H   H786      1.0  0.09457  0.37696  0.90171  1.0000
  H   H787      1.0  0.08311  0.37823  0.87607  1.0000
  H   H788      1.0  0.06545  0.40603  0.86217  1.0000
  H   H789      1.0  0.05912  0.43247  0.87366  1.0000
  H   H790      1.0  0.04688  0.46213  0.92800  1.0000
  S   S144      1.0  0.07236  0.33286  0.97022  1.0000
  C   C1019     1.0  0.06284  0.23577  0.67276  1.0000
  H   H791      1.0  0.04026  0.40212  0.96076  1.0000
  H   H792      1.0  0.05786  0.40637  0.93092  1.0000
  H   H793      1.0  0.09924  0.43915  0.87786  1.0000
  H   H794      1.0  0.12733  0.44693  0.87598  1.0000
  H   H795      1.0  0.13172  0.45653  0.90051  1.0000
  H   H796      1.0  0.10801  0.45785  0.92726  1.0000
  H   H797      1.0  0.08001  0.44977  0.92965  1.0000
  C   C1020     1.0  0.01845  0.44098  0.75190  1.0000
  H   H798      1.0  0.14689  0.23811  0.94643  1.0000
  H   H799      1.0  0.00730  0.30588  0.67155  1.0000
  C   C1021     1.0  0.06386  0.30591  0.78359  1.0000
  H   H800      1.0  0.05956  0.31925  0.77679  1.0000
  C   C1022     1.0  0.12126  0.27106  0.72560  1.0000
  H   H801      1.0  0.09042  0.25415  0.91576  1.0000
  C   C1023     1.0  0.12931  0.28509  0.86798  1.0000
  H   H802      1.0  0.05920  0.38001  0.68507  1.0000
  C   C1024     1.0  0.00257  0.31749  0.71544  1.0000
  H   H803      1.0  0.09994  0.36131  0.75941  1.0000
  H   H804      1.0  0.10169  0.45296  0.72855  1.0000
  H   H805      1.0  0.01332  0.46831  0.88100  1.0000
  H   H806      1.0  0.08642  0.28031  0.88312  1.0000
  C   C1025     1.0  0.02626  0.31574  0.95649  1.0000
  C   C1026     1.0  0.01977  0.31614  0.70514  1.0000
  H   H807      1.0  0.13357  0.27443  0.90048  1.0000
  H   H808      1.0  0.09633  0.39643  0.70978  1.0000
  C   C1027     1.0  0.00322  0.48068  0.82336  1.0000
  C   C1028     1.0  0.03104  0.46617  0.80730  1.0000
  C   C1029     1.0  0.13441  0.26137  0.90854  1.0000
  H   H809      1.0  0.08154  0.44139  0.96065  1.0000
  H   H810      1.0  0.02993  0.33863  0.96236  1.0000
  H   H811      1.0  0.02888  0.41390  0.71658  1.0000
  C   C1030     1.0  0.12593  0.30318  0.86148  1.0000
  S   S145      1.0  0.11804  0.38783  0.94129  1.0000
  H   H812      1.0  0.07149  0.37833  0.77305  1.0000
  Fe  Fe75      1.0  0.10060  0.32816  0.95531  1.0000
  H   H813      1.0  0.13142  0.26332  0.84666  1.0000
  C   C1031     1.0  0.07687  0.38224  0.75923  1.0000
  H   H814      1.0  0.04101  0.45430  0.80551  1.0000
  H   H815      1.0  0.08085  0.31200  0.87132  1.0000
  C   C1032     1.0  0.11975  0.39757  0.95735  1.0000
  H   H816      1.0  0.02365  0.29083  0.95422  1.0000
  C   C1033     1.0  0.06578  0.23773  0.89906  1.0000
  C   C1034     1.0  0.08514  0.43880  0.72366  1.0000
  C   C1035     1.0  0.09406  0.30972  0.68089  1.0000
  C   C1036     1.0  0.03240  0.25996  0.74490  1.0000
  C   C1037     1.0  0.05808  0.28203  0.80822  1.0000
  H   H817      1.0  0.05655  0.38988  0.71191  1.0000
  C   C1038     1.0  0.03750  0.46731  0.66513  1.0000
  H   H818      1.0  0.13924  0.47843  0.78167  1.0000
  H   H819      1.0  0.17872  0.32402  0.94886  1.0000
  H   H820      1.0  0.12061  0.26325  0.95986  1.0000
  H   H821      1.0  0.07530  0.42722  0.65377  1.0000
  C   C1039     1.0  0.14199  0.24096  0.93464  1.0000
  C   C1040     1.0  0.10396  0.23586  0.73324  1.0000
  H   H822      1.0  0.09719  0.47925  0.76922  1.0000
  C   C1041     1.0  0.07761  0.23537  0.88331  1.0000
  H   H823      1.0  0.13438  0.48115  0.75221  1.0000
  C   C1042     1.0  0.14966  0.24084  0.83866  1.0000
  H   H824      1.0  0.10322  0.23741  0.86701  1.0000
  C   C1043     1.0  0.99664  0.33297  0.67299  1.0000
  H   H825      1.0  0.06777  0.48252  0.69323  1.0000
  H   H826      1.0  0.05307  0.23410  0.90233  1.0000
  H   H827      1.0  0.99564  0.32942  0.71974  1.0000
  H   H828      1.0  0.01165  0.57057  0.13254  1.0000
  S   S146      1.0  0.36888  0.69297  0.03127  1.0000
  H   H829      1.0  0.26513  0.73217  0.10375  1.0000
  P   P34       1.0  0.12698  0.69999  0.06871  1.0000
  S   S147      1.0  0.35510  0.71781  0.05999  1.0000
  C   C1044     1.0  0.09472  0.52230  0.06179  1.0000
  Fe  Fe76      1.0  0.38131  0.70581  0.04451  1.0000
  S   S148      1.0  0.40647  0.69073  0.05370  1.0000
  Fe  Fe77      1.0  0.34270  0.70738  0.04449  1.0000
  S   S149      1.0  0.31797  0.69639  0.05625  1.0000
  C   C1045     1.0  0.00283  0.56086  0.09939  1.0000
  P   P35       1.0  0.04130  0.72190  0.12945  1.0000
  Fe  Fe78      1.0  0.00599  0.49805  0.14114  1.0000
  H   H830      1.0  0.13605  0.49603  0.05677  1.0000
  C   C1046     1.0  0.18887  0.65761  0.98476  1.0000
  C   C1047     1.0  0.05952  0.66848  0.11321  1.0000
  C   C1048     1.0  0.01950  0.68272  0.27907  1.0000
  H   H831      1.0  0.16996  0.49569  0.03154  1.0000
  C   C1049     1.0  0.13500  0.56654  0.10143  1.0000
  H   H832      1.0  0.07859  0.69399  0.01122  1.0000
  C   C1050     1.0  0.42779  0.71650  0.98751  1.0000
  C   C1051     1.0  0.13319  0.54912  0.10490  1.0000
  C   C1052     1.0  0.09742  0.57634  0.05742  1.0000
  H   H833      1.0  0.19993  0.55788  0.99352  1.0000
  H   H834      1.0  0.41449  0.71771  0.98600  1.0000
  Fe  Fe79      1.0  0.20309  0.71723  0.00449  1.0000
  C   C1053     1.0  0.04423  0.52940  0.07860  1.0000
  H   H835      1.0  0.04797  0.48966  0.15413  1.0000
  H   H836      1.0  0.09890  0.55810  0.04206  1.0000
  H   H837      1.0  0.15446  0.57967  0.04326  1.0000
  C   C1054     1.0  0.07276  0.58428  0.10767  1.0000
  C   C1055     1.0  0.43702  0.71962  0.07204  1.0000
  C   C1056     1.0  0.33254  0.66001  0.00923  1.0000
  C   C1057     1.0  0.35165  0.68086  0.99807  1.0000
  H   H838      1.0  0.19090  0.53884  0.98052  1.0000
  Fe  Fe80      1.0  0.01045  0.70875  0.21604  1.0000
  S   S150      1.0  0.01692  0.68164  0.21046  1.0000
  C   C1058     1.0  0.32673  0.72364  0.13982  1.0000
  C   C1059     1.0  0.13330  0.54551  0.13533  1.0000
  C   C1060     1.0  0.07047  0.48923  0.05768  1.0000
  H   H839      1.0  0.10211  0.66670  0.01093  1.0000
  H   H840      1.0  0.00041  0.63025  0.20572  1.0000
  Fe  Fe81      1.0  0.02802  0.63190  0.10684  1.0000
  S   S151      1.0  0.05541  0.63333  0.09012  1.0000
  H   H841      1.0  0.16475  0.69763  0.06681  1.0000
  H   H842      1.0  0.01638  0.57938  0.07954  1.0000
  H   H843      1.0  0.34020  0.72846  0.99102  1.0000
  Fe  Fe82      1.0  0.21199  0.68388  0.03147  1.0000
  S   S152      1.0  0.18907  0.70692  0.03167  1.0000
  S   S153      1.0  0.20907  0.65561  0.03837  1.0000
  Fe  Fe83      1.0  0.23867  0.70750  0.01527  1.0000
  C   C1061     1.0  0.18370  0.49623  0.97989  1.0000
  S   S154      1.0  0.26784  0.70745  0.00424  1.0000
  Fe  Fe84      1.0  0.20521  0.71998  0.04038  1.0000
  Fe  Fe85      1.0  0.02643  0.48406  0.10908  1.0000
  C   C1062     1.0  0.00478  0.53226  0.16151  1.0000
  S   S155      1.0  0.22707  0.69574  0.04307  1.0000
  H   H844      1.0  0.04747  0.57067  0.08937  1.0000
  Fe  Fe86      1.0  0.10954  0.60868  0.00747  1.0000
  H   H845      1.0  0.99942  0.68318  0.26605  1.0000
  S   S156      1.0  0.08040  0.60903  0.01822  1.0000
  C   C1063     1.0  0.04900  0.51639  0.14103  1.0000
  H   H846      1.0  0.08603  0.67170  0.10988  1.0000
  H   H847      1.0  0.02174  0.69663  0.12751  1.0000
  Fe  Fe87      1.0  0.13858  0.62412  0.01046  1.0000
  S   S157      1.0  0.14030  0.64595  0.02159  1.0000
  Fe  Fe88      1.0  0.99774  0.72947  0.24495  1.0000
  S   S158      1.0  0.12008  0.63256  0.99207  1.0000
  C   C1064     1.0  0.19038  0.65263  0.03303  1.0000
  C   C1065     1.0  0.17732  0.66708  0.02784  1.0000
  C   C1066     1.0  0.16225  0.66475  0.02412  1.0000
  C   C1067     1.0  0.16017  0.64793  0.02520  1.0000
  C   C1068     1.0  0.17332  0.63333  0.03008  1.0000
  C   C1069     1.0  0.18834  0.63568  0.03415  1.0000
  H   H848      1.0  0.17873  0.68014  0.02665  1.0000
  H   H849      1.0  0.15236  0.67612  0.01997  1.0000
  H   H850      1.0  0.17171  0.62029  0.03109  1.0000
  H   H851      1.0  0.19836  0.62440  0.03819  1.0000
  C   C1070     1.0  0.06127  0.62762  0.06966  1.0000
  C   C1071     1.0  0.12292  0.63397  0.06877  1.0000
  H   H852      1.0  0.45014  0.70863  0.01966  1.0000
  C   C1072     1.0  0.07254  0.61715  0.03749  1.0000
  C   C1073     1.0  0.08303  0.62524  0.04247  1.0000
  C   C1074     1.0  0.07746  0.63035  0.05852  1.0000
  C   C1075     1.0  0.99790  0.69388  0.16644  1.0000
  H   H853      1.0  0.40827  0.68948  0.16163  1.0000
  H   H854      1.0  0.09548  0.62757  0.03396  1.0000
  H   H855      1.0  0.08578  0.63640  0.06229  1.0000
  C   C1076     1.0  0.01196  0.68054  0.19111  1.0000
  C   C1077     1.0  0.03579  0.69172  0.12323  1.0000
  C   C1078     1.0  0.19335  0.58186  0.05013  1.0000
  C   C1079     1.0  0.39450  0.69458  0.16719  1.0000
  C   C1080     1.0  0.01262  0.66324  0.17069  1.0000
  C   C1081     1.0  0.01737  0.66463  0.18553  1.0000
  C   C1082     1.0  0.04819  0.70103  0.12301  1.0000
  C   C1083     1.0  0.34539  0.68656  0.98268  1.0000
  H   H856      1.0  0.01639  0.65082  0.16675  1.0000
  H   H857      1.0  0.02487  0.65325  0.19295  1.0000
  H   H858      1.0  0.16705  0.58137  0.09069  1.0000
  C   C1084     1.0  0.10635  0.58182  0.06667  1.0000
  C   C1085     1.0  0.05226  0.70127  0.17791  1.0000
  C   C1086     1.0  0.06822  0.50292  0.11167  1.0000
  H   H859      1.0  0.13009  0.66659  0.98907  1.0000
  S   S159      1.0  0.15976  0.60779  0.99369  1.0000
  C   C1087     1.0  0.13919  0.52374  0.00971  1.0000
  C   C1088     1.0  0.11771  0.70832  0.08844  1.0000
  C   C1089     1.0  0.12164  0.50554  0.08009  1.0000
  C   C1090     1.0  0.05883  0.57023  0.09422  1.0000
  C   C1091     1.0  0.32576  0.66602  0.99400  1.0000
  C   C1092     1.0  0.32385  0.71527  0.15747  1.0000
  Fe  Fe89      1.0  0.00181  0.65159  0.13361  1.0000
  C   C1093     1.0  0.47417  0.69190  0.15544  1.0000
  H   H860      1.0  0.36355  0.68709  0.20492  1.0000
  H   H861      1.0  0.03167  0.71548  0.27397  1.0000
  S   S160      1.0  0.00505  0.51000  0.16337  1.0000
  C   C1094     1.0  0.07231  0.49177  0.03965  1.0000
  C   C1095     1.0  0.04182  0.48962  0.04436  1.0000
  C   C1096     1.0  0.44524  0.70902  0.15130  1.0000
  H   H862      1.0  0.02991  0.68217  0.26737  1.0000
  C   C1097     1.0  0.25882  0.65356  0.01612  1.0000
  C   C1098     1.0  0.09092  0.69402  0.00151  1.0000
  C   C1099     1.0  0.00257  0.67782  0.16132  1.0000
  C   C1100     1.0  0.09229  0.52418  0.07898  1.0000
  H   H863      1.0  0.10625  0.66653  0.03899  1.0000
  P   P36       1.0  0.31021  0.65546  0.99075  1.0000
  C   C1101     1.0  0.05431  0.52779  0.12523  1.0000
  Fe  Fe90      1.0  0.36851  0.71781  0.01074  1.0000
  H   H864      1.0  0.17653  0.48998  0.99237  1.0000
  H   H865      1.0  0.43231  0.71742  0.11770  1.0000
  H   H866      1.0  0.34567  0.58379  0.99351  1.0000
  H   H867      1.0  0.08212  0.67892  0.27346  1.0000
  H   H868      1.0  0.09663  0.56865  0.11580  1.0000
  H   H869      1.0  0.08805  0.70557  0.08084  1.0000
  C   C1102     1.0  0.19627  0.56303  0.98096  1.0000
  H   H870      1.0  0.09890  0.71031  0.30652  1.0000
  C   C1103     1.0  0.33886  0.59740  0.99294  1.0000
  H   H871      1.0  0.10529  0.59637  0.10430  1.0000
  H   H872      1.0  0.13212  0.70717  0.03026  1.0000
  C   C1104     1.0  0.30412  0.69962  0.04170  1.0000
  C   C1105     1.0  0.28626  0.69865  0.04835  1.0000
  C   C1106     1.0  0.27496  0.70133  0.03699  1.0000
  C   C1107     1.0  0.28159  0.70431  0.01891  1.0000
  C   C1108     1.0  0.29956  0.70486  0.01231  1.0000
  C   C1109     1.0  0.31070  0.70286  0.02363  1.0000
  H   H873      1.0  0.28109  0.69609  0.06231  1.0000
  H   H874      1.0  0.26115  0.70098  0.04224  1.0000
  H   H875      1.0  0.30482  0.70719  0.99838  1.0000
  H   H876      1.0  0.32443  0.70365  0.01836  1.0000
  C   C1110     1.0  0.05819  0.49140  0.03300  1.0000
  C   C1111     1.0  0.05330  0.64764  0.29147  1.0000
  H   H877      1.0  0.07464  0.67431  0.05393  1.0000
  C   C1112     1.0  0.05813  0.73044  0.15102  1.0000
  H   H878      1.0  0.29764  0.62214  0.00414  1.0000
  H   H879      1.0  0.23511  0.71407  0.07802  1.0000
  H   H880      1.0  0.48306  0.67928  0.15841  1.0000
  H   H881      1.0  0.28571  0.72571  0.07218  1.0000
  C   C1113     1.0  0.05293  0.72185  0.25241  1.0000
  C   C1114     1.0  0.00453  0.57763  0.08955  1.0000
  H   H882      1.0  0.01337  0.54960  0.09706  1.0000
  C   C1115     1.0  0.41847  0.72282  0.07687  1.0000
  C   C1116     1.0  0.40897  0.71477  0.07044  1.0000
  C   C1117     1.0  0.41805  0.70246  0.06023  1.0000
  C   C1118     1.0  0.17083  0.58099  0.07701  1.0000
  H   H883      1.0  0.39466  0.71769  0.07377  1.0000
  H   H884      1.0  0.44375  0.68878  0.04852  1.0000
  C   C1119     1.0  0.46906  0.72377  0.14731  1.0000
  C   C1120     1.0  0.00225  0.55511  0.17650  1.0000
  H   H885      1.0  0.14507  0.55104  0.06185  1.0000
  C   C1121     1.0  0.13169  0.55814  0.06091  1.0000
  C   C1122     1.0  0.18480  0.67570  0.98361  1.0000
  H   H886      1.0  0.27545  0.65051  0.99113  1.0000
  H   H887      1.0  0.01392  0.72679  0.11011  1.0000
  H   H888      1.0  0.01135  0.53955  0.13348  1.0000
  S   S161      1.0  0.14387  0.48730  0.02023  1.0000
  H   H889      1.0  0.19951  0.58903  0.97873  1.0000
  C   C1123     1.0  0.07380  0.69086  0.26780  1.0000
  H   H890      1.0  0.13255  0.53743  0.14843  1.0000
  H   H891      1.0  0.36147  0.68678  0.99967  1.0000
  H   H892      1.0  0.31319  0.59137  0.00519  1.0000
  H   H893      1.0  0.06564  0.69395  0.07476  1.0000
  C   C1124     1.0  0.00754  0.73099  0.12226  1.0000
  H   H894      1.0  0.35003  0.66334  0.02334  1.0000
  C   C1125     1.0  0.00583  0.56699  0.16058  1.0000
  C   C1126     1.0  0.04402  0.55866  0.05078  1.0000
  H   H895      1.0  0.43166  0.70970  0.15118  1.0000
  C   C1127     1.0  0.05829  0.65985  0.29741  1.0000
  Fe  Fe91      1.0  0.14606  0.58564  0.00815  1.0000
  H   H896      1.0  0.04005  0.69454  0.16113  1.0000
  H   H897      1.0  0.05058  0.54176  0.12470  1.0000
  Fe  Fe92      1.0  0.47627  0.73188  0.06477  1.0000
  C   C1128     1.0  0.44127  0.69268  0.11032  1.0000
  S   S162      1.0  0.01019  0.51072  0.11264  1.0000
  H   H898      1.0  0.04440  0.51782  0.08903  1.0000
  H   H899      1.0  0.33326  0.70357  0.16200  1.0000
  H   H900      1.0  0.08483  0.49359  0.03093  1.0000
  C   C1129     1.0  0.11015  0.69284  0.06320  1.0000
  C   C1130     1.0  0.13709  0.71658  0.03360  1.0000
  H   H901      1.0  0.13582  0.55203  0.00303  1.0000
  H   H902      1.0  0.13075  0.52531  0.12440  1.0000
  C   C1131     1.0  0.16373  0.58002  0.05043  1.0000
  C   C1132     1.0  0.18820  0.58196  0.06792  1.0000
  C   C1133     1.0  0.00241  0.69523  0.18137  1.0000
  C   C1134     1.0  0.06638  0.69356  0.11842  1.0000
  H   H903      1.0  0.04968  0.69014  0.18846  1.0000
  S   S163      1.0  0.02431  0.71431  0.23361  1.0000
  H   H904      1.0  0.04846  0.59629  0.09905  1.0000
  C   C1135     1.0  0.05546  0.54073  0.07619  1.0000
  C   C1136     1.0  0.08634  0.56927  0.10935  1.0000
  H   H905      1.0  0.04740  0.71625  0.30103  1.0000
  C   C1137     1.0  0.28950  0.65679  0.00695  1.0000
  H   H906      1.0  0.10137  0.65122  0.08239  1.0000
  H   H907      1.0  0.03172  0.66855  0.11841  1.0000
  H   H908      1.0  0.44647  0.66794  0.10306  1.0000
  C   C1138     1.0  0.23640  0.72653  0.07939  1.0000
  C   C1139     1.0  0.10563  0.56194  0.04974  1.0000
  C   C1140     1.0  0.30695  0.72842  0.08155  1.0000
  C   C1141     1.0  0.13227  0.53870  0.12179  1.0000
  H   H909      1.0  0.13235  0.54352  0.09467  1.0000
  C   C1142     1.0  0.05584  0.69586  0.27583  1.0000
  H   H910      1.0  0.04787  0.60863  0.04458  1.0000
  H   H911      1.0  0.08169  0.48877  0.06279  1.0000
  H   H912      1.0  0.03777  0.61816  0.07288  1.0000
  S   S164      1.0  0.02559  0.62952  0.13543  1.0000
  H   H913      1.0  0.02410  0.54980  0.04449  1.0000
  C   C1143     1.0  0.16673  0.52372  0.02447  1.0000
  H   H914      1.0  0.06443  0.56389  0.05954  1.0000
  C   C1144     1.0  0.08445  0.67974  0.05628  1.0000
  C   C1145     1.0  0.45662  0.69274  0.15528  1.0000
  H   H915      1.0  0.38490  0.71040  0.10713  1.0000
  H   H916      1.0  0.99914  0.52889  0.18942  1.0000
  C   C1146     1.0  0.07370  0.65467  0.30413  1.0000
  C   C1147     1.0  0.07943  0.69076  0.06806  1.0000
  C   C1148     1.0  0.09220  0.69732  0.07149  1.0000
  H   H917      1.0  0.41611  0.66304  0.11704  1.0000
  C   C1149     1.0  0.12525  0.60280  0.08101  1.0000
  H   H918      1.0  0.00015  0.55914  0.18861  1.0000
  C   C1150     1.0  0.13537  0.56274  0.13196  1.0000
  H   H919      1.0  0.04150  0.52155  0.15245  1.0000
  C   C1151     1.0  0.40700  0.68735  0.12585  1.0000
  C   C1152     1.0  0.36663  0.71551  0.16528  1.0000
  C   C1153     1.0  0.06244  0.49161  0.12735  1.0000
  S   S165      1.0  0.10900  0.50248  0.98873  1.0000
  C   C1154     1.0  0.05609  0.61478  0.04842  1.0000
  H   H920      1.0  0.04415  0.56988  0.03985  1.0000
  C   C1155     1.0  0.05041  0.62008  0.06447  1.0000
  H   H921      1.0  0.21290  0.72936  0.09987  1.0000
  C   C1156     1.0  0.41125  0.70298  0.12592  1.0000
  H   H922      1.0  0.24738  0.65103  0.01344  1.0000
  S   S166      1.0  0.06157  0.49138  0.01083  1.0000
  C   C1157     1.0  0.07272  0.55524  0.09533  1.0000
  S   S167      1.0  0.44841  0.73053  0.07979  1.0000
  C   C1158     1.0  0.16252  0.50792  0.02519  1.0000
  S   S168      1.0  0.22545  0.69362  0.00394  1.0000
  C   C1159     1.0  0.05909  0.58474  0.10007  1.0000
  C   C1160     1.0  0.36932  0.69318  0.19172  1.0000
  H   H923      1.0  0.09491  0.69722  0.24574  1.0000
  C   C1161     1.0  0.32124  0.63267  0.99161  1.0000
  H   H924      1.0  0.12769  0.64442  0.05859  1.0000
  C   C1162     1.0  0.01748  0.72960  0.13445  1.0000
  H   H925      1.0  0.20676  0.58272  0.04305  1.0000
  C   C1163     1.0  0.06328  0.72797  0.16671  1.0000
  C   C1164     1.0  0.43096  0.71243  0.00434  1.0000
  P   P37       1.0  0.13560  0.58029  0.07975  1.0000
  S   S169      1.0  0.12677  0.60138  0.02680  1.0000
  C   C1165     1.0  0.09351  0.70925  0.98886  1.0000
  H   H926      1.0  0.34554  0.71279  0.18821  1.0000
  C   C1166     1.0  0.04144  0.67561  0.11820  1.0000
  C   C1167     1.0  0.07201  0.67738  0.11347  1.0000
  H   H927      1.0  0.42034  0.71006  0.01569  1.0000
  H   H928      1.0  0.07615  0.70028  0.11871  1.0000
  C   C1168     1.0  0.15354  0.72766  0.30445  1.0000
  C   C1169     1.0  0.12263  0.55269  0.05174  1.0000
  H   H929      1.0  0.07550  0.49745  0.10037  1.0000
  C   C1170     1.0  0.04554  0.71149  0.26806  1.0000
  Fe  Fe93      1.0  0.00705  0.61184  0.13926  1.0000
  H   H930      1.0  0.06382  0.71186  0.19249  1.0000
  H   H931      1.0  0.45189  0.68079  0.15811  1.0000
  P   P38       1.0  0.39437  0.71947  0.13585  1.0000
  H   H932      1.0  0.14338  0.72844  0.06803  1.0000
  H   H933      1.0  0.39489  0.67554  0.19151  1.0000
  H   H934      1.0  0.30621  0.71505  0.18275  1.0000
  H   H935      1.0  0.04167  0.65124  0.28600  1.0000
  C   C1171     1.0  0.14536  0.68166  0.07240  1.0000
  S   S170      1.0  0.34146  0.73137  0.02296  1.0000
  C   C1172     1.0  0.11502  0.68187  0.05129  1.0000
  C   C1173     1.0  0.10223  0.67540  0.04784  1.0000
  C   C1174     1.0  0.25752  0.65721  0.03220  1.0000
  H   H936      1.0  0.31086  0.71444  0.08664  1.0000
  C   C1175     1.0  0.31177  0.61923  0.99886  1.0000
  C   C1176     1.0  0.16236  0.68451  0.07028  1.0000
  C   C1177     1.0  0.17670  0.67031  0.07233  1.0000
  C   C1178     1.0  0.17420  0.65316  0.07659  1.0000
  C   C1179     1.0  0.15723  0.65019  0.07930  1.0000
  C   C1180     1.0  0.14283  0.66439  0.07747  1.0000
  C   C1181     1.0  0.38698  0.68667  0.18417  1.0000
  C   C1182     1.0  0.33964  0.62823  0.98503  1.0000
  C   C1183     1.0  0.38434  0.70899  0.15755  1.0000
  C   C1184     1.0  0.03290  0.53272  0.06726  1.0000
  H   H937      1.0  0.07617  0.72451  0.23191  1.0000
  C   C1185     1.0  0.44613  0.70756  0.06152  1.0000
  C   C1186     1.0  0.30864  0.72176  0.16914  1.0000
  C   C1187     1.0  0.10580  0.51541  0.08816  1.0000
  C   C1188     1.0  0.34523  0.66761  0.01135  1.0000
  C   C1189     1.0  0.11046  0.51224  0.05387  1.0000
  C   C1190     1.0  0.05544  0.55528  0.06204  1.0000
  H   H938      1.0  0.12878  0.67785  0.04502  1.0000
  C   C1191     1.0  0.04962  0.71848  0.14883  1.0000
  H   H939      1.0  0.29857  0.66453  0.02583  1.0000
  H   H940      1.0  0.13791  0.58652  0.11272  1.0000
  H   H941      1.0  0.19205  0.68141  0.98919  1.0000
  H   H942      1.0  0.47443  0.71460  0.99397  1.0000
  H   H943      1.0  0.18990  0.67260  0.07003  1.0000
  H   H944      1.0  0.18552  0.64223  0.07743  1.0000
  H   H945      1.0  0.15532  0.63689  0.08251  1.0000
  H   H946      1.0  0.12978  0.66187  0.07984  1.0000
  C   C1192     1.0  0.13536  0.72843  0.30730  1.0000
  S   S171      1.0  0.00543  0.65525  0.10468  1.0000
  P   P39       1.0  0.04574  0.68225  0.29562  1.0000
  C   C1193     1.0  0.44781  0.71152  0.00663  1.0000
  C   C1194     1.0  0.06417  0.52109  0.11045  1.0000
  S   S172      1.0  0.01487  0.73272  0.19526  1.0000
  H   H947      1.0  0.14694  0.72796  0.00656  1.0000
  H   H948      1.0  0.19920  0.64927  0.99137  1.0000
  C   C1195     1.0  0.12006  0.67864  0.98893  1.0000
  H   H949      1.0  0.00065  0.51214  0.06544  1.0000
  C   C1196     1.0  0.07065  0.71660  0.24428  1.0000
  H   H950      1.0  0.25980  0.72737  0.05901  1.0000
  C   C1197     1.0  0.13593  0.71656  0.05111  1.0000
  S   S173      1.0  0.16263  0.55902  0.01728  1.0000
  C   C1198     1.0  0.03274  0.54737  0.05338  1.0000
  H   H951      1.0  0.09971  0.59326  0.07212  1.0000
  S   S174      1.0  0.12804  0.59112  0.98989  1.0000
  H   H952      1.0  0.23658  0.72931  0.12464  1.0000
  C   C1199     1.0  0.35917  0.70761  0.18229  1.0000
  H   H953      1.0  0.12899  0.54150  0.04581  1.0000
  C   C1200     1.0  0.02321  0.68325  0.29473  1.0000
  C   C1201     1.0  0.15712  0.53970  0.01661  1.0000
  C   C1202     1.0  0.18111  0.58083  0.04141  1.0000
  H   H954      1.0  0.16645  0.52154  0.98054  1.0000
  H   H955      1.0  0.12660  0.68378  0.10581  1.0000
  C   C1203     1.0  0.10416  0.67869  0.00144  1.0000
  C   C1204     1.0  0.07858  0.62538  0.29946  1.0000
  S   S175      1.0  0.37838  0.71635  0.98252  1.0000
  H   H956      1.0  0.49401  0.70628  0.15175  1.0000
  H   H957      1.0  0.06040  0.72283  0.09272  1.0000
  H   H958      1.0  0.39373  0.68515  0.13169  1.0000
  H   H959      1.0  0.02448  0.52372  0.06913  1.0000
  C   C1205     1.0  0.27470  0.65338  0.00353  1.0000
  H   H960      1.0  0.10387  0.51556  0.10175  1.0000
  H   H961      1.0  0.24517  0.65740  0.04191  1.0000
  H   H962      1.0  0.07257  0.59553  0.11246  1.0000
  C   C1206     1.0  0.32057  0.60168  0.99950  1.0000
  C   C1207     1.0  0.43666  0.69861  0.05608  1.0000
  H   H963      1.0  0.11211  0.51062  0.04072  1.0000
  C   C1208     1.0  0.43677  0.67745  0.10984  1.0000
  C   C1209     1.0  0.05282  0.49834  0.14204  1.0000
  H   H964      1.0  0.32807  0.64943  0.01947  1.0000
  C   C1210     1.0  0.46151  0.71477  0.99212  1.0000
  C   C1211     1.0  0.28789  0.66091  0.02301  1.0000
  H   H965      1.0  0.11295  0.69508  0.13268  1.0000
  C   C1212     1.0  0.37614  0.72247  0.10998  1.0000
  C   C1213     1.0  0.14877  0.50780  0.01789  1.0000
  C   C1214     1.0  0.12374  0.57296  0.06821  1.0000
  C   C1215     1.0  0.10824  0.63777  0.08218  1.0000
  H   H966      1.0  0.08638  0.61207  0.30027  1.0000
  H   H967      1.0  0.08443  0.52818  0.05446  1.0000
  H   H968      1.0  0.36302  0.72584  0.08924  1.0000
  H   H969      1.0  0.13623  0.56800  0.14245  1.0000
  C   C1216     1.0  0.00867  0.56155  0.14493  1.0000
  C   C1217     1.0  0.00168  0.53794  0.17696  1.0000
  H   H970      1.0  0.06374  0.65595  0.10936  1.0000
  C   C1218     1.0  0.12395  0.50395  0.06296  1.0000
  H   H971      1.0  0.08315  0.72107  0.98876  1.0000
  C   C1219     1.0  0.48035  0.70733  0.15160  1.0000
  H   H972      1.0  0.46046  0.70477  0.05797  1.0000
  H   H973      1.0  0.14222  0.61407  0.05715  1.0000
  C   C1220     1.0  0.00829  0.54409  0.14543  1.0000
  H   H974      1.0  0.13196  0.49872  0.08725  1.0000
  S   S176      1.0  0.18608  0.72371  0.98478  1.0000
  C   C1221     1.0  0.14335  0.53974  0.00911  1.0000
  C   C1222     1.0  0.10197  0.62413  0.09496  1.0000
  C   C1223     1.0  0.11151  0.70359  0.12009  1.0000
  H   H975      1.0  0.17734  0.52356  0.03030  1.0000
  C   C1224     1.0  0.08645  0.55490  0.10303  1.0000
  H   H976      1.0  0.19766  0.58295  0.07463  1.0000
  C   C1225     1.0  0.06030  0.71343  0.18015  1.0000
  H   H977      1.0  0.33834  0.71841  0.13071  1.0000
  C   C1226     1.0  0.13129  0.61659  0.06805  1.0000
  C   C1227     1.0  0.06339  0.63047  0.29257  1.0000
  H   H978      1.0  0.09016  0.62703  0.10497  1.0000
  H   H979      1.0  0.27080  0.66438  0.04786  1.0000
  H   H980      1.0  0.09695  0.54343  0.10469  1.0000
  C   C1228     1.0  0.08114  0.70120  0.25205  1.0000
  C   C1229     1.0  0.11049  0.60672  0.09444  1.0000
  H   H981      1.0  0.08427  0.58358  0.05582  1.0000
  C   C1230     1.0  0.13628  0.57320  0.11508  1.0000
  C   C1231     1.0  0.04683  0.70382  0.16238  1.0000
  C   C1232     1.0  0.41966  0.67474  0.11768  1.0000
  H   H982      1.0  0.18496  0.58079  0.02759  1.0000
  C   C1233     1.0  0.45145  0.72445  0.14720  1.0000
  S   S177      1.0  0.00750  0.58797  0.16142  1.0000
  C   C1234     1.0  0.27200  0.66099  0.03559  1.0000
  P   P40       1.0  0.07116  0.53563  0.08994  1.0000
  S   S178      1.0  0.01132  0.61239  0.11081  1.0000
  C   C1235     1.0  0.11928  0.69726  0.10480  1.0000
  C   C1236     1.0  0.15845  0.57992  0.06834  1.0000
  H   H983      1.0  0.12849  0.52376  0.00407  1.0000
  C   C1237     1.0  0.42855  0.70549  0.11818  1.0000
  H   H984      1.0  0.05942  0.62113  0.28800  1.0000
  H   H985      1.0  0.45442  0.69501  0.10387  1.0000
  C   C1238     1.0  0.14543  0.72844  0.02004  1.0000
  C   C1239     1.0  0.00223  0.68313  0.27830  1.0000
  C   C1240     1.0  0.36364  0.73120  0.09974  1.0000
  C   C1241     1.0  0.37770  0.72982  0.12302  1.0000
  S   S179      1.0  0.38285  0.72966  0.02285  1.0000
  C   C1242     1.0  0.34839  0.61067  0.98570  1.0000
  H   H986      1.0  0.03090  0.48939  0.03924  1.0000
  H   H987      1.0  0.41146  0.73165  0.08552  1.0000
  H   H988      1.0  0.28446  0.68658  0.97858  1.0000
  C   C1243     1.0  0.14329  0.72863  0.05474  1.0000
  H   H989      1.0  0.35856  0.72677  0.15832  1.0000
  C   C1244     1.0  0.10782  0.72563  0.08766  1.0000
  C   C1245     1.0  0.10196  0.72092  0.11918  1.0000
  C   C1246     1.0  0.03993  0.48718  0.06246  1.0000
  C   C1247     1.0  0.05443  0.48650  0.06911  1.0000
  H   H990      1.0  0.16243  0.71530  0.30837  1.0000
  H   H991      1.0  0.09610  0.72583  0.13104  1.0000
  H   H992      1.0  0.39667  0.73250  0.16558  1.0000
  Fe  Fe94      1.0  0.14039  0.61438  0.97643  1.0000
  H   H993      1.0  0.18195  0.63620  0.97933  1.0000
  H   H994      1.0  0.99821  0.70756  0.18551  1.0000
  C   C1248     1.0  0.17912  0.65026  0.97804  1.0000
  C   C1249     1.0  0.10006  0.73191  0.10298  1.0000
  C   C1250     1.0  0.33257  0.67912  0.98061  1.0000
  H   H995      1.0  0.36259  0.60737  0.98066  1.0000
  H   H996      1.0  0.34727  0.63834  0.97937  1.0000
  C   C1251     1.0  0.08375  0.63749  0.30522  1.0000
  S   S180      1.0  0.21748  0.73246  0.01301  1.0000
  H   H997      1.0  0.00750  0.48523  0.02843  1.0000
  H   H998      1.0  0.07799  0.66396  0.30847  1.0000
  C   C1252     1.0  0.34495  0.73294  0.97725  1.0000
  H   H999      1.0  0.02758  0.48500  0.07129  1.0000
  C   C1253     1.0  0.12281  0.69384  0.97622  1.0000
  C   C1254     1.0  0.17089  0.68642  0.97590  1.0000
  C   C1255     1.0  0.10933  0.70914  0.97614  1.0000
  C   C1256     1.0  0.10769  0.72060  0.54278  1.0000
  C   C1257     1.0  0.08909  0.73085  0.39599  1.0000
  H   H1000     1.0  0.01220  0.71482  0.58845  1.0000
  H   H1001     1.0  0.11758  0.70877  0.47774  1.0000
  S   S181      1.0  0.04862  0.71617  0.50601  1.0000
  S   S182      1.0  0.03218  0.70481  0.47130  1.0000
  C   C1258     1.0  0.07922  0.73024  0.45333  1.0000
  H   H1002     1.0  0.09863  0.72166  0.51989  1.0000
  C   C1259     1.0  0.04667  0.72156  0.55403  1.0000
  C   C1260     1.0  0.02604  0.60122  0.62376  1.0000
  C   C1261     1.0  0.04393  0.67795  0.33110  1.0000
  S   S183      1.0  0.04681  0.71325  0.38916  1.0000
  S   S184      1.0  0.01551  0.71564  0.55218  1.0000
  H   H1003     1.0  0.00948  0.69173  0.61619  1.0000
  H   H1004     1.0  0.03163  0.59111  0.61626  1.0000
  H   H1005     1.0  0.08078  0.71642  0.36811  1.0000
  C   C1262     1.0  0.03724  0.66587  0.55515  1.0000
  H   H1006     1.0  0.08142  0.68859  0.36106  1.0000
  C   C1263     1.0  0.04551  0.68958  0.31467  1.0000
  C   C1264     1.0  0.09190  0.70753  0.47553  1.0000
  H   H1007     1.0  0.06361  0.69091  0.60835  1.0000
  H   H1008     1.0  0.15132  0.71438  0.55158  1.0000
  C   C1265     1.0  0.04086  0.65369  0.63895  1.0000
  H   H1009     1.0  0.06781  0.62902  0.61711  1.0000
  C   C1266     1.0  0.02694  0.65793  0.59177  1.0000
  H   H1010     1.0  0.03266  0.71949  0.60386  1.0000
  H   H1011     1.0  0.10142  0.70996  0.55080  1.0000
  H   H1012     1.0  0.01153  0.68541  0.32163  1.0000
  C   C1267     1.0  0.05740  0.68036  0.61680  1.0000
  H   H1013     1.0  0.07792  0.72788  0.39326  1.0000
  H   H1014     1.0  0.04257  0.66472  0.33248  1.0000
  C   C1268     1.0  0.02000  0.63179  0.62548  1.0000
  H   H1015     1.0  0.04238  0.67452  0.35863  1.0000
  C   C1269     1.0  0.09503  0.71177  0.31993  1.0000
  C   C1270     1.0  0.04671  0.70682  0.31338  1.0000
  C   C1271     1.0  0.00927  0.68449  0.30951  1.0000
  C   C1272     1.0  0.19084  0.71773  0.55622  1.0000
  H   H1016     1.0  0.09084  0.69607  0.48604  1.0000
  H   H1017     1.0  0.03398  0.62162  0.60227  1.0000
  H   H1018     1.0  0.06351  0.65243  0.55868  1.0000
  C   C1273     1.0  0.04465  0.65235  0.58336  1.0000
  Fe  Fe95      1.0  0.03163  0.72481  0.48609  1.0000
  C   C1274     1.0  0.08499  0.71506  0.35468  1.0000
  P   P41       1.0  0.02091  0.65445  0.61536  1.0000
  C   C1275     1.0  0.04976  0.65631  0.56512  1.0000
  S   S185      1.0  0.07691  0.71659  0.63721  1.0000
  C   C1276     1.0  0.08538  0.69933  0.35066  1.0000
  H   H1019     1.0  0.04233  0.68112  0.59866  1.0000
  H   H1020     1.0  0.09055  0.68552  0.33016  1.0000
  C   C1277     1.0  0.09046  0.69765  0.33329  1.0000
  H   H1021     1.0  0.18070  0.69625  0.55508  1.0000
  C   C1278     1.0  0.04312  0.71185  0.41184  1.0000
  C   C1279     1.0  0.04313  0.69536  0.42304  1.0000
  C   C1280     1.0  0.04016  0.69349  0.44112  1.0000
  C   C1281     1.0  0.03752  0.70802  0.44829  1.0000
  H   H1022     1.0  0.05462  0.64541  0.59090  1.0000
  C   C1282     1.0  0.04668  0.71218  0.32827  1.0000
  H   H1023     1.0  0.04514  0.68398  0.41773  1.0000
  H   H1024     1.0  0.03997  0.68068  0.44960  1.0000
  C   C1283     1.0  0.10692  0.71469  0.47086  1.0000
  C   C1284     1.0  0.10638  0.72488  0.38714  1.0000
  C   C1285     1.0  0.04534  0.67468  0.61136  1.0000
  C   C1286     1.0  0.17783  0.71017  0.55472  1.0000
  C   C1287     1.0  0.04519  0.70053  0.34451  1.0000
  H   H1025     1.0  0.10870  0.71734  0.37738  1.0000
  C   C1288     1.0  0.06115  0.67280  0.63329  1.0000
  H   H1026     1.0  0.04125  0.66953  0.54104  1.0000
  C   C1289     1.0  0.16112  0.72053  0.55274  1.0000
  H   H1027     1.0  0.07081  0.72712  0.55532  1.0000
  C   C1290     1.0  0.01957  0.67123  0.56338  1.0000
  C   C1291     1.0  0.07819  0.71516  0.46659  1.0000
  H   H1028     1.0  0.06670  0.70944  0.46993  1.0000
  C   C1292     1.0  0.99934  0.66825  0.62131  1.0000
  H   H1029     1.0  0.01002  0.67919  0.55563  1.0000
  Fe  Fe96      1.0  0.02420  0.72786  0.52382  1.0000
  C   C1293     1.0  0.01440  0.66733  0.58160  1.0000
  C   C1294     1.0  0.09238  0.61072  0.62046  1.0000
  C   C1295     1.0  0.07411  0.61722  0.62515  1.0000
  H   H1030     1.0  0.20377  0.70968  0.55776  1.0000
  H   H1031     1.0  0.11748  0.72321  0.56361  1.0000
  H   H1032     1.0  0.09559  0.63356  0.31047  1.0000
  C   C1296     1.0  0.04378  0.68343  0.34595  1.0000
  C   C1297     1.0  0.10822  0.72950  0.45725  1.0000
  H   H1033     1.0  0.10022  0.61746  0.60876  1.0000
  H   H1034     1.0  0.00108  0.69699  0.44106  1.0000
  H   H1035     1.0  0.04499  0.70483  0.35604  1.0000
  C   C1298     1.0  0.03011  0.71812  0.56332  1.0000
  H   H1036     1.0  0.99787  0.72567  0.44740  1.0000
  C   C1299     1.0  0.03668  0.71991  0.59003  1.0000
  C   C1300     1.0  0.03699  0.66122  0.62235  1.0000
  H   H1037     1.0  0.01224  0.67223  0.46354  1.0000
  S   S186      1.0  0.03516  0.72045  0.63802  1.0000
  C   C1301     1.0  0.99843  0.67895  0.46600  1.0000
  H   H1038     1.0  0.11469  0.59044  0.62715  1.0000
  H   H1039     1.0  0.05085  0.55063  0.63111  1.0000
  C   C1302     1.0  0.01725  0.59693  0.64122  1.0000
  H   H1040     1.0  0.05056  0.72244  0.54010  1.0000
  C   C1303     1.0  0.09440  0.72772  0.32391  1.0000
  C   C1304     1.0  0.04091  0.72646  0.41887  1.0000
  C   C1305     1.0  0.03849  0.72445  0.43710  1.0000
  C   C1306     1.0  0.10054  0.59553  0.63086  1.0000
  C   C1307     1.0  0.02514  0.71717  0.58135  1.0000
  H   H1041     1.0  0.00073  0.67226  0.58755  1.0000
  H   H1042     1.0  0.07016  0.67755  0.63767  1.0000
  H   H1043     1.0  0.04753  0.72550  0.32730  1.0000
  C   C1308     1.0  0.06401  0.60860  0.64030  1.0000
  C   C1309     1.0  0.02740  0.61859  0.61588  1.0000
  H   H1044     1.0  0.06247  0.57242  0.63781  1.0000
  C   C1310     1.0  0.08955  0.72920  0.34141  1.0000
  C   C1311     1.0  0.12068  0.72858  0.39098  1.0000
  C   C1312     1.0  0.05822  0.72408  0.56270  1.0000
  C   C1313     1.0  0.05330  0.72331  0.58067  1.0000
  H   H1045     1.0  0.13409  0.72388  0.38421  1.0000
  C   C1314     1.0  0.11683  0.72816  0.54998  1.0000
  Fe  Fe97      1.0  0.05866  0.72920  0.61882  1.0000
  S   S187      1.0  0.06827  0.72677  0.59082  1.0000
  H   H1046     1.0  0.99741  0.70143  0.49395  1.0000
  C   C1315     1.0  0.10615  0.72712  0.52541  1.0000
  C   C1316     1.0  0.99785  0.68612  0.62014  1.0000
  H   H1047     1.0  0.13045  0.71657  0.31345  1.0000
  Fe  Fe98      1.0  0.01938  0.53008  0.72612  1.0000
  S   S188      1.0  0.02390  0.51326  0.75196  1.0000
  S   S189      1.0  0.00712  0.55895  0.72232  1.0000
  H   H1048     1.0  0.02298  0.49662  0.86832  1.0000
  H   H1049     1.0  0.17900  0.49958  0.88737  1.0000
  C   C1317     1.0  0.05900  0.51636  0.78453  1.0000
  C   C1318     1.0  0.42047  0.71723  0.92995  1.0000
  H   H1050     1.0  0.32819  0.68351  0.96847  1.0000
  H   H1051     1.0  0.10333  0.55702  0.96328  1.0000
  S   S190      1.0  0.00385  0.51310  0.72226  1.0000
  S   S191      1.0  0.04509  0.51753  0.71056  1.0000
  C   C1319     1.0  0.17625  0.61792  0.71796  1.0000
  H   H1052     1.0  0.03512  0.71543  0.78946  1.0000
  H   H1053     1.0  0.05556  0.65401  0.65730  1.0000
  C   C1320     1.0  0.99895  0.52745  0.82835  1.0000
  C   C1321     1.0  0.41926  0.69807  0.95870  1.0000
  C   C1322     1.0  0.15480  0.54932  0.95212  1.0000
  C   C1323     1.0  0.15966  0.54636  0.74717  1.0000
  Fe  Fe99      1.0  0.02917  0.62336  0.75889  1.0000
  S   S192      1.0  0.02020  0.61036  0.78684  1.0000
  S   S193      1.0  0.04650  0.60797  0.73871  1.0000
  Fe  Fe100     1.0  0.00793  0.65910  0.76444  1.0000
  H   H1054     1.0  0.01601  0.58352  0.64726  1.0000
  S   S194      1.0  0.00285  0.68662  0.74859  1.0000
  Fe  Fe101     1.0  0.02398  0.63388  0.79363  1.0000
  S   S195      1.0  0.03514  0.63100  0.81708  1.0000
  C   C1324     1.0  0.11384  0.49912  0.89756  1.0000
  C   C1325     1.0  0.29839  0.68274  0.93630  1.0000
  S   S196      1.0  0.03595  0.64525  0.76596  1.0000
  S   S197      1.0  0.00202  0.63820  0.75541  1.0000
  C   C1326     1.0  0.04908  0.56820  0.66522  1.0000
  C   C1327     1.0  0.07217  0.59361  0.65104  1.0000
  H   H1055     1.0  0.01966  0.69433  0.78622  1.0000
  S   S198      1.0  0.26418  0.71966  0.84945  1.0000
  C   C1328     1.0  0.19848  0.48637  0.97051  1.0000
  H   H1056     1.0  0.11959  0.50055  0.88381  1.0000
  S   S199      1.0  0.17733  0.71743  0.87718  1.0000
  H   H1057     1.0  0.40700  0.71183  0.91327  1.0000
  S   S200      1.0  0.15310  0.62162  0.94783  1.0000
  H   H1058     1.0  0.08734  0.69963  0.78714  1.0000
  C   C1329     1.0  0.09243  0.70766  0.67868  1.0000
  H   H1059     1.0  0.01779  0.55065  0.85279  1.0000
  C   C1330     1.0  0.01287  0.69613  0.89363  1.0000
  H   H1060     1.0  0.10417  0.54484  0.71815  1.0000
  Fe  Fe102     1.0  0.15126  0.61589  0.83513  1.0000
  S   S201      1.0  0.12180  0.62144  0.84406  1.0000
  S   S202      1.0  0.16802  0.58946  0.83018  1.0000
  Fe  Fe103     1.0  0.15324  0.65353  0.83493  1.0000
  S   S203      1.0  0.12365  0.66158  0.84400  1.0000
  S   S204      1.0  0.17221  0.67205  0.82712  1.0000
  Fe  Fe104     1.0  0.12624  0.63509  0.86244  1.0000
  S   S205      1.0  0.11065  0.62963  0.89030  1.0000
  Fe  Fe105     1.0  0.12207  0.64715  0.82479  1.0000
  S   S206      1.0  0.10487  0.65880  0.80483  1.0000
  S   S207      1.0  0.15595  0.62801  0.85466  1.0000
  S   S208      1.0  0.15150  0.64076  0.81441  1.0000
  C   C1331     1.0  0.12238  0.62740  0.90638  1.0000
  C   C1332     1.0  0.13928  0.63105  0.90167  1.0000
  C   C1333     1.0  0.14863  0.62897  0.91453  1.0000
  C   C1334     1.0  0.14096  0.62369  0.93223  1.0000
  C   C1335     1.0  0.12400  0.62010  0.93705  1.0000
  C   C1336     1.0  0.11474  0.62189  0.92411  1.0000
  H   H1061     1.0  0.14514  0.63562  0.88813  1.0000
  H   H1062     1.0  0.16175  0.63174  0.91075  1.0000
  C   C1337     1.0  0.16184  0.57064  0.82864  1.0000
  H   H1063     1.0  0.10164  0.61909  0.92784  1.0000
  S   S209      1.0  0.06940  0.51407  0.81406  1.0000
  C   C1338     1.0  0.24221  0.60211  0.90461  1.0000
  H   H1064     1.0  0.07410  0.50004  0.92641  1.0000
  C   C1339     1.0  0.17320  0.52120  0.76685  1.0000
  C   C1340     1.0  0.10671  0.55853  0.91540  1.0000
  C   C1341     1.0  0.17586  0.70503  0.86310  1.0000
  C   C1342     1.0  0.16398  0.69370  0.86904  1.0000
  C   C1343     1.0  0.16262  0.68356  0.85817  1.0000
  C   C1344     1.0  0.17302  0.68484  0.84118  1.0000
  C   C1345     1.0  0.18469  0.69638  0.83520  1.0000
  C   C1346     1.0  0.18622  0.70631  0.84614  1.0000
  H   H1065     1.0  0.15581  0.69275  0.88211  1.0000
  H   H1066     1.0  0.15355  0.67475  0.86295  1.0000
  H   H1067     1.0  0.19283  0.69742  0.82216  1.0000
  H   H1068     1.0  0.19547  0.71489  0.84151  1.0000
  C   C1347     1.0  0.07144  0.50750  0.79476  1.0000
  H   H1069     1.0  0.03123  0.53330  0.65443  1.0000
  H   H1070     1.0  0.02053  0.58735  0.68894  1.0000
  Fe  Fe106     1.0  0.05270  0.71057  0.65708  1.0000
  H   H1071     1.0  0.27846  0.70138  0.94949  1.0000
  C   C1348     1.0  0.18511  0.57670  0.94944  1.0000
  H   H1072     1.0  0.24293  0.72099  0.90983  1.0000
  C   C1349     1.0  0.26215  0.73187  0.76992  1.0000
  C   C1350     1.0  0.06740  0.72911  0.75574  1.0000
  C   C1351     1.0  0.01249  0.54410  0.84614  1.0000
  C   C1352     1.0  0.05454  0.63875  0.81343  1.0000
  C   C1353     1.0  0.05947  0.65135  0.79849  1.0000
  C   C1354     1.0  0.07478  0.65763  0.79610  1.0000
  C   C1355     1.0  0.08545  0.65109  0.80845  1.0000
  C   C1356     1.0  0.08056  0.63845  0.82333  1.0000
  C   C1357     1.0  0.06504  0.63243  0.82592  1.0000
  H   H1073     1.0  0.05136  0.65643  0.78888  1.0000
  H   H1074     1.0  0.07844  0.66740  0.78456  1.0000
  H   H1075     1.0  0.08868  0.63341  0.83288  1.0000
  H   H1076     1.0  0.06123  0.62279  0.83757  1.0000
  C   C1358     1.0  0.01635  0.68598  0.72769  1.0000
  C   C1359     1.0  0.02754  0.67020  0.72420  1.0000
  C   C1360     1.0  0.03864  0.66961  0.70774  1.0000
  C   C1361     1.0  0.03848  0.68479  0.69455  1.0000
  C   C1362     1.0  0.02680  0.70048  0.69774  1.0000
  C   C1363     1.0  0.01575  0.70107  0.71431  1.0000
  H   H1077     1.0  0.02765  0.65830  0.73406  1.0000
  H   H1078     1.0  0.04747  0.65738  0.70533  1.0000
  H   H1079     1.0  0.02600  0.71206  0.68742  1.0000
  H   H1080     1.0  0.00651  0.71307  0.71665  1.0000
  C   C1364     1.0  0.10682  0.60345  0.72996  1.0000
  C   C1365     1.0  0.01148  0.62726  0.64312  1.0000
  H   H1081     1.0  0.09702  0.57515  0.65392  1.0000
  C   C1366     1.0  0.16814  0.51082  0.88895  1.0000
  H   H1082     1.0  0.17509  0.63192  0.71591  1.0000
  C   C1367     1.0  0.20190  0.51230  0.94753  1.0000
  C   C1368     1.0  0.13940  0.53943  0.89326  1.0000
  C   C1369     1.0  0.40917  0.68879  0.95468  1.0000
  H   H1083     1.0  0.16664  0.51980  0.74353  1.0000
  S   S210      1.0  0.10004  0.52104  0.84014  1.0000
  C   C1370     1.0  0.31364  0.71703  0.86834  1.0000
  H   H1084     1.0  0.08318  0.71420  0.86084  1.0000
  P   P42       1.0  0.43754  0.72517  0.95107  1.0000
  C   C1371     1.0  0.28279  0.71909  0.85715  1.0000
  C   C1372     1.0  0.29849  0.70718  0.85213  1.0000
  C   C1373     1.0  0.31372  0.70602  0.85785  1.0000
  C   C1374     1.0  0.42461  0.71265  0.94651  1.0000
  C   C1375     1.0  0.01339  0.61181  0.69650  1.0000
  H   H1085     1.0  0.29884  0.69864  0.84391  1.0000
  H   H1086     1.0  0.32571  0.69658  0.85402  1.0000
  C   C1376     1.0  0.08771  0.70467  0.74427  1.0000
  S   S211      1.0  0.33320  0.71424  0.87555  1.0000
  C   C1377     1.0  0.18980  0.60821  0.70724  1.0000
  C   C1378     1.0  0.01719  0.52332  0.82813  1.0000
  H   H1087     1.0  0.16776  0.60640  0.79119  1.0000
  H   H1088     1.0  0.09171  0.68231  0.67587  1.0000
  C   C1379     1.0  0.00559  0.49700  0.81246  1.0000
  H   H1089     1.0  0.12998  0.61113  0.73063  1.0000
  H   H1090     1.0  0.15763  0.65490  0.96545  1.0000
  H   H1091     1.0  0.09434  0.69805  0.73364  1.0000
  H   H1092     1.0  0.09088  0.55049  0.85701  1.0000
  C   C1380     1.0  0.10612  0.58476  0.87113  1.0000
  C   C1381     1.0  0.01834  0.57132  0.72830  1.0000
  C   C1382     1.0  0.03686  0.56842  0.72390  1.0000
  C   C1383     1.0  0.04544  0.57993  0.72682  1.0000
  C   C1384     1.0  0.03560  0.59376  0.73498  1.0000
  C   C1385     1.0  0.01715  0.59603  0.74014  1.0000
  C   C1386     1.0  0.00853  0.58513  0.73642  1.0000
  H   H1093     1.0  0.04450  0.55752  0.71802  1.0000
  H   H1094     1.0  0.05971  0.57779  0.72332  1.0000
  H   H1095     1.0  0.00945  0.60632  0.74676  1.0000
  C   C1387     1.0  0.44166  0.71910  0.97283  1.0000
  H   H1096     1.0  0.31956  0.66253  0.92672  1.0000
  S   S212      1.0  0.35501  0.73182  0.90249  1.0000
  Fe  Fe107     1.0  0.02982  0.49881  0.70887  1.0000
  C   C1388     1.0  0.15466  0.53951  0.82544  1.0000
  C   C1389     1.0  0.01003  0.60994  0.65089  1.0000
  C   C1390     1.0  0.16334  0.59196  0.89260  1.0000
  S   S213      1.0  0.05262  0.68370  0.67409  1.0000
  H   H1097     1.0  0.02294  0.51009  0.79041  1.0000
  H   H1098     1.0  0.07572  0.58533  0.94006  1.0000
  C   C1391     1.0  0.14740  0.53587  0.87663  1.0000
  H   H1099     1.0  0.09002  0.73236  0.68453  1.0000
  H   H1100     1.0  0.18921  0.55845  0.82023  1.0000
  C   C1392     1.0  0.16428  0.60957  0.73142  1.0000
  H   H1101     1.0  0.03507  0.55934  0.69166  1.0000
  H   H1102     1.0  0.18522  0.69603  0.78875  1.0000
  H   H1103     1.0  0.13172  0.54921  0.80167  1.0000
  C   C1393     1.0  0.25264  0.62782  0.88607  1.0000
  H   H1104     1.0  0.38248  0.72871  0.94553  1.0000
  H   H1105     1.0  0.40448  0.67800  0.96440  1.0000
  H   H1106     1.0  0.06414  0.69508  0.72534  1.0000
  H   H1107     1.0  0.26072  0.63377  0.87405  1.0000
  C   C1394     1.0  0.07421  0.49868  0.76303  1.0000
  C   C1395     1.0  0.16005  0.59539  0.77392  1.0000
  C   C1396     1.0  0.09718  0.59025  0.73550  1.0000
  C   C1397     1.0  0.16652  0.52831  0.75171  1.0000
  C   C1398     1.0  0.12796  0.53909  0.95594  1.0000
  H   H1108     1.0  0.09505  0.48727  0.79703  1.0000
  C   C1399     1.0  0.23760  0.71314  0.95389  1.0000
  C   C1400     1.0  0.23643  0.71149  0.93769  1.0000
  C   C1401     1.0  0.08130  0.70777  0.85171  1.0000
  C   C1402     1.0  0.99921  0.66858  0.66852  1.0000
  H   H1109     1.0  0.16603  0.55821  0.78162  1.0000
  H   H1110     1.0  0.05142  0.49970  0.87237  1.0000
  H   H1111     1.0  0.01360  0.71211  0.84409  1.0000
  C   C1403     1.0  0.16529  0.66097  0.97017  1.0000
  C   C1404     1.0  0.08673  0.48981  0.77328  1.0000
  C   C1405     1.0  0.27785  0.73125  0.77458  1.0000
  C   C1406     1.0  0.03795  0.55829  0.67821  1.0000
  H   H1112     1.0  0.12166  0.52887  0.95599  1.0000
  C   C1407     1.0  0.18589  0.54935  0.89535  1.0000
  H   H1113     1.0  0.02646  0.51386  0.82104  1.0000
  C   C1408     1.0  0.24395  0.72213  0.92238  1.0000
  C   C1409     1.0  0.31104  0.71895  0.95549  1.0000
  C   C1410     1.0  0.32155  0.71440  0.93994  1.0000
  S   S214      1.0  0.12723  0.48506  0.85577  1.0000
  C   C1411     1.0  0.14645  0.53624  0.95210  1.0000
  H   H1114     1.0  0.05602  0.70307  0.86696  1.0000
  C   C1412     1.0  0.20174  0.55516  0.88840  1.0000
  H   H1115     1.0  0.00219  0.71464  0.67184  1.0000
  H   H1116     1.0  0.09334  0.49632  0.94695  1.0000
  P   P43       1.0  0.12347  0.55970  0.89545  1.0000
  C   C1413     1.0  0.18753  0.54964  0.92454  1.0000
  C   C1414     1.0  0.11764  0.55499  0.95987  1.0000
  H   H1117     1.0  0.22942  0.70220  0.93702  1.0000
  H   H1118     1.0  0.01268  0.69180  0.90748  1.0000
  H   H1119     1.0  0.13614  0.52435  0.78800  1.0000
  H   H1120     1.0  0.26283  0.72994  0.75714  1.0000
  H   H1121     1.0  0.46782  0.69566  0.94898  1.0000
  H   H1122     1.0  0.06164  0.61680  0.67479  1.0000
  H   H1123     1.0  0.17316  0.59907  0.89196  1.0000
  S   S215      1.0  0.13081  0.49631  0.94029  1.0000
  C   C1415     1.0  0.07242  0.69857  0.71249  1.0000
  H   H1124     1.0  0.17810  0.52657  0.78925  1.0000
  H   H1125     1.0  0.03795  0.52834  0.83675  1.0000
  H   H1126     1.0  0.33478  0.70631  0.93965  1.0000
  H   H1127     1.0  0.32300  0.71677  0.91265  1.0000
  H   H1128     1.0  0.10672  0.70985  0.83439  1.0000
  H   H1129     1.0  0.15021  0.57581  0.95585  1.0000
  H   H1130     1.0  0.17315  0.59379  0.76547  1.0000
  Fe  Fe108     1.0  0.12803  0.50699  0.83185  1.0000
  S   S216      1.0  0.15175  0.51994  0.82192  1.0000
  C   C1416     1.0  0.11950  0.57149  0.75115  1.0000
  C   C1417     1.0  0.41053  0.70784  0.92592  1.0000
  H   H1131     1.0  0.11801  0.61600  0.95070  1.0000
  C   C1418     1.0  0.08604  0.54319  0.70391  1.0000
  H   H1132     1.0  0.29602  0.68968  0.92348  1.0000
  C   C1419     1.0  0.14627  0.59017  0.77058  1.0000
  C   C1420     1.0  0.16113  0.67920  0.96890  1.0000
  C   C1421     1.0  0.05360  0.56539  0.64812  1.0000
  H   H1133     1.0  0.18936  0.60124  0.95086  1.0000
  H   H1134     1.0  0.10867  0.54070  0.87943  1.0000
  H   H1135     1.0  0.11773  0.58062  0.96238  1.0000
  C   C1422     1.0  0.18553  0.55896  0.95764  1.0000
  C   C1423     1.0  0.20764  0.49442  0.95438  1.0000
  H   H1136     1.0  0.21348  0.73017  0.74704  1.0000
  H   H1137     1.0  0.20911  0.51821  0.93497  1.0000
  C   C1424     1.0  0.15927  0.55743  0.75785  1.0000
  C   C1425     1.0  0.09563  0.50037  0.90372  1.0000
  H   H1138     1.0  0.08675  0.52926  0.70929  1.0000
  H   H1139     1.0  0.39666  0.68673  0.93535  1.0000
  H   H1140     1.0  0.13874  0.49543  0.90422  1.0000
  C   C1426     1.0  0.08357  0.57920  0.69067  1.0000
  S   S217      1.0  0.08216  0.50393  0.88899  1.0000
  C   C1427     1.0  0.31503  0.72052  0.92466  1.0000
  H   H1141     1.0  0.11904  0.58733  0.78020  1.0000
  H   H1142     1.0  0.17142  0.59104  0.86533  1.0000
  H   H1143     1.0  0.11086  0.72089  0.96612  1.0000
  H   H1144     1.0  0.00664  0.66910  0.65521  1.0000
  Fe  Fe109     1.0  0.09283  0.50416  0.82670  1.0000
  C   C1428     1.0  0.29190  0.68089  0.96746  1.0000
  C   C1429     1.0  0.08823  0.49904  0.92162  1.0000
  H   H1145     1.0  0.15415  0.52372  0.94925  1.0000
  H   H1146     1.0  0.00995  0.63638  0.70359  1.0000
  H   H1147     1.0  0.05146  0.51984  0.76037  1.0000
  H   H1148     1.0  0.21092  0.55704  0.92595  1.0000
  C   C1430     1.0  0.10167  0.54265  0.92418  1.0000
  S   S218      1.0  0.21990  0.72653  0.88488  1.0000
  C   C1431     1.0  0.16154  0.52150  0.87451  1.0000
  H   H1149     1.0  0.32555  0.64721  0.95579  1.0000
  C   C1432     1.0  0.29417  0.72980  0.95573  1.0000
  C   C1433     1.0  0.12075  0.54716  0.79783  1.0000
  H   H1150     1.0  0.08654  0.63628  0.76337  1.0000
  C   C1434     1.0  0.10914  0.53063  0.78489  1.0000
  C   C1435     1.0  0.09249  0.54193  0.78782  1.0000
  C   C1436     1.0  0.08971  0.55579  0.79607  1.0000
  C   C1437     1.0  0.10398  0.55808  0.80131  1.0000
  P   P44       1.0  0.06835  0.57078  0.80003  1.0000
  C   C1438     1.0  0.05138  0.56638  0.79208  1.0000
  C   C1439     1.0  0.06071  0.56895  0.82331  1.0000
  C   C1440     1.0  0.05156  0.58378  0.83014  1.0000
  C   C1441     1.0  0.04528  0.58227  0.84816  1.0000
  C   C1442     1.0  0.04794  0.56580  0.85948  1.0000
  C   C1443     1.0  0.05652  0.55085  0.85271  1.0000
  C   C1444     1.0  0.06270  0.55244  0.83467  1.0000
  C   C1445     1.0  0.03417  0.56670  0.80252  1.0000
  C   C1446     1.0  0.02095  0.56372  0.79630  1.0000
  C   C1447     1.0  0.02486  0.56001  0.77978  1.0000
  C   C1448     1.0  0.04190  0.55954  0.76940  1.0000
  C   C1449     1.0  0.05495  0.56313  0.77529  1.0000
  C   C1450     1.0  0.07268  0.59229  0.78907  1.0000
  C   C1451     1.0  0.06916  0.60023  0.77248  1.0000
  C   C1452     1.0  0.07418  0.61597  0.76321  1.0000
  C   C1453     1.0  0.08286  0.62394  0.77041  1.0000
  C   C1454     1.0  0.08633  0.61623  0.78697  1.0000
  C   C1455     1.0  0.08104  0.60064  0.79641  1.0000
  H   H1151     1.0  0.30477  0.67902  0.89324  1.0000
  C   C1456     1.0  0.07717  0.71495  0.70676  1.0000
  H   H1152     1.0  0.08177  0.53923  0.78425  1.0000
  H   H1153     1.0  0.10225  0.56814  0.80830  1.0000
  H   H1154     1.0  0.04911  0.59645  0.82147  1.0000
  H   H1155     1.0  0.03835  0.59393  0.85323  1.0000
  H   H1156     1.0  0.04329  0.56459  0.87347  1.0000
  H   H1157     1.0  0.05853  0.53801  0.86142  1.0000
  H   H1158     1.0  0.06886  0.54081  0.82949  1.0000
  H   H1159     1.0  0.03069  0.56967  0.81531  1.0000
  H   H1160     1.0  0.00767  0.56446  0.80429  1.0000
  C   C1457     1.0  0.30504  0.66542  0.96951  1.0000
  H   H1161     1.0  0.04503  0.55616  0.75684  1.0000
  H   H1162     1.0  0.06780  0.56335  0.76670  1.0000
  H   H1163     1.0  0.06255  0.59432  0.76658  1.0000
  H   H1164     1.0  0.07113  0.62205  0.75048  1.0000
  H   H1165     1.0  0.09286  0.62257  0.79263  1.0000
  H   H1166     1.0  0.08348  0.59518  0.80940  1.0000
  H   H1167     1.0  0.35051  0.69678  0.97237  1.0000
  H   H1168     1.0  0.02644  0.66270  0.83627  1.0000
  H   H1169     1.0  0.20825  0.66935  0.79519  1.0000
  H   H1170     1.0  0.23920  0.67171  0.79208  1.0000
  C   C1458     1.0  0.02386  0.53156  0.83707  1.0000
  C   C1459     1.0  0.14064  0.55299  0.83099  1.0000
  C   C1460     1.0  0.02528  0.59865  0.68848  1.0000
  H   H1171     1.0  0.13346  0.57891  0.83686  1.0000
  H   H1172     1.0  0.02304  0.53824  0.68452  1.0000
  H   H1173     1.0  0.10259  0.57667  0.70578  1.0000
  H   H1174     1.0  0.00321  0.60659  0.66441  1.0000
  C   C1461     1.0  0.00458  0.67544  0.67959  1.0000
  H   H1175     1.0  0.46911  0.72173  0.96426  1.0000
  C   C1462     1.0  0.29841  0.73187  0.92475  1.0000
  H   H1176     1.0  0.01637  0.68087  0.67494  1.0000
  C   C1463     1.0  0.31502  0.65882  0.95470  1.0000
  C   C1464     1.0  0.19583  0.69317  0.91461  1.0000
  C   C1465     1.0  0.19705  0.68945  0.93200  1.0000
  C   C1466     1.0  0.21147  0.67716  0.93757  1.0000
  C   C1467     1.0  0.22480  0.66871  0.92563  1.0000
  C   C1468     1.0  0.22347  0.67215  0.90814  1.0000
  C   C1469     1.0  0.20888  0.68449  0.90270  1.0000
  P   P45       1.0  0.24097  0.66135  0.89288  1.0000
  C   C1470     1.0  0.24182  0.63804  0.89801  1.0000
  C   C1471     1.0  0.23677  0.66967  0.87114  1.0000
  C   C1472     1.0  0.22411  0.66397  0.86645  1.0000
  C   C1473     1.0  0.22060  0.67044  0.84973  1.0000
  C   C1474     1.0  0.22947  0.68286  0.83767  1.0000
  C   C1475     1.0  0.24204  0.68864  0.84226  1.0000
  C   C1476     1.0  0.24578  0.68197  0.85889  1.0000
  C   C1477     1.0  0.23087  0.63013  0.91311  1.0000
  C   C1478     1.0  0.26127  0.66643  0.89362  1.0000
  C   C1479     1.0  0.26100  0.68333  0.89512  1.0000
  C   C1480     1.0  0.27658  0.68771  0.89528  1.0000
  C   C1481     1.0  0.29262  0.67536  0.89372  1.0000
  C   C1482     1.0  0.29300  0.65847  0.89240  1.0000
  C   C1483     1.0  0.27739  0.65396  0.89243  1.0000
  H   H1177     1.0  0.18479  0.70290  0.91028  1.0000
  H   H1178     1.0  0.18679  0.69616  0.94109  1.0000
  H   H1179     1.0  0.21242  0.67442  0.95108  1.0000
  H   H1180     1.0  0.23613  0.65948  0.93000  1.0000
  H   H1181     1.0  0.20757  0.68778  0.88926  1.0000
  H   H1182     1.0  0.21675  0.65471  0.87577  1.0000
  H   H1183     1.0  0.21066  0.66614  0.84626  1.0000
  H   H1184     1.0  0.22637  0.68822  0.82490  1.0000
  H   H1185     1.0  0.24880  0.69846  0.83306  1.0000
  H   H1186     1.0  0.25559  0.68659  0.86211  1.0000
  H   H1187     1.0  0.22182  0.63769  0.92224  1.0000
  H   H1188     1.0  0.24881  0.69330  0.89573  1.0000
  H   H1189     1.0  0.27631  0.70085  0.89613  1.0000
  H   H1190     1.0  0.30549  0.64894  0.89111  1.0000
  H   H1191     1.0  0.27806  0.64084  0.89134  1.0000
  H   H1192     1.0  0.04060  0.63965  0.68918  1.0000
  H   H1193     1.0  0.06815  0.54502  0.68823  1.0000
  C   C1484     1.0  0.47031  0.70580  0.93734  1.0000
  P   P46       1.0  0.15026  0.58076  0.75190  1.0000
  C   C1485     1.0  0.17307  0.53213  0.77741  1.0000
  C   C1486     1.0  0.16573  0.59140  0.73428  1.0000
  C   C1487     1.0  0.04821  0.61517  0.68071  1.0000
  C   C1488     1.0  0.14550  0.72648  0.95957  1.0000
  C   C1489     1.0  0.07346  0.57056  0.68570  1.0000
  H   H1194     1.0  0.15455  0.55169  0.73538  1.0000
  C   C1490     1.0  0.22037  0.71521  0.78060  1.0000
  H   H1195     1.0  0.22300  0.56241  0.89408  1.0000
  H   H1196     1.0  0.00198  0.52400  0.67837  1.0000
  H   H1197     1.0  0.11086  0.51953  0.77922  1.0000
  C   C1491     1.0  0.02177  0.67759  0.81142  1.0000
  C   C1492     1.0  0.01354  0.70745  0.85787  1.0000
  H   H1198     1.0  0.12713  0.55142  0.83397  1.0000
  Fe  Fe110     1.0  0.09854  0.49840  0.86306  1.0000
  C   C1493     1.0  0.15180  0.72012  0.93090  1.0000
  C   C1494     1.0  0.14678  0.71481  0.94917  1.0000
  C   C1495     1.0  0.01893  0.62654  0.69676  1.0000
  P   P47       1.0  0.14281  0.69298  0.95926  1.0000
  C   C1496     1.0  0.03436  0.72787  0.73788  1.0000
  C   C1497     1.0  0.13984  0.68358  0.94289  1.0000
  C   C1498     1.0  0.12274  0.68456  0.94093  1.0000
  C   C1499     1.0  0.12056  0.67825  0.92754  1.0000
  C   C1500     1.0  0.13537  0.67116  0.91590  1.0000
  C   C1501     1.0  0.15241  0.67000  0.91785  1.0000
  C   C1502     1.0  0.15465  0.67609  0.93133  1.0000
  H   H1199     1.0  0.00765  0.72458  0.75004  1.0000
  C   C1503     1.0  0.20366  0.55513  0.91751  1.0000
  H   H1200     1.0  0.29046  0.72895  0.76541  1.0000
  C   C1504     1.0  0.12578  0.56822  0.95953  1.0000
  H   H1201     1.0  0.42256  0.69394  0.97138  1.0000
  H   H1202     1.0  0.42463  0.72831  0.92021  1.0000
  H   H1203     1.0  0.10165  0.61597  0.72206  1.0000
  H   H1204     1.0  0.06582  0.72825  0.78277  1.0000
  H   H1205     1.0  0.04591  0.71057  0.81628  1.0000
  C   C1505     1.0  0.17796  0.51410  0.97312  1.0000
  H   H1206     1.0  0.15281  0.71161  0.92241  1.0000
  H   H1207     1.0  0.11106  0.69021  0.94963  1.0000
  H   H1208     1.0  0.10738  0.67884  0.92616  1.0000
  H   H1209     1.0  0.13364  0.66643  0.90544  1.0000
  H   H1210     1.0  0.16388  0.66434  0.90888  1.0000
  H   H1211     1.0  0.16793  0.67511  0.93261  1.0000
  C   C1506     1.0  0.06065  0.51231  0.76849  1.0000
  H   H1212     1.0  0.16520  0.50590  0.91685  1.0000
  H   H1213     1.0  0.01480  0.55753  0.77488  1.0000
  C   C1507     1.0  0.11735  0.49582  0.92691  1.0000
  C   C1508     1.0  0.45797  0.72186  0.93500  1.0000
  S   S219      1.0  0.03263  0.49290  0.68262  1.0000
  C   C1509     1.0  0.31167  0.66748  0.93816  1.0000
  C   C1510     1.0  0.14917  0.57899  0.87828  1.0000
  H   H1214     1.0  0.12393  0.55918  0.75964  1.0000
  C   C1511     1.0  0.28244  0.73003  0.86791  1.0000
  C   C1512     1.0  0.02642  0.68788  0.88168  1.0000
  C   C1513     1.0  0.02676  0.69337  0.86371  1.0000
  H   H1215     1.0  0.99808  0.68184  0.70482  1.0000
  P   P48       1.0  0.04464  0.68300  0.84836  1.0000
  C   C1514     1.0  0.06363  0.69270  0.84352  1.0000
  C   C1515     1.0  0.05051  0.66001  0.85871  1.0000
  C   C1516     1.0  0.06805  0.65206  0.86040  1.0000
  C   C1517     1.0  0.07223  0.63468  0.86952  1.0000
  C   C1518     1.0  0.05906  0.62499  0.87690  1.0000
  C   C1519     1.0  0.04157  0.63280  0.87542  1.0000
  C   C1520     1.0  0.03725  0.65029  0.86660  1.0000
  C   C1521     1.0  0.07696  0.69045  0.82853  1.0000
  C   C1522     1.0  0.09235  0.69676  0.82517  1.0000
  C   C1523     1.0  0.09912  0.49672  0.93325  1.0000
  C   C1524     1.0  0.03590  0.54331  0.65727  1.0000
  C   C1525     1.0  0.06589  0.70143  0.85512  1.0000
  C   C1526     1.0  0.03716  0.68618  0.82844  1.0000
  C   C1527     1.0  0.02823  0.67447  0.82648  1.0000
  H   H1216     1.0  0.00573  0.63717  0.65082  1.0000
  C   C1528     1.0  0.02438  0.69224  0.79802  1.0000
  C   C1529     1.0  0.03317  0.70403  0.79983  1.0000
  C   C1530     1.0  0.03940  0.70111  0.81501  1.0000
  C   C1531     1.0  0.15710  0.60252  0.78846  1.0000
  H   H1217     1.0  0.20199  0.58260  0.70177  1.0000
  C   C1532     1.0  0.47659  0.73136  0.90675  1.0000
  H   H1218     1.0  0.03669  0.67728  0.88648  1.0000
  H   H1219     1.0  0.08413  0.52958  0.94579  1.0000
  H   H1220     1.0  0.07862  0.65914  0.85484  1.0000
  H   H1221     1.0  0.08574  0.62876  0.87096  1.0000
  H   H1222     1.0  0.06242  0.61151  0.88390  1.0000
  H   H1223     1.0  0.03130  0.62534  0.88127  1.0000
  H   H1224     1.0  0.02353  0.65628  0.86613  1.0000
  H   H1225     1.0  0.07564  0.68338  0.81969  1.0000
  H   H1226     1.0  0.10285  0.69439  0.81387  1.0000
  P   P49       1.0  0.06925  0.73036  0.72086  1.0000
  C   C1533     1.0  0.99998  0.71566  0.86986  1.0000
  C   C1534     1.0  0.19139  0.59014  0.71001  1.0000
  C   C1535     1.0  0.19032  0.58744  0.95694  1.0000
  H   H1227     1.0  0.04814  0.52646  0.78904  1.0000
  C   C1536     1.0  0.21179  0.68207  0.79075  1.0000
  H   H1228     1.0  0.11444  0.59911  0.80646  1.0000
  H   H1229     1.0  0.31605  0.71445  0.96731  1.0000
  H   H1230     1.0  0.03971  0.71866  0.74853  1.0000
  C   C1537     1.0  0.04716  0.48737  0.87773  1.0000
  C   C1538     1.0  0.25292  0.60992  0.88943  1.0000
  H   H1231     1.0  0.24234  0.58826  0.90716  1.0000
  C   C1539     1.0  0.45844  0.71868  0.97528  1.0000
  H   H1232     1.0  0.08457  0.59254  0.73191  1.0000
  H   H1233     1.0  0.09614  0.56401  0.75033  1.0000
  C   C1540     1.0  0.18685  0.52223  0.95677  1.0000
  H   H1234     1.0  0.24692  0.70073  0.78319  1.0000
  H   H1235     1.0  0.14858  0.57565  0.86653  1.0000
  Fe  Fe111     1.0  0.04875  0.49949  0.73623  1.0000
  H   H1236     1.0  0.08270  0.58213  0.84337  1.0000
  C   C1541     1.0  0.14423  0.56859  0.83257  1.0000
  C   C1542     1.0  0.12329  0.53327  0.78988  1.0000
  Fe  Fe112     1.0  0.01070  0.49494  0.74671  1.0000
  C   C1543     1.0  0.48899  0.71551  0.90931  1.0000
  C   C1544     1.0  0.12946  0.58454  0.74544  1.0000
  C   C1545     1.0  0.12698  0.59839  0.79707  1.0000
  C   C1546     1.0  0.03128  0.54607  0.67423  1.0000
  H   H1237     1.0  0.17839  0.50720  0.77053  1.0000
  H   H1238     1.0  0.18299  0.53155  0.81730  1.0000
  C   C1547     1.0  0.04289  0.60011  0.68055  1.0000
  H   H1239     1.0  0.26131  0.60213  0.88015  1.0000
  C   C1548     1.0  0.23114  0.61223  0.91640  1.0000
  H   H1240     1.0  0.01518  0.66828  0.80993  1.0000
  C   C1549     1.0  0.08774  0.54201  0.93893  1.0000
  C   C1550     1.0  0.09056  0.57788  0.85320  1.0000
  C   C1551     1.0  0.03114  0.48563  0.87554  1.0000
  H   H1241     1.0  0.19913  0.61468  0.69686  1.0000
  C   C1552     1.0  0.14601  0.52858  0.90768  1.0000
  H   H1242     1.0  0.09185  0.60403  0.85286  1.0000
  C   C1553     1.0  0.09523  0.56008  0.86080  1.0000
  C   C1554     1.0  0.09048  0.58695  0.64608  1.0000
  C   C1555     1.0  0.17560  0.55709  0.82324  1.0000
  C   C1556     1.0  0.17206  0.54179  0.82157  1.0000
  C   C1557     1.0  0.08397  0.70558  0.77451  1.0000
  P   P50       1.0  0.05902  0.58287  0.67081  1.0000
  C   C1558     1.0  0.14054  0.60413  0.79993  1.0000
  C   C1559     1.0  0.99963  0.70999  0.88773  1.0000
  H   H1243     1.0  0.13841  0.60934  0.81134  1.0000
  C   C1560     1.0  0.07521  0.55234  0.69207  1.0000
  C   C1561     1.0  0.11129  0.56685  0.87839  1.0000
  H   H1244     1.0  0.19265  0.72527  0.77958  1.0000
  C   C1562     1.0  0.17943  0.58174  0.72347  1.0000
  C   C1563     1.0  0.07840  0.55736  0.94470  1.0000
  C   C1564     1.0  0.09582  0.59022  0.85851  1.0000
  H   H1245     1.0  0.16645  0.54246  0.91845  1.0000
  C   C1565     1.0  0.40473  0.69372  0.93834  1.0000
  H   H1246     1.0  0.14011  0.53112  0.92060  1.0000
  H   H1247     1.0  0.16738  0.51873  0.86162  1.0000
  C   C1566     1.0  0.16614  0.55016  0.77299  1.0000
  C   C1567     1.0  0.09583  0.55197  0.70894  1.0000
  P   P51       1.0  0.17875  0.54519  0.94786  1.0000
  H   H1248     1.0  0.22260  0.60625  0.92803  1.0000
  C   C1568     1.0  0.09699  0.57401  0.92097  1.0000
  C   C1569     1.0  0.03628  0.62829  0.68873  1.0000
  C   C1570     1.0  0.13753  0.57403  0.89415  1.0000
  C   C1571     1.0  0.10359  0.57425  0.74601  1.0000
  C   C1572     1.0  0.12973  0.59159  0.78232  1.0000
  H   H1249     1.0  0.08277  0.59313  0.68579  1.0000
  C   C1573     1.0  0.07801  0.68670  0.70151  1.0000
  C   C1574     1.0  0.20301  0.71368  0.78199  1.0000
  H   H1250     1.0  0.13087  0.57355  0.92189  1.0000
  H   H1251     1.0  0.15274  0.59024  0.92016  1.0000
  S   S220      1.0  0.07532  0.49232  0.74375  1.0000
  H   H1252     1.0  0.10991  0.59445  0.87537  1.0000
  C   C1575     1.0  0.09456  0.70538  0.83678  1.0000
  H   H1253     1.0  0.07405  0.67422  0.70586  1.0000
  H   H1254     1.0  0.15396  0.61730  0.73971  1.0000
  C   C1576     1.0  0.14429  0.56542  0.95574  1.0000
  H   H1255     1.0  0.20706  0.55745  0.87442  1.0000
  C   C1577     1.0  0.08696  0.71952  0.68967  1.0000
  C   C1578     1.0  0.12289  0.60064  0.73491  1.0000
  H   H1256     1.0  0.18034  0.58237  0.93748  1.0000
  C   C1579     1.0  0.21064  0.55803  0.89948  1.0000
  C   C1580     1.0  0.15181  0.58702  0.90848  1.0000
  C   C1581     1.0  0.09482  0.56990  0.70208  1.0000
  H   H1257     1.0  0.06761  0.55682  0.95614  1.0000
  S   S221      1.0  0.99620  0.64933  0.79274  1.0000
  C   C1582     1.0  0.07510  0.72054  0.74181  1.0000
  H   H1258     1.0  0.49539  0.69037  0.92643  1.0000
  H   H1259     1.0  0.14297  0.54437  0.86522  1.0000
  C   C1583     1.0  0.08799  0.69125  0.68460  1.0000
  H   H1260     1.0  0.20201  0.72937  0.81014  1.0000
  H   H1261     1.0  0.10018  0.58657  0.91390  1.0000
  C   C1584     1.0  0.17879  0.54670  0.91332  1.0000
  C   C1585     1.0  0.16219  0.58768  0.87758  1.0000
  C   C1586     1.0  0.07179  0.72162  0.77205  1.0000
  C   C1587     1.0  0.13911  0.57788  0.90933  1.0000
  C   C1588     1.0  0.28848  0.68937  0.95096  1.0000
  C   C1589     1.0  0.23346  0.69995  0.78407  1.0000
  H   H1262     1.0  0.23164  0.70496  0.96574  1.0000
  C   C1590     1.0  0.36872  0.73282  0.95154  1.0000
  C   C1591     1.0  0.16044  0.51443  0.90552  1.0000
  H   H1263     1.0  0.09972  0.71145  0.66540  1.0000
  C   C1592     1.0  0.22915  0.68345  0.78912  1.0000
  C   C1593     1.0  0.08300  0.57338  0.93569  1.0000
  C   C1594     1.0  0.10544  0.55456  0.87344  1.0000
  H   H1264     1.0  0.18109  0.56773  0.72543  1.0000
  C   C1595     1.0  0.19877  0.69716  0.78705  1.0000
  H   H1265     1.0  0.10837  0.53082  0.91947  1.0000
  H   H1266     1.0  0.17894  0.54716  0.88678  1.0000
  H   H1267     1.0  0.10162  0.68486  0.76256  1.0000
  H   H1268     1.0  0.00008  0.61018  0.70324  1.0000
  C   C1596     1.0  0.02073  0.49765  0.79884  1.0000
  C   C1597     1.0  0.29794  0.72908  0.87343  1.0000
  H   H1269     1.0  0.18640  0.71940  0.95126  1.0000
  C   C1598     1.0  0.04702  0.55301  0.64420  1.0000
  C   C1599     1.0  0.19243  0.73029  0.94927  1.0000
  C   C1600     1.0  0.09201  0.69719  0.76061  1.0000
  C   C1601     1.0  0.01613  0.73119  0.73880  1.0000
  C   C1602     1.0  0.24622  0.72553  0.95481  1.0000
  C   C1603     1.0  0.48583  0.70271  0.92458  1.0000
  C   C1604     1.0  0.36294  0.72815  0.96965  1.0000
  H   H1270     1.0  0.14181  0.72269  0.97368  1.0000
  H   H1271     1.0  0.24759  0.72617  0.96745  1.0000
  S   S222      1.0  0.12110  0.49199  0.81596  1.0000
  C   C1605     1.0  0.08546  0.49428  0.78909  1.0000
  H   H1272     1.0  0.03441  0.64365  0.64795  1.0000
  H   H1273     1.0  0.16786  0.70026  0.97564  1.0000
  C   C1606     1.0  0.19101  0.55225  0.97354  1.0000
  C   C1607     1.0  0.12468  0.49657  0.90915  1.0000
  H   H1274     1.0  0.28595  0.73265  0.96798  1.0000
  H   H1275     1.0  0.04986  0.61367  0.64372  1.0000
  Fe  Fe113     1.0  0.12089  0.48597  0.96863  1.0000
  H   H1276     1.0  0.28937  0.73323  0.79473  1.0000
  H   H1277     1.0  0.21910  0.48673  0.94712  1.0000
  C   C1608     1.0  0.19596  0.58059  0.97266  1.0000
  C   C1609     1.0  0.05289  0.65948  0.64435  1.0000
  H   H1278     1.0  0.48137  0.78013  0.17992  1.0000
  C   C1610     1.0  0.32539  0.97577  0.00856  1.0000
  C   C1611     1.0  0.46648  0.82710  0.99318  1.0000
  H   H1279     1.0  0.04006  0.89825  0.23015  1.0000
  Fe  Fe114     1.0  0.47797  0.85450  0.12651  1.0000
  S   S223      1.0  0.47447  0.85293  0.15501  1.0000
  S   S224      1.0  0.46798  0.88093  0.11055  1.0000
  P   P52       1.0  0.28289  0.76376  0.13758  1.0000
  C   C1612     1.0  0.48658  0.94236  0.19313  1.0000
  Fe  Fe115     1.0  0.46461  0.82864  0.15873  1.0000
  S   S225      1.0  0.44237  0.82150  0.18125  1.0000
  H   H1280     1.0  0.37970  0.74999  0.04948  1.0000
  S   S226      1.0  0.46581  0.83154  0.13037  1.0000
  C   C1613     1.0  0.04474  0.75633  0.11421  1.0000
  H   H1281     1.0  0.12193  0.77192  0.29038  1.0000
  C   C1614     1.0  0.32818  0.96245  0.99975  1.0000
  H   H1282     1.0  0.46223  0.94693  0.21264  1.0000
  Fe  Fe116     1.0  0.37204  0.83413  0.11055  1.0000
  S   S227      1.0  0.35566  0.83115  0.13796  1.0000
  S   S228      1.0  0.38325  0.85784  0.09622  1.0000
  Fe  Fe117     1.0  0.37393  0.80485  0.14293  1.0000
  H   H1283     1.0  0.39604  0.85653  0.17386  1.0000
  Fe  Fe118     1.0  0.34034  0.81770  0.12863  1.0000
  H   H1284     1.0  0.32052  0.96799  0.06492  1.0000
  S   S229      1.0  0.39175  0.80894  0.11638  1.0000
  S   S230      1.0  0.35505  0.82312  0.10054  1.0000
  Fe  Fe119     1.0  0.31590  0.96311  0.13643  1.0000
  S   S231      1.0  0.31002  0.96992  0.10984  1.0000
  S   S232      1.0  0.29515  0.96255  0.16165  1.0000
  Fe  Fe120     1.0  0.35590  0.95285  0.12233  1.0000
  S   S233      1.0  0.35294  0.95813  0.09474  1.0000
  S   S234      1.0  0.38348  0.94123  0.12732  1.0000
  C   C1615     1.0  0.14997  0.89187  0.28792  1.0000
  H   H1285     1.0  0.02558  0.79680  0.26886  1.0000
  Fe  Fe121     1.0  0.32982  0.94513  0.10601  1.0000
  S   S235      1.0  0.32240  0.92575  0.09587  1.0000
  C   C1616     1.0  0.07583  0.84202  0.29020  1.0000
  S   S236      1.0  0.33450  0.93753  0.13303  1.0000
  H   H1286     1.0  0.35694  0.86546  0.14002  1.0000
  P   P53       1.0  0.19482  0.78810  0.23416  1.0000
  P   P54       1.0  0.28711  0.96165  0.06225  1.0000
  C   C1617     1.0  0.40680  0.91299  0.16246  1.0000
  H   H1287     1.0  0.24840  0.81866  0.01846  1.0000
  H   H1288     1.0  0.03444  0.90361  0.25981  1.0000
  H   H1289     1.0  0.28418  0.96118  0.09914  1.0000
  C   C1618     1.0  0.42030  0.88691  0.23494  1.0000
  H   H1290     1.0  0.24857  0.88568  0.05803  1.0000
  C   C1619     1.0  0.15192  0.97592  0.22354  1.0000
  C   C1620     1.0  0.32020  0.82490  0.17982  1.0000
  C   C1621     1.0  0.31666  0.73982  0.08250  1.0000
  H   H1291     1.0  0.41618  0.91285  0.13507  1.0000
  S   S237      1.0  0.17606  0.86727  0.11093  1.0000
  H   H1292     1.0  0.39991  0.90962  0.19032  1.0000
  C   C1622     1.0  0.05025  0.76982  0.10057  1.0000
  H   H1293     1.0  0.08294  0.76177  0.20303  1.0000
  C   C1623     1.0  0.05327  0.79011  0.26925  1.0000
  Fe  Fe122     1.0  0.21119  0.94588  0.11228  1.0000
  S   S238      1.0  0.19155  0.95304  0.13593  1.0000
  S   S239      1.0  0.22339  0.91804  0.11001  1.0000
  C   C1624     1.0  0.26140  0.73768  0.11524  1.0000
  H   H1294     1.0  0.31274  0.74914  0.00182  1.0000
  Fe  Fe123     1.0  0.20884  0.97117  0.13437  1.0000
  H   H1295     1.0  0.35489  0.98010  0.03304  1.0000
  S   S240      1.0  0.19724  0.96639  0.09294  1.0000
  S   S241      1.0  0.22958  0.96222  0.11206  1.0000
  Fe  Fe124     1.0  0.11425  0.83959  0.21177  1.0000
  H   H1296     1.0  0.39729  0.92530  0.16021  1.0000
  S   S242      1.0  0.12215  0.86552  0.19951  1.0000
  C   C1625     1.0  0.47287  0.90321  0.24689  1.0000
  C   C1626     1.0  0.28683  0.74664  0.00154  1.0000
  Fe  Fe125     1.0  0.05937  0.95199  0.20626  1.0000
  S   S243      1.0  0.07721  0.95027  0.22369  1.0000
  S   S244      1.0  0.05487  0.92807  0.20075  1.0000
  Fe  Fe126     1.0  0.05456  0.96907  0.23641  1.0000
  S   S245      1.0  0.04598  0.96286  0.26573  1.0000
  Fe  Fe127     1.0  0.08474  0.97435  0.20471  1.0000
  C   C1627     1.0  0.13867  0.94915  0.28076  1.0000
  S   S246      1.0  0.03603  0.96910  0.22037  1.0000
  S   S247      1.0  0.06894  0.97435  0.18594  1.0000
  C   C1628     1.0  0.10349  0.88293  0.19940  1.0000
  C   C1629     1.0  0.08690  0.88004  0.20016  1.0000
  C   C1630     1.0  0.07205  0.89407  0.20027  1.0000
  C   C1631     1.0  0.07370  0.91089  0.19984  1.0000
  C   C1632     1.0  0.09027  0.91375  0.19910  1.0000
  C   C1633     1.0  0.10516  0.89982  0.19872  1.0000
  H   H1297     1.0  0.08549  0.86705  0.20063  1.0000
  H   H1298     1.0  0.05921  0.89188  0.20092  1.0000
  H   H1299     1.0  0.09162  0.92675  0.19856  1.0000
  H   H1300     1.0  0.11790  0.90223  0.19789  1.0000
  H   H1301     1.0  0.27986  0.79108  0.18579  1.0000
  H   H1302     1.0  0.39559  0.75424  0.06930  1.0000
  H   H1303     1.0  0.25017  0.75230  0.03396  1.0000
  C   C1634     1.0  0.22538  0.75134  0.09323  1.0000
  C   C1635     1.0  0.35408  0.75464  0.11533  1.0000
  C   C1636     1.0  0.46941  0.75402  0.16088  1.0000
  H   H1304     1.0  0.46627  0.73973  0.11209  1.0000
  C   C1637     1.0  0.16020  0.74288  0.29683  1.0000
  C   C1638     1.0  0.47304  0.95245  0.20369  1.0000
  H   H1305     1.0  0.03024  0.76235  0.27230  1.0000
  C   C1639     1.0  0.18853  0.88231  0.11000  1.0000
  C   C1640     1.0  0.18057  0.89781  0.11613  1.0000
  C   C1641     1.0  0.19110  0.90915  0.11599  1.0000
  C   C1642     1.0  0.20946  0.90506  0.10952  1.0000
  C   C1643     1.0  0.21720  0.88984  0.10307  1.0000
  C   C1644     1.0  0.20682  0.87852  0.10336  1.0000
  H   H1306     1.0  0.16640  0.90084  0.12125  1.0000
  H   H1307     1.0  0.18509  0.92103  0.12081  1.0000
  H   H1308     1.0  0.23135  0.88662  0.09796  1.0000
  H   H1309     1.0  0.21313  0.86683  0.09838  1.0000
  C   C1645     1.0  0.35852  0.82948  0.19499  1.0000
  Fe  Fe128     1.0  0.02658  0.73950  0.21390  1.0000
  H   H1310     1.0  0.48420  0.92415  0.22900  1.0000
  H   H1311     1.0  0.04698  0.78309  0.10258  1.0000
  C   C1646     1.0  0.13064  0.75952  0.29440  1.0000
  C   C1647     1.0  0.48613  0.97776  0.18994  1.0000
  C   C1648     1.0  0.19923  0.80010  0.28455  1.0000
  H   H1312     1.0  0.28435  0.74122  0.17221  1.0000
  H   H1313     1.0  0.04896  0.95735  0.30093  1.0000
  C   C1649     1.0  0.26236  0.78448  0.05041  1.0000
  H   H1314     1.0  0.21901  0.97271  0.98056  1.0000
  H   H1315     1.0  0.36456  0.81617  0.19346  1.0000
  H   H1316     1.0  0.25936  0.90418  0.07056  1.0000
  H   H1317     1.0  0.21557  0.75815  0.10262  1.0000
  C   C1650     1.0  0.13051  0.80456  0.29962  1.0000
  C   C1651     1.0  0.15294  0.75478  0.24729  1.0000
  S   S248      1.0  0.49158  0.81135  0.15831  1.0000
  C   C1652     1.0  0.00516  0.85397  0.29915  1.0000
  H   H1318     1.0  0.42047  0.94185  0.11968  1.0000
  C   C1653     1.0  0.38298  0.76275  0.06782  1.0000
  C   C1654     1.0  0.40995  0.74835  0.12185  1.0000
  C   C1655     1.0  0.21523  0.77172  0.20702  1.0000
  C   C1656     1.0  0.41756  0.90607  0.14823  1.0000
  H   H1319     1.0  0.26431  0.93139  0.16133  1.0000
  C   C1657     1.0  0.17741  0.93967  0.07914  1.0000
  H   H1320     1.0  0.36453  0.88237  0.20152  1.0000
  C   C1658     1.0  0.06367  0.81000  0.27936  1.0000
  C   C1659     1.0  0.27284  0.96619  0.16032  1.0000
  C   C1660     1.0  0.25959  0.96612  0.17565  1.0000
  H   H1321     1.0  0.31665  0.74459  0.12003  1.0000
  C   C1661     1.0  0.23707  0.97084  0.15920  1.0000
  C   C1662     1.0  0.25026  0.97103  0.14384  1.0000
  C   C1663     1.0  0.26810  0.96869  0.14441  1.0000
  H   H1322     1.0  0.48961  0.82809  0.20345  1.0000
  C   C1664     1.0  0.45675  0.76574  0.09832  1.0000
  C   C1665     1.0  0.24648  0.78008  0.98552  1.0000
  Fe  Fe129     1.0  0.48816  0.96212  0.12511  1.0000
  C   C1666     1.0  0.34458  0.83256  0.20921  1.0000
  H   H1323     1.0  0.34003  0.82159  0.21878  1.0000
  H   H1324     1.0  0.43851  0.88511  0.13990  1.0000
  S   S249      1.0  0.46785  0.97469  0.10895  1.0000
  C   C1667     1.0  0.42206  0.96332  0.12939  1.0000
  C   C1668     1.0  0.36670  0.87702  0.09433  1.0000
  C   C1669     1.0  0.36999  0.89255  0.09565  1.0000
  C   C1670     1.0  0.35641  0.90763  0.09595  1.0000
  C   C1671     1.0  0.33974  0.90741  0.09408  1.0000
  C   C1672     1.0  0.33676  0.89222  0.09148  1.0000
  C   C1673     1.0  0.35019  0.87689  0.09189  1.0000
  H   H1325     1.0  0.38286  0.89276  0.09708  1.0000
  H   H1326     1.0  0.35875  0.91935  0.09790  1.0000
  H   H1327     1.0  0.32384  0.89212  0.08997  1.0000
  H   H1328     1.0  0.34769  0.86494  0.09063  1.0000
  C   C1674     1.0  0.39443  0.95556  0.13077  1.0000
  C   C1675     1.0  0.41302  0.95249  0.12608  1.0000
  H   H1329     1.0  0.17884  0.75640  0.08711  1.0000
  C   C1676     1.0  0.05181  0.97586  0.27628  1.0000
  H   H1330     1.0  0.16226  0.89641  0.28340  1.0000
  H   H1331     1.0  0.45613  0.80341  0.10912  1.0000
  H   H1332     1.0  0.06914  0.73758  0.16874  1.0000
  C   C1677     1.0  0.41848  0.77039  0.02390  1.0000
  C   C1678     1.0  0.03951  0.77639  0.22080  1.0000
  H   H1333     1.0  0.27404  0.92968  0.06999  1.0000
  H   H1334     1.0  0.35934  0.94165  0.16269  1.0000
  C   C1679     1.0  0.16293  0.77944  0.19022  1.0000
  C   C1680     1.0  0.16849  0.84129  0.20339  1.0000
  C   C1681     1.0  0.05967  0.76627  0.08431  1.0000
  H   H1335     1.0  0.49256  0.76512  0.15534  1.0000
  C   C1682     1.0  0.42646  0.81300  0.17705  1.0000
  C   C1683     1.0  0.41483  0.80503  0.19127  1.0000
  C   C1684     1.0  0.40147  0.79876  0.18856  1.0000
  C   C1685     1.0  0.39923  0.80096  0.17164  1.0000
  C   C1686     1.0  0.41086  0.80887  0.15736  1.0000
  C   C1687     1.0  0.42471  0.81454  0.16006  1.0000
  H   H1336     1.0  0.41621  0.80365  0.20442  1.0000
  H   H1337     1.0  0.32224  0.95516  0.97892  1.0000
  H   H1338     1.0  0.40925  0.81058  0.14424  1.0000
  H   H1339     1.0  0.43370  0.82049  0.14898  1.0000
  H   H1340     1.0  0.48832  0.78797  0.98731  1.0000
  C   C1688     1.0  0.36655  0.74600  0.12557  1.0000
  H   H1341     1.0  0.10569  0.87607  0.30579  1.0000
  C   C1689     1.0  0.47759  0.89607  0.11437  1.0000
  C   C1690     1.0  0.47004  0.91406  0.11084  1.0000
  C   C1691     1.0  0.47746  0.92592  0.11471  1.0000
  C   C1692     1.0  0.35267  0.74731  0.10236  1.0000
  C   C1693     1.0  0.48903  0.82692  0.00767  1.0000
  H   H1342     1.0  0.45830  0.91878  0.10542  1.0000
  H   H1343     1.0  0.47138  0.93965  0.11228  1.0000
  P   P55       1.0  0.17399  0.90162  0.18409  1.0000
  C   C1694     1.0  0.26927  0.74738  0.01073  1.0000
  H   H1344     1.0  0.33831  0.79416  0.06114  1.0000
  H   H1345     1.0  0.36480  0.84274  0.23134  1.0000
  C   C1695     1.0  0.04649  0.82054  0.28210  1.0000
  C   C1696     1.0  0.17082  0.74729  0.24174  1.0000
  H   H1346     1.0  0.16108  0.86768  0.30420  1.0000
  H   H1347     1.0  0.34635  0.76756  0.11673  1.0000
  C   C1697     1.0  0.30931  0.98188  0.98056  1.0000
  C   C1698     1.0  0.25165  0.75173  0.14499  1.0000
  H   H1348     1.0  0.14045  0.92157  0.20275  1.0000
  C   C1699     1.0  0.16796  0.89242  0.20725  1.0000
  H   H1349     1.0  0.48230  0.81598  0.06530  1.0000
  C   C1700     1.0  0.15266  0.74038  0.02380  1.0000
  C   C1701     1.0  0.45225  0.75394  0.17130  1.0000
  H   H1350     1.0  0.16383  0.94632  0.10402  1.0000
  C   C1702     1.0  0.47591  0.83102  0.02217  1.0000
  C   C1703     1.0  0.45790  0.83385  0.02203  1.0000
  C   C1704     1.0  0.45333  0.83138  0.00760  1.0000
  P   P56       1.0  0.44073  0.83742  0.04120  1.0000
  C   C1705     1.0  0.43321  0.81713  0.04921  1.0000
  C   C1706     1.0  0.44834  0.84199  0.05796  1.0000
  C   C1707     1.0  0.44197  0.83487  0.07567  1.0000
  C   C1708     1.0  0.44649  0.83979  0.08871  1.0000
  C   C1709     1.0  0.45748  0.85173  0.08419  1.0000
  C   C1710     1.0  0.46371  0.85900  0.06664  1.0000
  C   C1711     1.0  0.45895  0.85437  0.05356  1.0000
  C   C1712     1.0  0.41526  0.81678  0.05214  1.0000
  C   C1713     1.0  0.41000  0.80079  0.05732  1.0000
  C   C1714     1.0  0.42253  0.78503  0.05989  1.0000
  C   C1715     1.0  0.44040  0.78527  0.05694  1.0000
  C   C1716     1.0  0.44575  0.80125  0.05160  1.0000
  C   C1717     1.0  0.42304  0.85616  0.03646  1.0000
  C   C1718     1.0  0.42392  0.86716  0.01973  1.0000
  C   C1719     1.0  0.41024  0.88185  0.01656  1.0000
  C   C1720     1.0  0.39575  0.88581  0.03009  1.0000
  C   C1721     1.0  0.39501  0.87517  0.04685  1.0000
  C   C1722     1.0  0.40865  0.86052  0.05006  1.0000
  H   H1351     1.0  0.03700  0.75940  0.12660  1.0000
  C   C1723     1.0  0.17887  0.89081  0.21864  1.0000
  C   C1724     1.0  0.27921  0.94734  0.08256  1.0000
  H   H1352     1.0  0.47999  0.83124  0.03365  1.0000
  H   H1353     1.0  0.43959  0.83232  0.00772  1.0000
  H   H1354     1.0  0.43308  0.82593  0.07948  1.0000
  H   H1355     1.0  0.44124  0.83457  0.10234  1.0000
  H   H1356     1.0  0.46098  0.85558  0.09428  1.0000
  H   H1357     1.0  0.47201  0.86846  0.06325  1.0000
  H   H1358     1.0  0.46338  0.86061  0.04005  1.0000
  H   H1359     1.0  0.40526  0.82870  0.05044  1.0000
  H   H1360     1.0  0.39614  0.80061  0.05957  1.0000
  H   H1361     1.0  0.41839  0.77263  0.06432  1.0000
  H   H1362     1.0  0.45008  0.77305  0.05886  1.0000
  H   H1363     1.0  0.45968  0.80119  0.04931  1.0000
  H   H1364     1.0  0.43523  0.86469  0.00918  1.0000
  H   H1365     1.0  0.41100  0.89032  0.00364  1.0000
  H   H1366     1.0  0.38523  0.89725  0.02769  1.0000
  H   H1367     1.0  0.38398  0.87834  0.05750  1.0000
  H   H1368     1.0  0.40798  0.85260  0.06322  1.0000
  H   H1369     1.0  0.37610  0.79450  0.02690  1.0000
  C   C1725     1.0  0.45630  0.77252  0.18786  1.0000
  C   C1726     1.0  0.30398  0.81990  0.18404  1.0000
  C   C1727     1.0  0.01115  0.74802  0.27285  1.0000
  C   C1728     1.0  0.04088  0.79151  0.22506  1.0000
  C   C1729     1.0  0.04035  0.88727  0.24133  1.0000
  C   C1730     1.0  0.09834  0.75235  0.25560  1.0000
  H   H1370     1.0  0.37102  0.84328  0.04049  1.0000
  H   H1371     1.0  0.11842  0.91643  0.16093  1.0000
  C   C1731     1.0  0.32003  0.96546  0.98582  1.0000
  C   C1732     1.0  0.08501  0.89618  0.09598  1.0000
  C   C1733     1.0  0.02086  0.75456  0.28053  1.0000
  C   C1734     1.0  0.33221  0.92680  0.04536  1.0000
  C   C1735     1.0  0.07259  0.78500  0.21371  1.0000
  C   C1736     1.0  0.27381  0.93245  0.08226  1.0000
  S   S250      1.0  0.00069  0.75500  0.22627  1.0000
  C   C1737     1.0  0.32071  0.84265  0.17468  1.0000
  C   C1738     1.0  0.29086  0.83915  0.09677  1.0000
  C   C1739     1.0  0.28784  0.75287  0.06602  1.0000
  H   H1372     1.0  0.06057  0.74183  0.14094  1.0000
  C   C1740     1.0  0.29935  0.74535  0.14552  1.0000
  Fe  Fe130     1.0  0.17894  0.97516  0.11671  1.0000
  C   C1741     1.0  0.25566  0.80001  0.17637  1.0000
  P   P57       1.0  0.40589  0.79494  0.99613  1.0000
  C   C1742     1.0  0.26394  0.75132  0.02723  1.0000
  H   H1373     1.0  0.23386  0.80736  0.16328  1.0000
  C   C1743     1.0  0.18029  0.79785  0.16691  1.0000
  C   C1744     1.0  0.19800  0.79160  0.25391  1.0000
  H   H1374     1.0  0.31469  0.77745  0.12919  1.0000
  C   C1745     1.0  0.49254  0.91983  0.12193  1.0000
  C   C1746     1.0  0.46633  0.88838  0.24878  1.0000
  H   H1375     1.0  0.26005  0.76614  0.21921  1.0000
  H   H1376     1.0  0.00827  0.97486  0.26740  1.0000
  H   H1377     1.0  0.08926  0.83944  0.16177  1.0000
  H   H1378     1.0  0.46064  0.87185  0.23535  1.0000
  H   H1379     1.0  0.27182  0.78293  0.10468  1.0000
  H   H1380     1.0  0.06771  0.82544  0.18566  1.0000
  H   H1381     1.0  0.24912  0.80837  0.18558  1.0000
  P   P58       1.0  0.09111  0.87631  0.14631  1.0000
  C   C1747     1.0  0.35066  0.78529  0.06324  1.0000
  C   C1748     1.0  0.45920  0.96116  0.07172  1.0000
  C   C1749     1.0  0.20698  0.80920  0.26827  1.0000
  C   C1750     1.0  0.18368  0.75713  0.23818  1.0000
  C   C1751     1.0  0.26817  0.92401  0.11380  1.0000
  C   C1752     1.0  0.06794  0.87364  0.10856  1.0000
  C   C1753     1.0  0.21995  0.91757  0.15624  1.0000
  C   C1754     1.0  0.22170  0.92833  0.16605  1.0000
  C   C1755     1.0  0.20913  0.93086  0.18134  1.0000
  C   C1756     1.0  0.20567  0.90924  0.16175  1.0000
  H   H1382     1.0  0.22915  0.91644  0.14386  1.0000
  H   H1383     1.0  0.23225  0.93549  0.16130  1.0000
  H   H1384     1.0  0.21006  0.94003  0.18833  1.0000
  H   H1385     1.0  0.20396  0.90208  0.15317  1.0000
  C   C1757     1.0  0.41471  0.85869  0.14932  1.0000
  C   C1758     1.0  0.41761  0.86651  0.13153  1.0000
  C   C1759     1.0  0.40379  0.87849  0.12461  1.0000
  C   C1760     1.0  0.38691  0.88230  0.13534  1.0000
  C   C1761     1.0  0.38372  0.87389  0.15308  1.0000
  C   C1762     1.0  0.39791  0.86250  0.16009  1.0000
  P   P59       1.0  0.36216  0.87929  0.16713  1.0000
  C   C1763     1.0  0.34472  0.88528  0.15528  1.0000
  C   C1764     1.0  0.34546  0.87571  0.14313  1.0000
  C   C1765     1.0  0.33140  0.87936  0.13483  1.0000
  C   C1766     1.0  0.31689  0.89315  0.13794  1.0000
  C   C1767     1.0  0.31593  0.90260  0.15019  1.0000
  C   C1768     1.0  0.32959  0.89844  0.15914  1.0000
  C   C1769     1.0  0.35628  0.86087  0.18410  1.0000
  C   C1770     1.0  0.36429  0.84354  0.18237  1.0000
  H   H1386     1.0  0.42565  0.85004  0.15482  1.0000
  H   H1387     1.0  0.43072  0.86374  0.12322  1.0000
  H   H1388     1.0  0.40627  0.88490  0.11093  1.0000
  H   H1389     1.0  0.37643  0.89187  0.12980  1.0000
  H   H1390     1.0  0.33196  0.87172  0.12568  1.0000
  H   H1391     1.0  0.30655  0.89670  0.13063  1.0000
  H   H1392     1.0  0.30485  0.91352  0.15238  1.0000
  H   H1393     1.0  0.32847  0.90589  0.16867  1.0000
  H   H1394     1.0  0.37457  0.84076  0.17106  1.0000
  S   S251      1.0  0.09196  0.83702  0.23540  1.0000
  C   C1771     1.0  0.14605  0.88120  0.23207  1.0000
  C   C1772     1.0  0.06026  0.87620  0.17286  1.0000
  C   C1773     1.0  0.04473  0.85596  0.25338  1.0000
  C   C1774     1.0  0.44146  0.96339  0.07111  1.0000
  C   C1775     1.0  0.25192  0.82127  0.04271  1.0000
  C   C1776     1.0  0.15761  0.92599  0.15894  1.0000
  H   H1395     1.0  0.06985  0.88890  0.08216  1.0000
  C   C1777     1.0  0.38076  0.80644  0.02445  1.0000
  H   H1396     1.0  0.30375  0.80611  0.18730  1.0000
  C   C1778     1.0  0.12375  0.74446  0.30242  1.0000
  H   H1397     1.0  0.38999  0.83241  0.20831  1.0000
  C   C1779     1.0  0.21431  0.96472  0.99319  1.0000
  H   H1398     1.0  0.12252  0.79533  0.30766  1.0000
  C   C1780     1.0  0.10389  0.75157  0.27065  1.0000
  H   H1399     1.0  0.17421  0.74234  0.29487  1.0000
  C   C1781     1.0  0.39019  0.78467  0.99270  1.0000
  C   C1782     1.0  0.35777  0.77163  0.05432  1.0000
  C   C1783     1.0  0.17864  0.77471  0.23977  1.0000
  C   C1784     1.0  0.03715  0.89030  0.25808  1.0000
  C   C1785     1.0  0.27404  0.93851  0.11421  1.0000
  C   C1786     1.0  0.04427  0.87010  0.23898  1.0000
  S   S252      1.0  0.33775  0.97799  0.12818  1.0000
  C   C1787     1.0  0.37198  0.81858  0.03499  1.0000
  H   H1400     1.0  0.48512  0.89617  0.17271  1.0000
  C   C1788     1.0  0.31448  0.73855  0.13383  1.0000
  C   C1789     1.0  0.14028  0.84713  0.12871  1.0000
  H   H1401     1.0  0.24905  0.96787  0.06545  1.0000
  H   H1402     1.0  0.34644  0.79163  0.99213  1.0000
  C   C1790     1.0  0.15157  0.74049  0.04115  1.0000
  C   C1791     1.0  0.24530  0.73603  0.12702  1.0000
  S   S253      1.0  0.47231  0.97329  0.14839  1.0000
  C   C1792     1.0  0.99932  0.73754  0.28334  1.0000
  H   H1403     1.0  0.28504  0.74759  0.10904  1.0000
  H   H1404     1.0  0.33191  0.97361  0.01919  1.0000
  H   H1405     1.0  0.08021  0.78665  0.27121  1.0000
  S   S254      1.0  0.47918  0.75121  0.03932  1.0000
  H   H1406     1.0  0.33246  0.81503  0.17992  1.0000
  C   C1793     1.0  0.10672  0.89910  0.15433  1.0000
  H   H1407     1.0  0.04788  0.84280  0.25112  1.0000
  H   H1408     1.0  0.46583  0.94909  0.07917  1.0000
  H   H1409     1.0  0.32035  0.76637  0.07482  1.0000
  C   C1794     1.0  0.12841  0.94457  0.16485  1.0000
  H   H1410     1.0  0.08971  0.97353  0.26278  1.0000
  C   C1795     1.0  0.40748  0.75541  0.15414  1.0000
  C   C1796     1.0  0.47844  0.91319  0.23023  1.0000
  C   C1797     1.0  0.40222  0.96296  0.06532  1.0000
  C   C1798     1.0  0.16073  0.78186  0.24611  1.0000
  C   C1799     1.0  0.07386  0.88648  0.09439  1.0000
  C   C1800     1.0  0.47979  0.76378  0.16391  1.0000
  C   C1801     1.0  0.13474  0.90213  0.28210  1.0000
  C   C1802     1.0  0.11871  0.89637  0.28820  1.0000
  C   C1803     1.0  0.46798  0.75935  0.12462  1.0000
  P   P60       1.0  0.09904  0.90895  0.28039  1.0000
  C   C1804     1.0  0.08129  0.91346  0.29888  1.0000
  C   C1805     1.0  0.10297  0.92943  0.26601  1.0000
  C   C1806     1.0  0.09433  0.94544  0.27087  1.0000
  C   C1807     1.0  0.09653  0.96120  0.25911  1.0000
  C   C1808     1.0  0.10735  0.96117  0.24254  1.0000
  C   C1809     1.0  0.11615  0.94531  0.23758  1.0000
  C   C1810     1.0  0.11392  0.92945  0.24925  1.0000
  H   H1411     1.0  0.01317  0.75073  0.25880  1.0000
  C   C1811     1.0  0.05271  0.96960  0.29383  1.0000
  C   C1812     1.0  0.27950  0.95016  0.09864  1.0000
  C   C1813     1.0  0.35952  0.78737  0.07487  1.0000
  C   C1814     1.0  0.42212  0.77746  0.00583  1.0000
  C   C1815     1.0  0.09311  0.89777  0.26726  1.0000
  C   C1816     1.0  0.10092  0.88009  0.26679  1.0000
  C   C1817     1.0  0.09683  0.87211  0.25572  1.0000
  C   C1818     1.0  0.08504  0.88171  0.24497  1.0000
  C   C1819     1.0  0.07744  0.89934  0.24517  1.0000
  C   C1820     1.0  0.08138  0.90732  0.25629  1.0000
  C   C1821     1.0  0.06339  0.74925  0.08162  1.0000
  H   H1412     1.0  0.13554  0.91456  0.27302  1.0000
  H   H1413     1.0  0.40984  0.76150  0.98666  1.0000
  H   H1414     1.0  0.08561  0.94595  0.28354  1.0000
  H   H1415     1.0  0.18874  0.97530  0.19058  1.0000
  H   H1416     1.0  0.10855  0.97352  0.23349  1.0000
  H   H1417     1.0  0.12417  0.94543  0.22448  1.0000
  H   H1418     1.0  0.12036  0.91724  0.24509  1.0000
  H   H1419     1.0  0.06015  0.91310  0.28734  1.0000
  C   C1822     1.0  0.12999  0.97913  0.26477  1.0000
  C   C1823     1.0  0.31014  0.95119  0.05560  1.0000
  S   S255      1.0  0.26013  0.84021  0.08794  1.0000
  C   C1824     1.0  0.39241  0.83737  0.01880  1.0000
  H   H1420     1.0  0.11031  0.87241  0.27470  1.0000
  H   H1421     1.0  0.10289  0.85848  0.25536  1.0000
  H   H1422     1.0  0.08188  0.87556  0.23639  1.0000
  H   H1423     1.0  0.06855  0.90691  0.23659  1.0000
  H   H1424     1.0  0.07538  0.92106  0.25618  1.0000
  C   C1825     1.0  0.19488  0.92247  0.18697  1.0000
  H   H1425     1.0  0.22072  0.89706  0.04761  1.0000
  C   C1826     1.0  0.17812  0.94382  0.06116  1.0000
  P   P61       1.0  0.19474  0.93083  0.04712  1.0000
  C   C1827     1.0  0.18505  0.91330  0.04710  1.0000
  C   C1828     1.0  0.20168  0.94423  0.02587  1.0000
  C   C1829     1.0  0.20130  0.96203  0.02409  1.0000
  H   H1426     1.0  0.27269  0.78542  0.97851  1.0000
  H   H1427     1.0  0.33673  0.94986  0.00369  1.0000
  C   C1830     1.0  0.49130  0.77569  0.98327  1.0000
  C   C1831     1.0  0.20915  0.93662  0.01127  1.0000
  C   C1832     1.0  0.18448  0.89898  0.06145  1.0000
  C   C1833     1.0  0.17698  0.88529  0.06172  1.0000
  C   C1834     1.0  0.16968  0.88595  0.04784  1.0000
  C   C1835     1.0  0.16966  0.90045  0.03377  1.0000
  C   C1836     1.0  0.17718  0.91418  0.03345  1.0000
  C   C1837     1.0  0.21493  0.92207  0.05502  1.0000
  C   C1838     1.0  0.22126  0.93253  0.06191  1.0000
  C   C1839     1.0  0.23731  0.92616  0.06732  1.0000
  C   C1840     1.0  0.24718  0.90932  0.06588  1.0000
  C   C1841     1.0  0.24107  0.89887  0.05885  1.0000
  C   C1842     1.0  0.22509  0.90529  0.05324  1.0000
  H   H1428     1.0  0.18724  0.92911  0.08460  1.0000
  H   H1429     1.0  0.19647  0.96803  0.03532  1.0000
  C   C1843     1.0  0.39607  0.76831  0.98797  1.0000
  H   H1430     1.0  0.18481  0.77983  0.29826  1.0000
  C   C1844     1.0  0.29912  0.74975  0.00887  1.0000
  H   H1431     1.0  0.21042  0.92272  0.01252  1.0000
  H   H1432     1.0  0.18985  0.89833  0.07247  1.0000
  H   H1433     1.0  0.17680  0.87418  0.07279  1.0000
  H   H1434     1.0  0.16392  0.87527  0.04809  1.0000
  H   H1435     1.0  0.16374  0.90106  0.02315  1.0000
  H   H1436     1.0  0.17672  0.92547  0.02266  1.0000
  H   H1437     1.0  0.21372  0.94554  0.06331  1.0000
  H   H1438     1.0  0.24165  0.93410  0.07330  1.0000
  H   H1439     1.0  0.02909  0.79987  0.23107  1.0000
  C   C1845     1.0  0.23175  0.77596  0.22566  1.0000
  C   C1846     1.0  0.34193  0.86386  0.19818  1.0000
  C   C1847     1.0  0.12253  0.95115  0.29290  1.0000
  C   C1848     1.0  0.38999  0.84346  0.21332  1.0000
  H   H1440     1.0  0.24897  0.84257  0.17298  1.0000
  H   H1441     1.0  0.43635  0.96087  0.12566  1.0000
  C   C1849     1.0  0.37399  0.76041  0.05653  1.0000
  C   C1850     1.0  0.11269  0.86168  0.14520  1.0000
  C   C1851     1.0  0.37579  0.84932  0.22624  1.0000
  C   C1852     1.0  0.16700  0.83857  0.22132  1.0000
  C   C1853     1.0  0.18866  0.76185  0.07650  1.0000
  H   H1442     1.0  0.18157  0.88361  0.24546  1.0000
  H   H1443     1.0  0.19167  0.89428  0.21371  1.0000
  H   H1444     1.0  0.36452  0.86855  0.24215  1.0000
  C   C1854     1.0  0.19336  0.91107  0.17756  1.0000
  H   H1445     1.0  0.08539  0.78832  0.21081  1.0000
  H   H1446     1.0  0.18475  0.92534  0.19833  1.0000
  H   H1447     1.0  0.40629  0.77565  0.03230  1.0000
  C   C1855     1.0  0.14932  0.87576  0.29968  1.0000
  C   C1856     1.0  0.03277  0.81568  0.27820  1.0000
  C   C1857     1.0  0.43006  0.89037  0.15097  1.0000
  H   H1448     1.0  0.25514  0.82495  0.12498  1.0000
  C   C1858     1.0  0.47290  0.97006  0.20216  1.0000
  S   S256      1.0  0.23355  0.80152  0.10156  1.0000
  C   C1859     1.0  0.36229  0.89749  0.17564  1.0000
  C   C1860     1.0  0.22427  0.86236  0.21358  1.0000
  C   C1861     1.0  0.27632  0.75419  0.03477  1.0000
  C   C1862     1.0  0.37569  0.86381  0.23236  1.0000
  H   H1449     1.0  0.27808  0.96895  0.13252  1.0000
  C   C1863     1.0  0.17323  0.88467  0.23666  1.0000
  C   C1864     1.0  0.33622  0.84975  0.21077  1.0000
  C   C1865     1.0  0.36311  0.89526  0.19307  1.0000
  C   C1866     1.0  0.40425  0.85183  0.20678  1.0000
  C   C1867     1.0  0.38987  0.87235  0.22566  1.0000
  H   H1450     1.0  0.41513  0.84719  0.19669  1.0000
  H   H1451     1.0  0.44032  0.86857  0.16986  1.0000
  H   H1452     1.0  0.03651  0.87603  0.19321  1.0000
  H   H1453     1.0  0.33492  0.87712  0.19923  1.0000
  H   H1454     1.0  0.16463  0.96008  0.04073  1.0000
  H   H1455     1.0  0.29583  0.77774  0.05960  1.0000
  H   H1456     1.0  0.29476  0.77186  0.16491  1.0000
  C   C1868     1.0  0.43135  0.88122  0.16795  1.0000
  C   C1869     1.0  0.36046  0.92654  0.18880  1.0000
  C   C1870     1.0  0.16478  0.95713  0.05446  1.0000
  C   C1871     1.0  0.45072  0.92382  0.15596  1.0000
  H   H1457     1.0  0.27786  0.93019  0.18545  1.0000
  C   C1872     1.0  0.40102  0.95102  0.08150  1.0000
  H   H1458     1.0  0.15231  0.87537  0.25735  1.0000
  C   C1873     1.0  0.29392  0.75347  0.02545  1.0000
  H   H1459     1.0  0.46872  0.78234  0.13279  1.0000
  H   H1460     1.0  0.44366  0.74722  0.16882  1.0000
  C   C1874     1.0  0.15186  0.82165  0.29684  1.0000
  H   H1461     1.0  0.36172  0.91603  0.15096  1.0000
  H   H1462     1.0  0.32511  0.85216  0.22156  1.0000
  Fe  Fe131     1.0  0.21124  0.81254  0.08736  1.0000
  C   C1875     1.0  0.40453  0.86605  0.21320  1.0000
  C   C1876     1.0  0.15674  0.88005  0.24339  1.0000
  H   H1463     1.0  0.09302  0.94189  0.15746  1.0000
  C   C1877     1.0  0.42342  0.89181  0.21664  1.0000
  C   C1878     1.0  0.03616  0.80049  0.27190  1.0000
  C   C1879     1.0  0.16409  0.94926  0.09017  1.0000
  C   C1880     1.0  0.36147  0.91421  0.16466  1.0000
  C   C1881     1.0  0.42088  0.88823  0.18229  1.0000
  H   H1464     1.0  0.38923  0.88390  0.23012  1.0000
  C   C1882     1.0  0.40837  0.90408  0.17946  1.0000
  H   H1465     1.0  0.11744  0.95413  0.16020  1.0000
  P   P62       1.0  0.42302  0.87675  0.20419  1.0000
  C   C1883     1.0  0.05068  0.84986  0.19076  1.0000
  H   H1466     1.0  0.11919  0.86432  0.11709  1.0000
  H   H1467     1.0  0.41759  0.87411  0.24171  1.0000
  C   C1884     1.0  0.26804  0.91890  0.17007  1.0000
  C   C1885     1.0  0.37228  0.79327  0.99368  1.0000
  C   C1886     1.0  0.45966  0.86631  0.19450  1.0000
  H   H1468     1.0  0.45912  0.87940  0.18653  1.0000
  H   H1469     1.0  0.38872  0.74775  0.98148  1.0000
  C   C1887     1.0  0.27564  0.91825  0.18373  1.0000
  H   H1470     1.0  0.11574  0.94343  0.19192  1.0000
  H   H1471     1.0  0.18695  0.78359  0.08780  1.0000
  C   C1888     1.0  0.05738  0.79594  0.22139  1.0000
  C   C1889     1.0  0.15644  0.91918  0.17691  1.0000
  C   C1890     1.0  0.14148  0.92591  0.18883  1.0000
  C   C1891     1.0  0.12740  0.93837  0.18276  1.0000
  C   C1892     1.0  0.14365  0.93869  0.15293  1.0000
  C   C1893     1.0  0.12901  0.81206  0.28235  1.0000
  C   C1894     1.0  0.36205  0.90978  0.19967  1.0000
  H   H1472     1.0  0.16926  0.92134  0.14960  1.0000
  C   C1895     1.0  0.36025  0.92872  0.17128  1.0000
  H   H1473     1.0  0.05793  0.89033  0.16979  1.0000
  H   H1474     1.0  0.46638  0.89836  0.15259  1.0000
  H   H1475     1.0  0.28643  0.90180  0.20559  1.0000
  H   H1476     1.0  0.36244  0.90807  0.21319  1.0000
  H   H1477     1.0  0.14874  0.84472  0.11633  1.0000
  C   C1896     1.0  0.28054  0.90222  0.19501  1.0000
  C   C1897     1.0  0.14794  0.77196  0.24974  1.0000
  H   H1478     1.0  0.23164  0.96835  0.18702  1.0000
  H   H1479     1.0  0.14464  0.94408  0.13906  1.0000
  H   H1480     1.0  0.46225  0.97795  0.21000  1.0000
  H   H1481     1.0  0.18441  0.84956  0.14573  1.0000
  C   C1898     1.0  0.15187  0.88689  0.21408  1.0000
  H   H1482     1.0  0.13338  0.87735  0.23712  1.0000
  H   H1483     1.0  0.20412  0.87293  0.17558  1.0000
  C   C1899     1.0  0.42069  0.89851  0.24463  1.0000
  C   C1900     1.0  0.15156  0.96681  0.06549  1.0000
  S   S257      1.0  0.11312  0.80678  0.27485  1.0000
  H   H1484     1.0  0.44065  0.77433  0.98125  1.0000
  H   H1485     1.0  0.15862  0.83843  0.27154  1.0000
  H   H1486     1.0  0.29284  0.86940  0.11135  1.0000
  S   S258      1.0  0.13441  0.81832  0.22415  1.0000
  C   C1901     1.0  0.16466  0.79599  0.17971  1.0000
  C   C1902     1.0  0.44394  0.86104  0.20425  1.0000
  C   C1903     1.0  0.04800  0.86812  0.18623  1.0000
  H   H1487     1.0  0.42501  0.92385  0.24357  1.0000
  H   H1488     1.0  0.17313  0.82060  0.24454  1.0000
  C   C1904     1.0  0.17699  0.88425  0.17304  1.0000
  H   H1489     1.0  0.13823  0.82993  0.25866  1.0000
  C   C1905     1.0  0.12352  0.85832  0.12921  1.0000
  C   C1906     1.0  0.42797  0.90805  0.20815  1.0000
  H   H1490     1.0  0.29094  0.74336  0.98889  1.0000
  H   H1491     1.0  0.46198  0.81852  0.22119  1.0000
  H   H1492     1.0  0.14370  0.88715  0.20545  1.0000
  H   H1493     1.0  0.27603  0.82840  0.18545  1.0000
  H   H1494     1.0  0.35402  0.79783  0.08182  1.0000
  C   C1907     1.0  0.24229  0.84801  0.18444  1.0000
  H   H1495     1.0  0.32798  0.79769  0.10357  1.0000
  C   C1908     1.0  0.46512  0.77744  0.12350  1.0000
  C   C1909     1.0  0.15128  0.96294  0.08333  1.0000
  C   C1910     1.0  0.20639  0.80498  0.25298  1.0000
  H   H1496     1.0  0.43171  0.93219  0.21119  1.0000
  Fe  Fe132     1.0  0.19551  0.84190  0.10748  1.0000
  C   C1911     1.0  0.18559  0.80928  0.22176  1.0000
  C   C1912     1.0  0.47608  0.85458  0.19453  1.0000
  C   C1913     1.0  0.21530  0.94688  0.99496  1.0000
  H   H1497     1.0  0.43137  0.91182  0.19404  1.0000
  C   C1914     1.0  0.31454  0.93585  0.04915  1.0000
  H   H1498     1.0  0.24487  0.87664  0.20684  1.0000
  H   H1499     1.0  0.35956  0.93786  0.19382  1.0000
  C   C1915     1.0  0.44777  0.93750  0.16433  1.0000
  H   H1500     1.0  0.09898  0.90060  0.11274  1.0000
  H   H1501     1.0  0.15952  0.83096  0.14356  1.0000
  Fe  Fe133     1.0  0.21243  0.80604  0.12545  1.0000
  C   C1916     1.0  0.04133  0.85892  0.27029  1.0000
  C   C1917     1.0  0.47690  0.83734  0.20409  1.0000
  C   C1918     1.0  0.45796  0.78952  0.11001  1.0000
  H   H1502     1.0  0.41807  0.89475  0.25875  1.0000
  C   C1919     1.0  0.46134  0.83199  0.21403  1.0000
  H   H1503     1.0  0.43309  0.83935  0.22210  1.0000
  H   H1504     1.0  0.15009  0.89147  0.16889  1.0000
  C   C1920     1.0  0.26825  0.82771  0.12028  1.0000
  H   H1505     1.0  0.14117  0.97055  0.09189  1.0000
  C   C1921     1.0  0.27232  0.77782  0.15288  1.0000
  S   S259      1.0  0.38640  0.77708  0.09273  1.0000
  C   C1922     1.0  0.15095  0.82879  0.27927  1.0000
  S   S260      1.0  0.21465  0.97329  0.15909  1.0000
  C   C1923     1.0  0.13945  0.82401  0.27200  1.0000
  C   C1924     1.0  0.44491  0.84383  0.21431  1.0000
  C   C1925     1.0  0.40115  0.82534  0.00814  1.0000
  C   C1926     1.0  0.42839  0.91960  0.21785  1.0000
  Fe  Fe134     1.0  0.11167  0.81444  0.24671  1.0000
  H   H1506     1.0  0.21726  0.86795  0.22486  1.0000
  C   C1927     1.0  0.19334  0.87225  0.17046  1.0000
  C   C1928     1.0  0.42465  0.91489  0.23608  1.0000
  H   H1507     1.0  0.19743  0.75097  0.23402  1.0000
  H   H1508     1.0  0.16129  0.85334  0.19647  1.0000
  H   H1509     1.0  0.26311  0.96431  0.18799  1.0000
  C   C1929     1.0  0.26724  0.87078  0.15216  1.0000
  C   C1930     1.0  0.41518  0.76309  0.12261  1.0000
  H   H1510     1.0  0.21193  0.81252  0.24043  1.0000
  C   C1931     1.0  0.27805  0.88679  0.19250  1.0000
  C   C1932     1.0  0.20739  0.97226  0.00777  1.0000
  S   S261      1.0  0.31115  0.81975  0.14024  1.0000
  Fe  Fe135     1.0  0.37355  0.79755  0.10851  1.0000
  C   C1933     1.0  0.07784  0.84765  0.16849  1.0000
  C   C1934     1.0  0.17690  0.76490  0.18829  1.0000
  C   C1935     1.0  0.25332  0.96412  0.02398  1.0000
  H   H1511     1.0  0.43227  0.76360  0.19229  1.0000
  C   C1936     1.0  0.26556  0.90350  0.16748  1.0000
  C   C1937     1.0  0.16306  0.88284  0.16660  1.0000
  C   C1938     1.0  0.14643  0.83941  0.14409  1.0000
  H   H1512     1.0  0.22367  0.78153  0.03852  1.0000
  H   H1513     1.0  0.29520  0.84523  0.08320  1.0000
  H   H1514     1.0  0.46296  0.82492  0.98219  1.0000
  S   S262      1.0  0.10416  0.79491  0.23714  1.0000
  H   H1515     1.0  0.15851  0.84838  0.22832  1.0000
  C   C1939     1.0  0.17841  0.82803  0.19461  1.0000
  H   H1516     1.0  0.07451  0.81300  0.28246  1.0000
  H   H1517     1.0  0.28208  0.87444  0.20125  1.0000
  C   C1940     1.0  0.08230  0.74798  0.25704  1.0000
  H   H1518     1.0  0.27447  0.94072  0.12654  1.0000
  C   C1941     1.0  0.13583  0.84289  0.16001  1.0000
  C   C1942     1.0  0.47173  0.92139  0.17927  1.0000
  H   H1519     1.0  0.11585  0.75585  0.26927  1.0000
  C   C1943     1.0  0.27074  0.88728  0.17857  1.0000
  H   H1520     1.0  0.25978  0.90431  0.15674  1.0000
  H   H1521     1.0  0.36743  0.80609  0.99680  1.0000
  C   C1944     1.0  0.44981  0.75562  0.00280  1.0000
  H   H1522     1.0  0.18167  0.81055  0.15865  1.0000
  H   H1523     1.0  0.44310  0.92504  0.14646  1.0000
  H   H1524     1.0  0.47021  0.88951  0.20608  1.0000
  H   H1525     1.0  0.29564  0.86455  0.14161  1.0000
  C   C1945     1.0  0.46393  0.90882  0.15937  1.0000
  H   H1526     1.0  0.19398  0.80204  0.19651  1.0000
  C   C1946     1.0  0.47454  0.90766  0.17081  1.0000
  C   C1947     1.0  0.16582  0.87034  0.15681  1.0000
  H   H1527     1.0  0.39530  0.92602  0.09625  1.0000
  H   H1528     1.0  0.07969  0.84054  0.27679  1.0000
  P   P63       1.0  0.04175  0.84092  0.28912  1.0000
  S   S263      1.0  0.18977  0.81523  0.11164  1.0000
  P   P64       1.0  0.10010  0.74604  0.30677  1.0000
  H   H1529     1.0  0.41781  0.77823  0.13925  1.0000
  C   C1948     1.0  0.39524  0.80987  0.01071  1.0000
  C   C1949     1.0  0.20599  0.78429  0.06330  1.0000
  H   H1530     1.0  0.20281  0.77270  0.20369  1.0000
  C   C1950     1.0  0.29692  0.82639  0.12566  1.0000
  C   C1951     1.0  0.03779  0.87618  0.27250  1.0000
  S   S264      1.0  0.21471  0.84016  0.08199  1.0000
  H   H1531     1.0  0.17891  0.82978  0.18087  1.0000
  C   C1952     1.0  0.26429  0.87537  0.11768  1.0000
  C   C1953     1.0  0.06699  0.79483  0.27303  1.0000
  C   C1954     1.0  0.24521  0.96656  0.04088  1.0000
  H   H1532     1.0  0.36063  0.81605  0.04535  1.0000
  H   H1533     1.0  0.45571  0.94725  0.18200  1.0000
  C   C1955     1.0  0.13337  0.87008  0.30590  1.0000
  H   H1534     1.0  0.47395  0.90677  0.25834  1.0000
  H   H1535     1.0  0.11778  0.88822  0.15643  1.0000
  C   C1956     1.0  0.01857  0.75091  0.29874  1.0000
  H   H1536     1.0  0.23849  0.87847  0.15778  1.0000
  C   C1957     1.0  0.24907  0.87793  0.13085  1.0000
  H   H1537     1.0  0.26339  0.90984  0.09757  1.0000
  C   C1958     1.0  0.25050  0.87603  0.14793  1.0000
  C   C1959     1.0  0.49258  0.89004  0.12160  1.0000
  H   H1538     1.0  0.40613  0.75850  0.16660  1.0000
  C   C1960     1.0  0.37778  0.83402  0.03218  1.0000
  H   H1539     1.0  0.04130  0.84356  0.20126  1.0000
  C   C1961     1.0  0.25555  0.78866  0.15196  1.0000
  C   C1962     1.0  0.24918  0.86007  0.18867  1.0000
  C   C1963     1.0  0.28253  0.86855  0.13882  1.0000
  H   H1540     1.0  0.15527  0.86979  0.15125  1.0000
  C   C1964     1.0  0.45812  0.93626  0.17602  1.0000
  H   H1541     1.0  0.29626  0.95963  0.02513  1.0000
  H   H1542     1.0  0.33332  0.84652  0.17081  1.0000
  C   C1965     1.0  0.28868  0.85053  0.17787  1.0000
  C   C1966     1.0  0.21743  0.85051  0.20917  1.0000
  C   C1967     1.0  0.26808  0.92099  0.09783  1.0000
  H   H1543     1.0  0.34758  0.98068  0.06439  1.0000
  H   H1544     1.0  0.43776  0.94932  0.16136  1.0000
  C   C1968     1.0  0.41401  0.76662  0.13872  1.0000
  C   C1969     1.0  0.39618  0.93515  0.08368  1.0000
  C   C1970     1.0  0.06558  0.83964  0.18191  1.0000
  C   C1971     1.0  0.39206  0.93128  0.06983  1.0000
  C   C1972     1.0  0.18694  0.81212  0.20369  1.0000
  C   C1973     1.0  0.09200  0.89715  0.14956  1.0000
  H   H1545     1.0  0.38816  0.91907  0.07159  1.0000
  C   C1974     1.0  0.39272  0.94330  0.05381  1.0000
  P   P65       1.0  0.26888  0.86713  0.17453  1.0000
  S   S265      1.0  0.38159  0.79388  0.16896  1.0000
  C   C1975     1.0  0.19607  0.85980  0.16056  1.0000
  H   H1546     1.0  0.31571  0.83689  0.10342  1.0000
  C   C1976     1.0  0.17534  0.82264  0.23050  1.0000
  C   C1977     1.0  0.27258  0.74650  0.11823  1.0000
  C   C1978     1.0  0.30250  0.83436  0.10816  1.0000
  C   C1979     1.0  0.27410  0.96273  0.04704  1.0000
  S   S266      1.0  0.21635  0.83280  0.12341  1.0000
  H   H1547     1.0  0.40379  0.95401  0.09247  1.0000
  S   S267      1.0  0.05863  0.81547  0.22597  1.0000
  H   H1548     1.0  0.26311  0.87662  0.10446  1.0000
  H   H1549     1.0  0.41957  0.77208  0.11059  1.0000
  H   H1550     1.0  0.30591  0.86903  0.16914  1.0000
  C   C1980     1.0  0.24004  0.86719  0.20336  1.0000
  S   S268      1.0  0.21213  0.80360  0.06312  1.0000
  C   C1981     1.0  0.22647  0.84330  0.19463  1.0000
  C   C1982     1.0  0.28102  0.87116  0.12160  1.0000
  H   H1551     1.0  0.22101  0.83431  0.19107  1.0000
  H   H1552     1.0  0.11096  0.85664  0.17296  1.0000
  H   H1553     1.0  0.30363  0.75596  0.03086  1.0000
  H   H1554     1.0  0.26469  0.78742  0.07509  1.0000
  C   C1983     1.0  0.28827  0.83263  0.18292  1.0000
  Fe  Fe136     1.0  0.08649  0.81768  0.22362  1.0000
  H   H1555     1.0  0.20890  0.85102  0.15791  1.0000
  C   C1984     1.0  0.18233  0.85895  0.15365  1.0000
  H   H1556     1.0  0.26369  0.91509  0.12578  1.0000
  S   S269      1.0  0.14341  0.77632  0.20568  1.0000
  C   C1985     1.0  0.46826  0.97462  0.06309  1.0000
  S   S270      1.0  0.10712  0.82215  0.19878  1.0000
  C   C1986     1.0  0.27968  0.82349  0.13176  1.0000
  C   C1987     1.0  0.17884  0.97924  0.20167  1.0000
  H   H1557     1.0  0.38927  0.94043  0.04315  1.0000
  H   H1558     1.0  0.27531  0.81767  0.14532  1.0000
  H   H1559     1.0  0.14065  0.83728  0.17194  1.0000
  H   H1560     1.0  0.39262  0.79250  0.19964  1.0000
  H   H1561     1.0  0.23610  0.88139  0.12786  1.0000
  C   C1988     1.0  0.30508  0.85540  0.17371  1.0000
  H   H1562     1.0  0.37063  0.97177  0.14277  1.0000
  S   S271      1.0  0.34634  0.76861  0.04047  1.0000
  C   C1989     1.0  0.27388  0.83545  0.10274  1.0000
  C   C1990     1.0  0.48432  0.82502  0.99316  1.0000
  Fe  Fe137     1.0  0.12536  0.80062  0.21346  1.0000
  S   S272      1.0  0.35744  0.79103  0.13565  1.0000
  H   H1563     1.0  0.15383  0.80718  0.18128  1.0000
  C   C1991     1.0  0.21545  0.77805  0.22131  1.0000
  H   H1564     1.0  0.23238  0.78039  0.23674  1.0000
  H   H1565     1.0  0.20503  0.84706  0.21690  1.0000
  C   C1992     1.0  0.11901  0.85393  0.16056  1.0000
  C   C1993     1.0  0.19422  0.78322  0.16503  1.0000
  C   C1994     1.0  0.25135  0.75093  0.06932  1.0000
  H   H1566     1.0  0.39698  0.84928  0.01672  1.0000
  H   H1567     1.0  0.35704  0.76250  0.98430  1.0000
  H   H1568     1.0  0.30425  0.93055  0.04761  1.0000
  H   H1569     1.0  0.36796  0.75232  0.13500  1.0000
  C   C1995     1.0  0.07535  0.86604  0.16392  1.0000
  C   C1996     1.0  0.29214  0.79690  0.08974  1.0000
  C   C1997     1.0  0.37555  0.77586  0.07739  1.0000
  C   C1998     1.0  0.25762  0.79353  0.03441  1.0000
  C   C1999     1.0  0.25241  0.81183  0.03062  1.0000
  H   H1570     1.0  0.09265  0.74535  0.10230  1.0000
  P   P66       1.0  0.47694  0.74381  0.14230  1.0000
  C   C2000     1.0  0.05461  0.76570  0.21266  1.0000
  Fe  Fe138     1.0  0.23528  0.82940  0.09812  1.0000
  C   C2001     1.0  0.24704  0.79940  0.16392  1.0000
  C   C2002     1.0  0.39778  0.95906  0.05153  1.0000
  H   H1571     1.0  0.35157  0.95216  0.05788  1.0000
  C   C2003     1.0  0.07118  0.76997  0.20929  1.0000
  C   C2004     1.0  0.23098  0.76376  0.19708  1.0000
  H   H1572     1.0  0.18412  0.77187  0.27148  1.0000
  C   C2005     1.0  0.34560  0.93286  0.04822  1.0000
  H   H1573     1.0  0.34370  0.75453  0.09379  1.0000
  P   P67       1.0  0.26937  0.76081  0.05531  1.0000
  C   C2006     1.0  0.11404  0.98113  0.27733  1.0000
  H   H1574     1.0  0.39804  0.96814  0.03901  1.0000
  C   C2007     1.0  0.47705  0.90864  0.21535  1.0000
  H   H1575     1.0  0.01947  0.82371  0.27981  1.0000
  H   H1576     1.0  0.05587  0.77855  0.26408  1.0000
  S   S273      1.0  0.21420  0.78502  0.14987  1.0000
  C   C2008     1.0  0.43041  0.75605  0.03130  1.0000
  C   C2009     1.0  0.10721  0.91526  0.15682  1.0000
  C   C2010     1.0  0.11033  0.96718  0.29126  1.0000
  C   C2011     1.0  0.19325  0.77722  0.07694  1.0000
  C   C2012     1.0  0.28452  0.78536  0.10423  1.0000
  H   H1577     1.0  0.45111  0.78006  0.19794  1.0000
  C   C2013     1.0  0.27289  0.79008  0.17664  1.0000
  C   C2014     1.0  0.11804  0.88050  0.30050  1.0000
  C   C2015     1.0  0.08421  0.88027  0.12608  1.0000
  H   H1578     1.0  0.14878  0.97718  0.17996  1.0000
  H   H1579     1.0  0.20334  0.75552  0.17446  1.0000
  H   H1580     1.0  0.10618  0.75688  0.24277  1.0000
  H   H1581     1.0  0.48817  0.85857  0.18654  1.0000
  H   H1582     1.0  0.07028  0.74659  0.06888  1.0000
  C   C2016     1.0  0.38494  0.96938  0.13899  1.0000
  C   C2017     1.0  0.21391  0.77604  0.04916  1.0000
  C   C2018     1.0  0.19116  0.78657  0.28560  1.0000
  H   H1583     1.0  0.14102  0.96930  0.22918  1.0000
  C   C2019     1.0  0.41257  0.97714  0.13763  1.0000
  H   H1584     1.0  0.24675  0.97332  0.13146  1.0000
  H   H1585     1.0  0.06844  0.86042  0.13512  1.0000
  H   H1586     1.0  0.06379  0.77678  0.07371  1.0000
  H   H1587     1.0  0.21595  0.75415  0.03807  1.0000
  S   S274      1.0  0.11277  0.97811  0.19792  1.0000
  C   C2020     1.0  0.24178  0.96842  0.17510  1.0000
  H   H1588     1.0  0.06656  0.91066  0.14311  1.0000
  C   C2021     1.0  0.14083  0.98055  0.17033  1.0000
  H   H1589     1.0  0.24909  0.78891  0.14186  1.0000
  H   H1590     1.0  0.08968  0.90609  0.08499  1.0000
  H   H1591     1.0  0.24177  0.78712  0.99600  1.0000
  H   H1592     1.0  0.23945  0.77209  0.08305  1.0000
  C   C2022     1.0  0.19690  0.75338  0.06254  1.0000
  C   C2023     1.0  0.09020  0.89308  0.11175  1.0000
  H   H1593     1.0  0.24766  0.75688  0.15667  1.0000
  H   H1594     1.0  0.21297  0.81986  0.26756  1.0000
  H   H1595     1.0  0.04710  0.86767  0.22598  1.0000
  C   C2024     1.0  0.08871  0.84315  0.29811  1.0000
  C   C2025     1.0  0.28209  0.96120  0.02977  1.0000
  H   H1596     1.0  0.16339  0.97932  0.14884  1.0000
  C   C2026     1.0  0.32365  0.95701  0.05871  1.0000
  H   H1597     1.0  0.22772  0.74221  0.15077  1.0000
  C   C2027     1.0  0.24038  0.74315  0.14182  1.0000
  C   C2028     1.0  0.29304  0.77758  0.11822  1.0000
  C   C2029     1.0  0.09371  0.74586  0.28726  1.0000
  H   H1598     1.0  0.43469  0.95292  0.07823  1.0000
  C   C2030     1.0  0.24751  0.76778  0.21578  1.0000
  C   C2031     1.0  0.38413  0.76045  0.98491  1.0000
  C   C2032     1.0  0.26158  0.79410  0.06253  1.0000
  C   C2033     1.0  0.27175  0.96165  0.01834  1.0000
  H   H1599     1.0  0.07759  0.74944  0.24538  1.0000
  H   H1600     1.0  0.25930  0.75547  0.19379  1.0000
  H   H1601     1.0  0.15655  0.79512  0.24817  1.0000
  C   C2034     1.0  0.49110  0.80549  0.07221  1.0000
  C   C2035     1.0  0.47335  0.77266  0.17759  1.0000
  C   C2036     1.0  0.07796  0.91175  0.14702  1.0000
  P   P68       1.0  0.48577  0.92023  0.19369  1.0000
  C   C2037     1.0  0.30867  0.78222  0.11795  1.0000
  C   C2038     1.0  0.47068  0.89363  0.21738  1.0000
  H   H1602     1.0  0.25764  0.78659  0.02489  1.0000
  H   H1603     1.0  0.09790  0.96883  0.30077  1.0000
  C   C2039     1.0  0.34132  0.94794  0.05488  1.0000
  C   C2040     1.0  0.46537  0.88352  0.23400  1.0000
  H   H1604     1.0  0.03549  0.87869  0.28539  1.0000
  C   C2041     1.0  0.06355  0.91511  0.29844  1.0000
  C   C2042     1.0  0.25658  0.81241  0.05859  1.0000
  C   C2043     1.0  0.46384  0.75358  0.11184  1.0000
  H   H1605     1.0  0.24528  0.96443  0.01519  1.0000
  H   H1606     1.0  0.14833  0.93687  0.28243  1.0000
  C   C2044     1.0  0.31627  0.79367  0.10342  1.0000
  H   H1607     1.0  0.23090  0.96910  0.04510  1.0000
  H   H1608     1.0  0.17555  0.75213  0.19642  1.0000
  H   H1609     1.0  0.24757  0.83542  0.03997  1.0000
  C   C2045     1.0  0.04903  0.73906  0.11184  1.0000
  C   C2046     1.0  0.09295  0.92956  0.15484  1.0000
  C   C2047     1.0  0.29819  0.76411  0.06633  1.0000
  H   H1610     1.0  0.15360  0.77076  0.28616  1.0000
  C   C2048     1.0  0.43778  0.76974  0.99529  1.0000
  C   C2049     1.0  0.25554  0.96589  0.05238  1.0000
  S   S275      1.0  0.49383  0.74185  0.07504  1.0000
  C   C2050     1.0  0.20953  0.76055  0.04886  1.0000
  H   H1611     1.0  0.46196  0.74989  0.99465  1.0000
  H   H1612     1.0  0.06928  0.73743  0.30119  1.0000
  H   H1613     1.0  0.45361  0.76117  0.08852  1.0000
  C   C2051     1.0  0.30809  0.80089  0.08925  1.0000
  C   C2052     1.0  0.14870  0.75882  0.29188  1.0000
  H   H1614     1.0  0.05933  0.73950  0.27472  1.0000
  C   C2053     1.0  0.19259  0.76682  0.17586  1.0000
  C   C2054     1.0  0.07835  0.92781  0.14989  1.0000
  C   C2055     1.0  0.23898  0.75927  0.08202  1.0000
  C   C2056     1.0  0.07311  0.87049  0.12435  1.0000
  H   H1615     1.0  0.25591  0.81976  0.06800  1.0000
  H   H1616     1.0  0.48579  0.81760  0.09417  1.0000
  H   H1617     1.0  0.13412  0.77778  0.25422  1.0000
  H   H1618     1.0  0.15971  0.74908  0.01324  1.0000
  H   H1619     1.0  0.28535  0.80338  0.07916  1.0000
  H   H1620     1.0  0.06391  0.76679  0.30672  1.0000
  C   C2057     1.0  0.19066  0.78221  0.27036  1.0000
  H   H1621     1.0  0.41242  0.82826  0.99787  1.0000
  H   H1622     1.0  0.31356  0.81037  0.07831  1.0000
  H   H1623     1.0  0.06719  0.93885  0.14861  1.0000
  C   C2058     1.0  0.31232  0.75764  0.07484  1.0000
  C   C2059     1.0  0.28125  0.77907  0.16488  1.0000
  C   C2060     1.0  0.36035  0.78524  0.99079  1.0000
  H   H1624     1.0  0.44856  0.79309  0.08680  1.0000
  H   H1625     1.0  0.02671  0.77326  0.22352  1.0000
  C   C2061     1.0  0.12238  0.98295  0.17557  1.0000
  H   H1626     1.0  0.48186  0.97307  0.06393  1.0000
  H   H1627     1.0  0.27802  0.96030  0.00507  1.0000
  H   H1628     1.0  0.35919  0.92552  0.04594  1.0000
  H   H1629     1.0  0.05934  0.86608  0.10731  1.0000
  H   H1630     1.0  0.33543  0.91473  0.04086  1.0000
  C   C2062     1.0  0.45382  0.78370  0.09739  1.0000
  C   C2063     1.0  0.24711  0.76168  0.20151  1.0000
  C   C2064     1.0  0.40332  0.73703  0.13725  1.0000
  H   H1631     1.0  0.11956  0.94038  0.30374  1.0000
  H   H1632     1.0  0.25984  0.74470  0.00510  1.0000
  H   H1633     1.0  0.46227  0.88050  0.26166  1.0000
  Fe  Fe139     1.0  0.35575  0.74081  0.03715  1.0000
  H   H1634     1.0  0.23055  0.75923  0.18594  1.0000
  C   C2065     1.0  0.40211  0.74068  0.15346  1.0000
  H   H1635     1.0  0.19908  0.80380  0.29639  1.0000
  C   C2066     1.0  0.02024  0.84197  0.30396  1.0000
  C   C2067     1.0  0.36627  0.76881  0.98644  1.0000
  C   C2068     1.0  0.26769  0.75375  0.13306  1.0000
  H   H1636     1.0  0.15786  0.74925  0.04407  1.0000
  C   C2069     1.0  0.44609  0.74871  0.02077  1.0000
  C   C2070     1.0  0.43266  0.97915  0.06180  1.0000
  C   C2071     1.0  0.29635  0.73666  0.16316  1.0000
  C   C2072     1.0  0.14246  0.96309  0.26679  1.0000
  H   H1637     1.0  0.10617  0.73429  0.07520  1.0000
  H   H1638     1.0  0.41057  0.74613  0.10917  1.0000
  H   H1639     1.0  0.00619  0.86326  0.28671  1.0000
  C   C2073     1.0  0.14913  0.98158  0.15269  1.0000
  S   S276      1.0  0.05320  0.74718  0.20621  1.0000
  C   C2074     1.0  0.14194  0.80923  0.30680  1.0000
  C   C2075     1.0  0.44571  0.76322  0.18467  1.0000
  H   H1640     1.0  0.42747  0.75051  0.04520  1.0000
  H   H1641     1.0  0.22093  0.94097  0.98369  1.0000
  Fe  Fe140     1.0  0.33340  0.98244  0.10105  1.0000
  H   H1642     1.0  0.16398  0.95993  0.20445  1.0000
  C   C2076     1.0  0.39401  0.98002  0.14258  1.0000
  C   C2077     1.0  0.23521  0.77182  0.98191  1.0000
  C   C2078     1.0  0.05822  0.84256  0.29957  1.0000
  C   C2079     1.0  0.07204  0.74237  0.27352  1.0000
  C   C2080     1.0  0.00890  0.73573  0.14981  1.0000
  C   C2081     1.0  0.16493  0.97054  0.20953  1.0000
  C   C2082     1.0  0.07772  0.74126  0.28855  1.0000
  H   H1643     1.0  0.15524  0.96140  0.25784  1.0000
  S   S277      1.0  0.03198  0.75821  0.30778  1.0000
  H   H1644     1.0  0.14296  0.74734  0.24942  1.0000
  H   H1645     1.0  0.22171  0.77257  0.98950  1.0000
  H   H1646     1.0  0.45528  0.73755  0.02653  1.0000
  H   H1647     1.0  0.14151  0.97733  0.06025  1.0000
  S   S278      1.0  0.19127  0.73378  0.06269  1.0000
  H   H1648     1.0  0.44261  0.73693  0.14370  1.0000
  S   S279      1.0  0.16429  0.82890  0.30698  1.0000
  C   C2083     1.0  0.22394  0.73509  0.09176  1.0000
  C   C2084     1.0  0.05902  0.97883  0.30211  1.0000
  C   C2085     1.0  0.49303  0.80640  0.08853  1.0000
  Fe  Fe141     1.0  0.49372  0.81608  0.12957  1.0000
  H   H1649     1.0  0.44071  0.80478  0.98214  1.0000
  H   H1650     1.0  0.10239  0.84202  0.29101  1.0000
  C   C2086     1.0  0.25021  0.73427  0.06841  1.0000
  C   C2087     1.0  0.05797  0.73572  0.09528  1.0000
  H   H1651     1.0  0.32798  0.73470  0.08852  1.0000
  C   C2088     1.0  0.29265  0.73489  0.07329  1.0000
  H   H1652     1.0  0.17464  0.73398  0.23982  1.0000
  H   H1653     1.0  0.01623  0.73532  0.15921  1.0000
  H   H1654     1.0  0.26131  0.98348  0.08546  1.0000
  H   H1655     1.0  0.49448  0.82138  0.98211  1.0000
  S   S280      1.0  0.14952  0.98312  0.11875  1.0000
  C   C2089     1.0  0.99677  0.73418  0.30157  1.0000
  P   P69       1.0  0.40919  0.98311  0.06247  1.0000
  H   H1656     1.0  0.04483  0.73385  0.24638  1.0000
  C   C2090     1.0  0.15709  0.95566  0.37293  1.0000
  C   C2091     1.0  0.06231  0.89210  0.45632  1.0000
  S   S281      1.0  0.03057  0.75433  0.51655  1.0000
  Fe  Fe142     1.0  0.08228  0.84246  0.49290  1.0000
  S   S282      1.0  0.10462  0.82528  0.50514  1.0000
  S   S283      1.0  0.06005  0.83253  0.49008  1.0000
  Fe  Fe143     1.0  0.09569  0.87528  0.48712  1.0000
  S   S284      1.0  0.11941  0.86087  0.49863  1.0000
  S   S285      1.0  0.09053  0.90409  0.47539  1.0000
  Fe  Fe144     1.0  0.12157  0.84103  0.48317  1.0000
  S   S286      1.0  0.14843  0.82809  0.46936  1.0000
  Fe  Fe145     1.0  0.10034  0.84661  0.51932  1.0000
  S   S287      1.0  0.09661  0.84155  0.54859  1.0000
  S   S288      1.0  0.09950  0.85668  0.46991  1.0000
  S   S289      1.0  0.07638  0.86259  0.50885  1.0000
  C   C2092     1.0  0.02087  0.76513  0.56705  1.0000
  S   S290      1.0  0.08099  0.96214  0.33825  1.0000
  S   S291      1.0  0.07453  0.95857  0.52292  1.0000
  Fe  Fe146     1.0  0.12001  0.84495  0.35976  1.0000
  S   S292      1.0  0.09867  0.86939  0.36131  1.0000
  Fe  Fe147     1.0  0.12591  0.80580  0.36414  1.0000
  Fe  Fe148     1.0  0.15112  0.82093  0.37400  1.0000
  S   S293      1.0  0.16966  0.81617  0.39188  1.0000
  C   C2093     1.0  0.13889  0.78367  0.43034  1.0000
  S   S294      1.0  0.12187  0.82261  0.38311  1.0000
  S   S295      1.0  0.12102  0.82827  0.34176  1.0000
  S   S296      1.0  0.09583  0.96333  0.37142  1.0000
  C   C2094     1.0  0.12412  0.88583  0.52777  1.0000
  H   H1657     1.0  0.18282  0.85048  0.36667  1.0000
  C   C2095     1.0  0.07572  0.77188  0.43075  1.0000
  H   H1658     1.0  0.00919  0.75250  0.44103  1.0000
  S   S297      1.0  0.14915  0.84449  0.35189  1.0000
  C   C2096     1.0  0.08041  0.81986  0.61306  1.0000
  H   H1659     1.0  0.00960  0.77170  0.54459  1.0000
  H   H1660     1.0  0.13131  0.89148  0.47501  1.0000
  Fe  Fe149     1.0  0.14004  0.84854  0.61788  1.0000
  S   S298      1.0  0.11291  0.86224  0.63012  1.0000
  S   S299      1.0  0.14992  0.84975  0.58883  1.0000
  H   H1661     1.0  0.06179  0.80905  0.32930  1.0000
  C   C2097     1.0  0.15228  0.77388  0.52024  1.0000
  C   C2098     1.0  0.00075  0.83205  0.45477  1.0000
  C   C2099     1.0  0.13797  0.89974  0.42471  1.0000
  H   H1662     1.0  0.12901  0.74022  0.40702  1.0000
  H   H1663     1.0  0.03261  0.87665  0.49206  1.0000
  C   C2100     1.0  0.08608  0.74086  0.40835  1.0000
  H   H1664     1.0  0.16416  0.96815  0.63295  1.0000
  S   S300      1.0  0.15399  0.85851  0.63219  1.0000
  C   C2101     1.0  0.08204  0.82015  0.41579  1.0000
  H   H1665     1.0  0.03709  0.73561  0.44250  1.0000
  C   C2102     1.0  0.99606  0.98034  0.37855  1.0000
  H   H1666     1.0  0.05954  0.97387  0.31561  1.0000
  C   C2103     1.0  0.09595  0.94951  0.63844  1.0000
  C   C2104     1.0  0.01157  0.96777  0.38120  1.0000
  H   H1667     1.0  0.00698  0.97290  0.34140  1.0000
  C   C2105     1.0  0.14620  0.92414  0.39034  1.0000
  S   S301      1.0  0.12388  0.97747  0.44559  1.0000
  S   S302      1.0  0.11421  0.78236  0.36961  1.0000
  H   H1668     1.0  0.09294  0.79707  0.33211  1.0000
  H   H1669     1.0  0.03197  0.75561  0.56181  1.0000
  H   H1670     1.0  0.15222  0.88315  0.54944  1.0000
  C   C2106     1.0  0.02934  0.83543  0.45599  1.0000
  H   H1671     1.0  0.04302  0.92763  0.33692  1.0000
  C   C2107     1.0  0.01561  0.82635  0.46219  1.0000
  H   H1672     1.0  0.99686  0.79674  0.38675  1.0000
  C   C2108     1.0  0.14313  0.93949  0.59286  1.0000
  H   H1673     1.0  0.17658  0.83910  0.47675  1.0000
  C   C2109     1.0  0.08403  0.84550  0.31522  1.0000
  S   S303      1.0  0.12943  0.93791  0.33576  1.0000
  H   H1674     1.0  0.05994  0.85163  0.57798  1.0000
  H   H1675     1.0  0.12433  0.76087  0.61000  1.0000
  C   C2110     1.0  0.20214  0.88194  0.52963  1.0000
  C   C2111     1.0  0.04136  0.84199  0.54994  1.0000
  H   H1676     1.0  0.10361  0.82241  0.44522  1.0000
  H   H1677     1.0  0.12722  0.78141  0.45779  1.0000
  C   C2112     1.0  0.03770  0.96052  0.49578  1.0000
  H   H1678     1.0  0.12030  0.78888  0.55341  1.0000
  H   H1679     1.0  0.06282  0.84879  0.33767  1.0000
  H   H1680     1.0  0.14349  0.90372  0.32763  1.0000
  H   H1681     1.0  0.00444  0.73806  0.32333  1.0000
  H   H1682     1.0  0.01182  0.74540  0.62126  1.0000
  H   H1683     1.0  0.03524  0.96381  0.52167  1.0000
  C   C2113     1.0  0.10716  0.88850  0.35337  1.0000
  C   C2114     1.0  0.12381  0.88851  0.34208  1.0000
  C   C2115     1.0  0.17926  0.93971  0.52813  1.0000
  C   C2116     1.0  0.12092  0.91892  0.34236  1.0000
  C   C2117     1.0  0.47055  0.93471  0.62854  1.0000
  H   H1684     1.0  0.07792  0.84670  0.45005  1.0000
  H   H1685     1.0  0.15912  0.91268  0.62790  1.0000
  H   H1686     1.0  0.12379  0.77089  0.40196  1.0000
  H   H1687     1.0  0.12099  0.97617  0.38689  1.0000
  C   C2118     1.0  0.11176  0.84416  0.55921  1.0000
  C   C2119     1.0  0.10573  0.84609  0.57654  1.0000
  C   C2120     1.0  0.11744  0.84731  0.58588  1.0000
  C   C2121     1.0  0.13521  0.84715  0.57775  1.0000
  C   C2122     1.0  0.14126  0.84550  0.56030  1.0000
  C   C2123     1.0  0.12959  0.84390  0.55104  1.0000
  H   H1688     1.0  0.09195  0.84645  0.58286  1.0000
  H   H1689     1.0  0.11267  0.84847  0.59934  1.0000
  H   H1690     1.0  0.15505  0.84521  0.55409  1.0000
  H   H1691     1.0  0.13440  0.84237  0.53770  1.0000
  C   C2124     1.0  0.15318  0.82593  0.44748  1.0000
  C   C2125     1.0  0.17050  0.81792  0.44045  1.0000
  C   C2126     1.0  0.17519  0.81537  0.42337  1.0000
  C   C2127     1.0  0.16262  0.82070  0.41300  1.0000
  C   C2128     1.0  0.14520  0.82897  0.41983  1.0000
  C   C2129     1.0  0.14049  0.83166  0.43710  1.0000
  H   H1692     1.0  0.18039  0.81350  0.44832  1.0000
  H   H1693     1.0  0.18863  0.80900  0.41822  1.0000
  H   H1694     1.0  0.13540  0.83322  0.41188  1.0000
  H   H1695     1.0  0.12712  0.83804  0.44235  1.0000
  C   C2130     1.0  0.08609  0.91852  0.48925  1.0000
  C   C2131     1.0  0.09128  0.93452  0.48227  1.0000
  C   C2132     1.0  0.08790  0.94654  0.49273  1.0000
  C   C2133     1.0  0.07869  0.94305  0.51011  1.0000
  C   C2134     1.0  0.07293  0.92724  0.51703  1.0000
  C   C2135     1.0  0.07697  0.91475  0.50670  1.0000
  H   H1696     1.0  0.09810  0.93760  0.46873  1.0000
  H   H1697     1.0  0.09243  0.95856  0.48715  1.0000
  H   H1698     1.0  0.06554  0.92458  0.53037  1.0000
  H   H1699     1.0  0.07278  0.90244  0.51209  1.0000
  C   C2136     1.0  0.99565  0.83642  0.50218  1.0000
  C   C2137     1.0  0.03412  0.97037  0.50840  1.0000
  H   H1700     1.0  0.07071  0.76999  0.45847  1.0000
  Fe  Fe150     1.0  0.03250  0.73766  0.37323  1.0000
  H   H1701     1.0  0.19722  0.74156  0.55691  1.0000
  C   C2138     1.0  0.07462  0.77417  0.49016  1.0000
  C   C2139     1.0  0.05725  0.78378  0.49035  1.0000
  C   C2140     1.0  0.05298  0.80173  0.48998  1.0000
  C   C2141     1.0  0.06614  0.81034  0.48898  1.0000
  C   C2142     1.0  0.08379  0.80105  0.48755  1.0000
  C   C2143     1.0  0.08802  0.78290  0.48838  1.0000
  H   H1702     1.0  0.04700  0.77749  0.49064  1.0000
  H   H1703     1.0  0.03939  0.80884  0.49064  1.0000
  H   H1704     1.0  0.09417  0.80776  0.48591  1.0000
  H   H1705     1.0  0.10159  0.77572  0.48767  1.0000
  C   C2144     1.0  0.09183  0.78801  0.36860  1.0000
  H   H1706     1.0  0.08336  0.81263  0.40624  1.0000
  C   C2145     1.0  0.03814  0.87017  0.46695  1.0000
  C   C2146     1.0  0.10030  0.76251  0.60240  1.0000
  H   H1707     1.0  0.09916  0.88137  0.59532  1.0000
  H   H1708     1.0  0.11270  0.74606  0.50175  1.0000
  C   C2147     1.0  0.14402  0.93993  0.47457  1.0000
  H   H1709     1.0  0.10663  0.80581  0.42292  1.0000
  H   H1710     1.0  0.03258  0.98125  0.34581  1.0000
  H   H1711     1.0  0.00260  0.78163  0.60350  1.0000
  H   H1712     1.0  0.12847  0.75979  0.51423  1.0000
  C   C2148     1.0  0.00151  0.82948  0.33097  1.0000
  C   C2149     1.0  0.10365  0.75814  0.57348  1.0000
  C   C2150     1.0  0.05217  0.88980  0.47338  1.0000
  H   H1713     1.0  0.02173  0.92057  0.40289  1.0000
  C   C2151     1.0  0.06433  0.80949  0.36597  1.0000
  C   C2152     1.0  0.00180  0.81376  0.52752  1.0000
  C   C2153     1.0  0.13849  0.88267  0.43497  1.0000
  H   H1714     1.0  0.05313  0.88108  0.55947  1.0000
  C   C2154     1.0  0.05593  0.79610  0.36710  1.0000
  H   H1715     1.0  0.12888  0.92170  0.45719  1.0000
  C   C2155     1.0  0.06977  0.78086  0.41541  1.0000
  H   H1716     1.0  0.16297  0.96613  0.60312  1.0000
  C   C2156     1.0  0.15735  0.91661  0.49603  1.0000
  S   S304      1.0  0.04660  0.95741  0.38245  1.0000
  S   S305      1.0  0.03404  0.80121  0.36436  1.0000
  C   C2157     1.0  0.15020  0.93899  0.55675  1.0000
  C   C2158     1.0  0.09327  0.89219  0.40007  1.0000
  H   H1717     1.0  0.09000  0.90358  0.61355  1.0000
  H   H1718     1.0  0.14283  0.80337  0.32024  1.0000
  H   H1719     1.0  0.03893  0.88586  0.53469  1.0000
  H   H1720     1.0  0.19498  0.89158  0.50469  1.0000
  H   H1721     1.0  0.09400  0.84635  0.32135  1.0000
  H   H1722     1.0  0.07179  0.90048  0.45218  1.0000
  C   C2159     1.0  0.14597  0.80556  0.51513  1.0000
  C   C2160     1.0  0.17139  0.86715  0.47349  1.0000
  C   C2161     1.0  0.06594  0.84403  0.43039  1.0000
  C   C2162     1.0  0.12567  0.91465  0.52937  1.0000
  H   H1723     1.0  0.16181  0.85802  0.52399  1.0000
  C   C2163     1.0  0.11382  0.77022  0.44547  1.0000
  H   H1724     1.0  0.13906  0.96460  0.54227  1.0000
  C   C2164     1.0  0.04845  0.87231  0.44983  1.0000
  H   H1725     1.0  0.08469  0.97499  0.54664  1.0000
  H   H1726     1.0  0.08423  0.90412  0.36717  1.0000
  C   C2165     1.0  0.13390  0.89880  0.52391  1.0000
  H   H1727     1.0  0.09903  0.87846  0.54008  1.0000
  H   H1728     1.0  0.17060  0.83337  0.50909  1.0000
  H   H1729     1.0  0.15603  0.96232  0.46419  1.0000
  H   H1730     1.0  0.05404  0.82888  0.60851  1.0000
  H   H1731     1.0  0.10769  0.93241  0.40388  1.0000
  H   H1732     1.0  0.02958  0.82001  0.32378  1.0000
  C   C2166     1.0  0.09418  0.73761  0.44863  1.0000
  H   H1733     1.0  0.23589  0.94208  0.63734  1.0000
  C   C2167     1.0  0.18715  0.73568  0.55573  1.0000
  H   H1734     1.0  0.01225  0.95412  0.38193  1.0000
  H   H1735     1.0  0.07257  0.74526  0.41509  1.0000
  C   C2168     1.0  0.07745  0.79375  0.53566  1.0000
  C   C2169     1.0  0.08204  0.96679  0.43418  1.0000
  C   C2170     1.0  0.11398  0.74103  0.51520  1.0000
  C   C2171     1.0  0.13356  0.80493  0.53099  1.0000
  H   H1736     1.0  0.17410  0.94868  0.39113  1.0000
  H   H1737     1.0  0.08899  0.74132  0.34487  1.0000
  C   C2172     1.0  0.15731  0.73859  0.55225  1.0000
  H   H1738     1.0  0.14378  0.75492  0.58199  1.0000
  Fe  Fe151     1.0  0.15044  0.82594  0.33551  1.0000
  H   H1739     1.0  0.19126  0.91486  0.54259  1.0000
  C   C2173     1.0  0.04982  0.91999  0.31222  1.0000
  C   C2174     1.0  0.01897  0.76788  0.58365  1.0000
  H   H1740     1.0  0.46646  0.92748  0.62156  1.0000
  H   H1741     1.0  0.04432  0.96101  0.59066  1.0000
  H   H1742     1.0  0.09391  0.96003  0.43913  1.0000
  C   C2175     1.0  0.02650  0.97298  0.38191  1.0000
  Fe  Fe152     1.0  0.99646  0.75940  0.36917  1.0000
  H   H1743     1.0  0.10919  0.76908  0.32397  1.0000
  C   C2176     1.0  0.21800  0.92968  0.63236  1.0000
  H   H1744     1.0  0.06842  0.73597  0.44661  1.0000
  P   P70       1.0  0.05457  0.81733  0.57731  1.0000
  S   S306      1.0  0.11722  0.97309  0.49511  1.0000
  C   C2177     1.0  0.09093  0.97315  0.55739  1.0000
  C   C2178     1.0  0.04012  0.87881  0.47871  1.0000
  H   H1745     1.0  0.14887  0.79023  0.43050  1.0000
  C   C2179     1.0  0.13671  0.87963  0.45299  1.0000
  C   C2180     1.0  0.05335  0.85346  0.56754  1.0000
  H   H1746     1.0  0.07671  0.93787  0.63449  1.0000
  C   C2181     1.0  0.48432  0.95777  0.62833  1.0000
  H   H1747     1.0  0.10436  0.76656  0.45746  1.0000
  H   H1748     1.0  0.11162  0.95191  0.54960  1.0000
  C   C2182     1.0  0.00742  0.82622  0.51275  1.0000
  C   C2183     1.0  0.04939  0.83917  0.56403  1.0000
  H   H1749     1.0  0.48141  0.95200  0.60518  1.0000
  C   C2184     1.0  0.09864  0.90407  0.54296  1.0000
  C   C2185     1.0  0.10054  0.90477  0.60195  1.0000
  H   H1750     1.0  0.04160  0.94634  0.49928  1.0000
  H   H1751     1.0  0.04010  0.96111  0.46884  1.0000
  C   C2186     1.0  0.06741  0.82201  0.60382  1.0000
  C   C2187     1.0  0.14464  0.95062  0.36742  1.0000
  H   H1752     1.0  0.07711  0.82514  0.62466  1.0000
  S   S307      1.0  0.04632  0.75546  0.35048  1.0000
  C   C2188     1.0  0.06535  0.77868  0.36960  1.0000
  C   C2189     1.0  0.01781  0.82127  0.59016  1.0000
  C   C2190     1.0  0.11307  0.76659  0.42986  1.0000
  H   H1753     1.0  0.14289  0.89805  0.36740  1.0000
  C   C2191     1.0  0.12457  0.74231  0.53985  1.0000
  H   H1754     1.0  0.13720  0.86643  0.46080  1.0000
  H   H1755     1.0  0.13979  0.87175  0.42920  1.0000
  H   H1756     1.0  0.12986  0.87374  0.52338  1.0000
  C   C2192     1.0  0.10658  0.88845  0.53728  1.0000
  P   P71       1.0  0.13585  0.75226  0.54963  1.0000
  H   H1757     1.0  0.12618  0.81696  0.53507  1.0000
  C   C2193     1.0  0.05266  0.88976  0.38338  1.0000
  C   C2194     1.0  0.08506  0.91679  0.31332  1.0000
  H   H1758     1.0  0.22340  0.93201  0.61841  1.0000
  H   H1759     1.0  0.16785  0.75997  0.55342  1.0000
  C   C2195     1.0  0.05715  0.78522  0.56942  1.0000
  C   C2196     1.0  0.05353  0.84550  0.31663  1.0000
  C   C2197     1.0  0.03693  0.96897  0.47850  1.0000
  C   C2198     1.0  0.01325  0.85616  0.43499  1.0000
  C   C2199     1.0  0.08083  0.90794  0.40139  1.0000
  H   H1760     1.0  0.03181  0.80750  0.43244  1.0000
  H   H1761     1.0  0.04001  0.84679  0.32406  1.0000
  H   H1762     1.0  0.08929  0.88096  0.39886  1.0000
  C   C2200     1.0  0.16443  0.94478  0.38688  1.0000
  C   C2201     1.0  0.06611  0.77648  0.44658  1.0000
  H   H1763     1.0  0.19056  0.94017  0.51720  1.0000
  C   C2202     1.0  0.15530  0.79005  0.50971  1.0000
  H   H1764     1.0  0.13368  0.94538  0.46724  1.0000
  C   C2203     1.0  0.06915  0.79720  0.32484  1.0000
  Fe  Fe153     1.0  0.06943  0.96875  0.36450  1.0000
  S   S308      1.0  0.01448  0.75920  0.38578  1.0000
  H   H1765     1.0  0.05884  0.76823  0.37124  1.0000
  C   C2204     1.0  0.08114  0.96620  0.41754  1.0000
  H   H1766     1.0  0.16190  0.87509  0.35199  1.0000
  H   H1767     1.0  0.09237  0.95915  0.40955  1.0000
  C   C2205     1.0  0.06098  0.78840  0.31799  1.0000
  C   C2206     1.0  0.10620  0.96008  0.55911  1.0000
  C   C2207     1.0  0.08923  0.93538  0.63821  1.0000
  C   C2208     1.0  0.06643  0.84683  0.32442  1.0000
  C   C2209     1.0  0.10379  0.92125  0.40253  1.0000
  H   H1768     1.0  0.12336  0.88397  0.56899  1.0000
  H   H1769     1.0  0.17891  0.95043  0.48205  1.0000
  C   C2210     1.0  0.02824  0.85042  0.44238  1.0000
  C   C2211     1.0  0.09284  0.76135  0.58938  1.0000
  C   C2212     1.0  0.06160  0.80171  0.56338  1.0000
  H   H1770     1.0  0.04923  0.80012  0.40410  1.0000
  H   H1771     1.0  0.07615  0.81823  0.54171  1.0000
  P   P72       1.0  0.13895  0.90403  0.40169  1.0000
  P   P73       1.0  0.09628  0.75563  0.42996  1.0000
  C   C2213     1.0  0.99955  0.84696  0.44119  1.0000
  H   H1772     1.0  0.11582  0.79855  0.58713  1.0000
  C   C2214     1.0  0.17504  0.86103  0.37313  1.0000
  H   H1773     1.0  0.04915  0.79474  0.61233  1.0000
  C   C2215     1.0  0.00427  0.80694  0.61913  1.0000
  S   S309      1.0  0.00673  0.77971  0.34676  1.0000
  H   H1774     1.0  0.14806  0.81811  0.50685  1.0000
  C   C2216     1.0  0.17964  0.92547  0.54241  1.0000
  H   H1775     1.0  0.01621  0.83002  0.57778  1.0000
  H   H1776     1.0  0.01126  0.80601  0.53538  1.0000
  H   H1777     1.0  0.17340  0.87283  0.56863  1.0000
  H   H1778     1.0  0.06089  0.88807  0.37069  1.0000
  S   S310      1.0  0.05269  0.75571  0.62501  1.0000
  C   C2217     1.0  0.09778  0.81112  0.60722  1.0000
  H   H1779     1.0  0.15968  0.76194  0.51592  1.0000
  C   C2218     1.0  0.07168  0.81533  0.58866  1.0000
  C   C2219     1.0  0.03477  0.81306  0.59343  1.0000
  C   C2220     1.0  0.19611  0.87665  0.54766  1.0000
  H   H1780     1.0  0.05703  0.82297  0.36422  1.0000
  C   C2221     1.0  0.16946  0.94276  0.48302  1.0000
  H   H1781     1.0  0.09076  0.76131  0.37109  1.0000
  Fe  Fe154     1.0  0.01539  0.76029  0.49571  1.0000
  C   C2222     1.0  0.15000  0.95332  0.54238  1.0000
  C   C2223     1.0  0.16223  0.93935  0.61689  1.0000
  H   H1782     1.0  0.01218  0.86752  0.42433  1.0000
  C   C2224     1.0  0.15660  0.94949  0.47295  1.0000
  H   H1783     1.0  0.16513  0.92057  0.40608  1.0000
  C   C2225     1.0  0.12286  0.92029  0.58240  1.0000
  H   H1784     1.0  0.01652  0.81480  0.47272  1.0000
  C   C2226     1.0  0.06057  0.88328  0.44467  1.0000
  H   H1785     1.0  0.10482  0.92852  0.60517  1.0000
  C   C2227     1.0  0.04399  0.87820  0.41463  1.0000
  H   H1786     1.0  0.13247  0.92725  0.42551  1.0000
  C   C2228     1.0  0.16596  0.88366  0.54378  1.0000
  C   C2229     1.0  0.47898  0.94851  0.61932  1.0000
  C   C2230     1.0  0.13362  0.89367  0.46096  1.0000
  C   C2231     1.0  0.17804  0.87747  0.55470  1.0000
  H   H1787     1.0  0.16585  0.91419  0.56787  1.0000
  S   S311      1.0  0.07937  0.75135  0.49211  1.0000
  S   S312      1.0  0.03859  0.75114  0.47526  1.0000
  H   H1788     1.0  0.16814  0.87382  0.41107  1.0000
  H   H1789     1.0  0.09682  0.93040  0.35864  1.0000
  C   C2232     1.0  0.04086  0.90574  0.38511  1.0000
  Fe  Fe155     1.0  0.05343  0.74352  0.49673  1.0000
  C   C2233     1.0  0.14429  0.92366  0.48612  1.0000
  C   C2234     1.0  0.08336  0.77470  0.36988  1.0000
  H   H1790     1.0  0.14263  0.91257  0.60682  1.0000
  C   C2235     1.0  0.13922  0.93492  0.37609  1.0000
  C   C2236     1.0  0.16629  0.88119  0.48188  1.0000
  H   H1791     1.0  0.12022  0.73445  0.45345  1.0000
  C   C2237     1.0  0.19005  0.88822  0.51869  1.0000
  P   P74       1.0  0.15653  0.89588  0.51139  1.0000
  H   H1792     1.0  0.07417  0.92490  0.33783  1.0000
  H   H1793     1.0  0.02895  0.86154  0.47145  1.0000
  H   H1794     1.0  0.11195  0.96552  0.59703  1.0000
  C   C2238     1.0  0.06275  0.77315  0.55860  1.0000
  H   H1795     1.0  0.07636  0.93461  0.40378  1.0000
  C   C2239     1.0  0.17179  0.88964  0.52574  1.0000
  H   H1796     1.0  0.02237  0.78969  0.63481  1.0000
  H   H1797     1.0  0.20545  0.87155  0.55617  1.0000
  H   H1798     1.0  0.09178  0.76557  0.61447  1.0000
  H   H1799     1.0  0.00019  0.81993  0.34327  1.0000
  H   H1800     1.0  0.08870  0.81575  0.36612  1.0000
  C   C2240     1.0  0.07126  0.92186  0.32697  1.0000
  H   H1801     1.0  0.16414  0.96476  0.51712  1.0000
  S   S313      1.0  0.14016  0.82274  0.63727  1.0000
  H   H1802     1.0  0.21622  0.88086  0.52412  1.0000
  H   H1803     1.0  0.08505  0.90608  0.55032  1.0000
  P   P75       1.0  0.13264  0.93917  0.57616  1.0000
  C   C2241     1.0  0.07903  0.83969  0.44017  1.0000
  H   H1804     1.0  0.05960  0.76031  0.56344  1.0000
  S   S314      1.0  0.01339  0.73633  0.35832  1.0000
  C   C2242     1.0  0.03625  0.80148  0.60956  1.0000
  C   C2243     1.0  0.06787  0.97655  0.44426  1.0000
  H   H1805     1.0  0.13277  0.92507  0.52626  1.0000
  C   C2244     1.0  0.13781  0.78074  0.41462  1.0000
  C   C2245     1.0  0.15646  0.92434  0.61779  1.0000
  C   C2246     1.0  0.11647  0.90572  0.40057  1.0000
  H   H1806     1.0  0.09748  0.75767  0.56348  1.0000
  C   C2247     1.0  0.15853  0.95442  0.60397  1.0000
  C   C2248     1.0  0.12961  0.75659  0.58386  1.0000
  C   C2249     1.0  0.13064  0.90375  0.33642  1.0000
  H   H1807     1.0  0.06714  0.90900  0.40133  1.0000
  C   C2250     1.0  0.12214  0.75562  0.57060  1.0000
  H   H1808     1.0  0.04725  0.79334  0.31700  1.0000
  H   H1809     1.0  0.13132  0.87687  0.33753  1.0000
  C   C2251     1.0  0.16935  0.84672  0.50149  1.0000
  C   C2252     1.0  0.11868  0.76000  0.59973  1.0000
  C   C2253     1.0  0.09360  0.82580  0.43758  1.0000
  H   H1810     1.0  0.04280  0.79253  0.45952  1.0000
  C   C2254     1.0  0.16312  0.87472  0.36497  1.0000
  C   C2255     1.0  0.16631  0.87410  0.39838  1.0000
  C   C2256     1.0  0.05389  0.79353  0.41600  1.0000
  H   H1811     1.0  0.08522  0.79707  0.52255  1.0000
  C   C2257     1.0  0.20440  0.92047  0.63962  1.0000
  H   H1812     1.0  0.18588  0.85008  0.39610  1.0000
  C   C2258     1.0  0.07051  0.77313  0.31223  1.0000
  H   H1813     1.0  0.12044  0.87871  0.39874  1.0000
  C   C2259     1.0  0.08922  0.80678  0.58276  1.0000
  C   C2260     1.0  0.09596  0.77457  0.32163  1.0000
  H   H1814     1.0  0.07673  0.76827  0.53314  1.0000
  C   C2261     1.0  0.03203  0.89428  0.41620  1.0000
  C   C2262     1.0  0.15361  0.88734  0.39062  1.0000
  C   C2263     1.0  0.12305  0.74871  0.52236  1.0000
  C   C2264     1.0  0.16520  0.92512  0.55670  1.0000
  H   H1815     1.0  0.16467  0.79066  0.49722  1.0000
  H   H1816     1.0  0.17407  0.86959  0.45937  1.0000
  C   C2265     1.0  0.04950  0.87024  0.55703  1.0000
  H   H1817     1.0  0.14663  0.96613  0.58178  1.0000
  C   C2266     1.0  0.10571  0.89226  0.59171  1.0000
  Fe  Fe156     1.0  0.08801  0.98024  0.50590  1.0000
  Fe  Fe157     1.0  0.10725  0.95974  0.34396  1.0000
  C   C2267     1.0  0.16235  0.87809  0.50019  1.0000
  H   H1818     1.0  0.06525  0.97473  0.39814  1.0000
  C   C2268     1.0  0.12797  0.90771  0.57218  1.0000
  C   C2269     1.0  0.11103  0.89104  0.39972  1.0000
  C   C2270     1.0  0.17282  0.84994  0.48329  1.0000
  C   C2271     1.0  0.15237  0.88775  0.37372  1.0000
  C   C2272     1.0  0.15920  0.92894  0.39541  1.0000
  H   H1819     1.0  0.03167  0.86076  0.52843  1.0000
  C   C2273     1.0  0.07265  0.77751  0.54163  1.0000
  C   C2274     1.0  0.14690  0.92439  0.60586  1.0000
  H   H1820     1.0  0.05694  0.83635  0.41150  1.0000
  H   H1821     1.0  0.00013  0.84584  0.49060  1.0000
  C   C2275     1.0  0.09723  0.90389  0.35871  1.0000
  H   H1822     1.0  0.04090  0.83071  0.46175  1.0000
  C   C2276     1.0  0.14911  0.95445  0.59192  1.0000
  H   H1823     1.0  0.13907  0.95891  0.35647  1.0000
  C   C2277     1.0  0.13955  0.77320  0.53606  1.0000
  C   C2278     1.0  0.16427  0.86072  0.50990  1.0000
  C   C2279     1.0  0.12675  0.77860  0.44572  1.0000
  H   H1824     1.0  0.16543  0.89437  0.47396  1.0000
  C   C2280     1.0  0.05366  0.92342  0.32645  1.0000
  H   H1825     1.0  0.14684  0.78527  0.40260  1.0000
  C   C2281     1.0  0.12480  0.77245  0.41433  1.0000
  H   H1826     1.0  0.13825  0.90885  0.56047  1.0000
  H   H1827     1.0  0.13404  0.91672  0.48757  1.0000
  H   H1828     1.0  0.05393  0.89633  0.48250  1.0000
  H   H1829     1.0  0.07865  0.76291  0.59161  1.0000
  C   C2282     1.0  0.10222  0.80477  0.59197  1.0000
  C   C2283     1.0  0.09519  0.81623  0.42523  1.0000
  H   H1830     1.0  0.16955  0.93924  0.62622  1.0000
  C   C2284     1.0  0.11426  0.95746  0.57310  1.0000
  C   C2285     1.0  0.00263  0.81823  0.60300  1.0000
  C   C2286     1.0  0.17672  0.86079  0.38977  1.0000
  H   H1831     1.0  0.16099  0.96801  0.36640  1.0000
  C   C2287     1.0  0.05443  0.87612  0.39807  1.0000
  H   H1832     1.0  0.17958  0.92165  0.50253  1.0000
  C   C2288     1.0  0.04413  0.79772  0.43192  1.0000
  C   C2289     1.0  0.07214  0.80575  0.54652  1.0000
  H   H1833     1.0  0.10159  0.92965  0.54259  1.0000
  C   C2290     1.0  0.03055  0.90800  0.40152  1.0000
  P   P76       1.0  0.04659  0.86132  0.43420  1.0000
  C   C2291     1.0  0.10426  0.91892  0.35360  1.0000
  H   H1834     1.0  0.19932  0.91556  0.63135  1.0000
  S   S315      1.0  0.15549  0.80209  0.35675  1.0000
  C   C2292     1.0  0.10807  0.91729  0.53874  1.0000
  C   C2293     1.0  0.16440  0.95356  0.52808  1.0000
  H   H1835     1.0  0.03835  0.83116  0.54683  1.0000
  H   H1836     1.0  0.04953  0.78155  0.58252  1.0000
  C   C2294     1.0  0.11945  0.89370  0.57688  1.0000
  C   C2295     1.0  0.10654  0.96778  0.58564  1.0000
  H   H1837     1.0  0.10788  0.80970  0.61428  1.0000
  H   H1838     1.0  0.02100  0.82787  0.50942  1.0000
  H   H1839     1.0  0.06434  0.86431  0.39629  1.0000
  H   H1840     1.0  0.13077  0.96399  0.41496  1.0000
  C   C2296     1.0  0.10905  0.91877  0.59727  1.0000
  C   C2297     1.0  0.16983  0.92637  0.49458  1.0000
  H   H1841     1.0  0.04000  0.91653  0.37383  1.0000
  C   C2298     1.0  0.03741  0.85880  0.53954  1.0000
  H   H1842     1.0  0.09296  0.80194  0.57091  1.0000
  H   H1843     1.0  0.06887  0.88480  0.43168  1.0000
  C   C2299     1.0  0.08226  0.80543  0.36689  1.0000
  H   H1844     1.0  0.09859  0.91589  0.31391  1.0000
  C   C2300     1.0  0.06599  0.97515  0.41104  1.0000
  H   H1845     1.0  0.04128  0.73922  0.41028  1.0000
  C   C2301     1.0  0.04104  0.97398  0.58253  1.0000
  C   C2302     1.0  0.12213  0.97686  0.41280  1.0000
  C   C2303     1.0  0.13020  0.78888  0.54135  1.0000
  H   H1846     1.0  0.12954  0.93123  0.37168  1.0000
  Fe  Fe158     1.0  0.02681  0.77716  0.36213  1.0000
  C   C2304     1.0  0.13232  0.91075  0.45092  1.0000
  H   H1847     1.0  0.06906  0.97722  0.45694  1.0000
  C   C2305     1.0  0.13437  0.91382  0.43289  1.0000
  C   C2306     1.0  0.04151  0.87293  0.54306  1.0000
  C   C2307     1.0  0.02108  0.79857  0.62237  1.0000
  H   H1848     1.0  0.07740  0.77805  0.40301  1.0000
  H   H1849     1.0  0.02412  0.89636  0.42886  1.0000
  C   C2308     1.0  0.06726  0.83376  0.41860  1.0000
  C   C2309     1.0  0.08607  0.92244  0.40271  1.0000
  Fe  Fe159     1.0  0.02518  0.75659  0.33685  1.0000
  C   C2310     1.0  0.05033  0.78930  0.44717  1.0000
  S   S316      1.0  0.08391  0.97124  0.63328  1.0000
  C   C2311     1.0  0.99760  0.74896  0.62502  1.0000
  C   C2312     1.0  0.08667  0.79035  0.32656  1.0000
  H   H1850     1.0  0.03615  0.92163  0.31160  1.0000
  C   C2313     1.0  0.01823  0.82959  0.31987  1.0000
  C   C2314     1.0  0.11772  0.73822  0.40369  1.0000
  C   C2315     1.0  0.17048  0.74608  0.55374  1.0000
  H   H1851     1.0  0.02867  0.76040  0.59139  1.0000
  C   C2316     1.0  0.10036  0.74487  0.41215  1.0000
  C   C2317     1.0  0.00430  0.77992  0.59043  1.0000
  C   C2318     1.0  0.99794  0.75276  0.43612  1.0000
  H   H1852     1.0  0.04371  0.96426  0.55967  1.0000
  S   S317      1.0  0.99811  0.78722  0.49019  1.0000
  H   H1853     1.0  0.00865  0.97537  0.46185  1.0000
  C   C2319     1.0  0.00815  0.77431  0.55727  1.0000
  C   C2320     1.0  0.04065  0.97578  0.56513  1.0000
  C   C2321     1.0  0.08813  0.76612  0.31385  1.0000
  H   H1854     1.0  0.49092  0.96842  0.62119  1.0000
  C   C2322     1.0  0.09126  0.98086  0.58385  1.0000
  H   H1855     1.0  0.18490  0.98092  0.64034  1.0000
  H   H1856     1.0  0.13287  0.85770  0.31517  1.0000
  S   S318      1.0  0.00674  0.73464  0.50478  1.0000
  H   H1857     1.0  0.00202  0.82646  0.38200  1.0000
  C   C2323     1.0  0.00632  0.74091  0.30928  1.0000
  S   S319      1.0  0.34993  0.85914  0.77241  1.0000
  S   S320      1.0  0.33305  0.88670  0.73313  1.0000
  Fe  Fe160     1.0  0.37006  0.87162  0.77553  1.0000
  S   S321      1.0  0.36215  0.88565  0.79755  1.0000
  Fe  Fe161     1.0  0.37301  0.83735  0.76583  1.0000
  S   S322      1.0  0.37221  0.80891  0.77609  1.0000
  S   S323      1.0  0.39810  0.95050  0.77688  1.0000
  S   S324      1.0  0.33210  0.80201  0.85480  1.0000
  H   H1858     1.0  0.21462  0.91353  0.70589  1.0000
  C   C2324     1.0  0.19267  0.79286  0.74103  1.0000
  Fe  Fe162     1.0  0.39633  0.86184  0.74333  1.0000
  H   H1859     1.0  0.43829  0.74479  0.87780  1.0000
  H   H1860     1.0  0.21249  0.77045  0.94240  1.0000
  H   H1861     1.0  0.47330  0.97511  0.78055  1.0000
  C   C2325     1.0  0.19177  0.95996  0.71464  1.0000
  H   H1862     1.0  0.34595  0.77649  0.83308  1.0000
  C   C2326     1.0  0.16248  0.85858  0.75424  1.0000
  Fe  Fe163     1.0  0.23009  0.85828  0.70527  1.0000
  S   S325      1.0  0.21683  0.85178  0.73360  1.0000
  Fe  Fe164     1.0  0.26642  0.85084  0.71302  1.0000
  S   S326      1.0  0.25638  0.84378  0.74187  1.0000
  S   S327      1.0  0.29582  0.84678  0.70272  1.0000
  Fe  Fe165     1.0  0.24009  0.82908  0.73561  1.0000
  S   S328      1.0  0.23957  0.80145  0.75070  1.0000
  Fe  Fe166     1.0  0.23416  0.86718  0.73760  1.0000
  S   S329      1.0  0.22276  0.88232  0.75901  1.0000
  S   S330      1.0  0.25191  0.83417  0.70689  1.0000
  S   S331      1.0  0.24558  0.87570  0.70907  1.0000
  C   C2327     1.0  0.21931  0.90516  0.75681  1.0000
  C   C2328     1.0  0.20710  0.91237  0.77025  1.0000
  C   C2329     1.0  0.20297  0.93044  0.76918  1.0000
  C   C2330     1.0  0.22809  0.91616  0.74251  1.0000
  H   H1863     1.0  0.20052  0.90396  0.78148  1.0000
  H   H1864     1.0  0.19313  0.93583  0.77952  1.0000
  H   H1865     1.0  0.23772  0.91058  0.73221  1.0000
  C   C2331     1.0  0.23489  0.78422  0.78497  1.0000
  C   C2332     1.0  0.23039  0.79997  0.77306  1.0000
  C   C2333     1.0  0.21792  0.81405  0.77899  1.0000
  H   H1866     1.0  0.24471  0.77340  0.78041  1.0000
  H   H1867     1.0  0.21447  0.82623  0.76985  1.0000
  H   H1868     1.0  0.21335  0.83148  0.69786  1.0000
  S   S332      1.0  0.47615  0.76994  0.92097  1.0000
  H   H1869     1.0  0.47226  0.96996  0.71748  1.0000
  H   H1870     1.0  0.23992  0.77238  0.92030  1.0000
  C   C2334     1.0  0.25245  0.73461  0.92324  1.0000
  H   H1871     1.0  0.30743  0.95978  0.74308  1.0000
  C   C2335     1.0  0.41124  0.75749  0.88717  1.0000
  H   H1872     1.0  0.47945  0.94272  0.70721  1.0000
  Fe  Fe167     1.0  0.46326  0.79110  0.90128  1.0000
  C   C2336     1.0  0.24841  0.83258  0.85410  1.0000
  S   S333      1.0  0.04614  0.73555  0.66649  1.0000
  P   P77       1.0  0.42392  0.79892  0.81431  1.0000
  C   C2337     1.0  0.13492  0.93630  0.73054  1.0000
  C   C2338     1.0  0.44508  0.85981  0.79239  1.0000
  C   C2339     1.0  0.43423  0.86466  0.80771  1.0000
  H   H1873     1.0  0.38621  0.77268  0.89813  1.0000
  C   C2340     1.0  0.19531  0.92843  0.72342  1.0000
  H   H1874     1.0  0.30761  0.85758  0.77509  1.0000
  C   C2341     1.0  0.44497  0.90821  0.79393  1.0000
  C   C2342     1.0  0.28556  0.93981  0.73109  1.0000
  C   C2343     1.0  0.32274  0.87409  0.72641  1.0000
  C   C2344     1.0  0.33261  0.85978  0.71906  1.0000
  C   C2345     1.0  0.32423  0.85114  0.71205  1.0000
  C   C2346     1.0  0.30592  0.85646  0.71294  1.0000
  C   C2347     1.0  0.29592  0.87010  0.72121  1.0000
  C   C2348     1.0  0.30442  0.87916  0.72754  1.0000
  H   H1875     1.0  0.34679  0.85587  0.71808  1.0000
  H   H1876     1.0  0.33198  0.84054  0.70570  1.0000
  C   C2349     1.0  0.28860  0.79120  0.72255  1.0000
  H   H1877     1.0  0.29687  0.89018  0.73322  1.0000
  C   C2350     1.0  0.36210  0.80643  0.79823  1.0000
  C   C2351     1.0  0.35786  0.82065  0.80620  1.0000
  C   C2352     1.0  0.34846  0.81927  0.82352  1.0000
  C   C2353     1.0  0.34408  0.80339  0.83322  1.0000
  H   H1878     1.0  0.36186  0.83274  0.79910  1.0000
  H   H1879     1.0  0.34502  0.83042  0.82948  1.0000
  C   C2354     1.0  0.37187  0.90389  0.79106  1.0000
  C   C2355     1.0  0.36154  0.92037  0.79348  1.0000
  C   C2356     1.0  0.36935  0.93500  0.78838  1.0000
  C   C2357     1.0  0.38763  0.93295  0.78159  1.0000
  C   C2358     1.0  0.39795  0.91641  0.77942  1.0000
  C   C2359     1.0  0.39005  0.90196  0.78377  1.0000
  H   H1880     1.0  0.34746  0.92189  0.79904  1.0000
  H   H1881     1.0  0.36132  0.94770  0.79020  1.0000
  H   H1882     1.0  0.41207  0.91480  0.77438  1.0000
  H   H1883     1.0  0.39808  0.88925  0.78188  1.0000
  Fe  Fe168     1.0  0.35689  0.87190  0.74422  1.0000
  C   C2360     1.0  0.20430  0.95819  0.69910  1.0000
  C   C2361     1.0  0.16326  0.80726  0.75409  1.0000
  H   H1884     1.0  0.38806  0.77561  0.93942  1.0000
  C   C2362     1.0  0.30931  0.81023  0.77198  1.0000
  C   C2363     1.0  0.34814  0.78626  0.75971  1.0000
  C   C2364     1.0  0.31846  0.81296  0.78301  1.0000
  H   H1885     1.0  0.29078  0.82310  0.75495  1.0000
  H   H1886     1.0  0.34544  0.80019  0.75912  1.0000
  S   S334      1.0  0.37817  0.84890  0.73713  1.0000
  H   H1887     1.0  0.28759  0.96012  0.77360  1.0000
  C   C2365     1.0  0.23323  0.82562  0.85801  1.0000
  C   C2366     1.0  0.11890  0.87298  0.71737  1.0000
  C   C2367     1.0  0.44355  0.92542  0.78430  1.0000
  H   H1888     1.0  0.47004  0.84464  0.78092  1.0000
  C   C2368     1.0  0.19745  0.80908  0.73419  1.0000
  H   H1889     1.0  0.01466  0.75748  0.69851  1.0000
  C   C2369     1.0  0.14993  0.84668  0.71570  1.0000
  C   C2370     1.0  0.15275  0.91848  0.69635  1.0000
  C   C2371     1.0  0.23683  0.84439  0.88031  1.0000
  Fe  Fe169     1.0  0.34076  0.73672  0.88094  1.0000
  H   H1890     1.0  0.18685  0.79350  0.78651  1.0000
  C   C2372     1.0  0.47154  0.92620  0.78942  1.0000
  H   H1891     1.0  0.16192  0.83654  0.71454  1.0000
  H   H1892     1.0  0.27552  0.91762  0.79080  1.0000
  H   H1893     1.0  0.20768  0.96995  0.69006  1.0000
  C   C2373     1.0  0.41760  0.77792  0.82167  1.0000
  C   C2374     1.0  0.19313  0.86149  0.66723  1.0000
  C   C2375     1.0  0.47474  0.79467  0.81885  1.0000
  C   C2376     1.0  0.20563  0.75400  0.92976  1.0000
  H   H1894     1.0  0.27508  0.90919  0.70843  1.0000
  C   C2377     1.0  0.27377  0.96224  0.77338  1.0000
  H   H1895     1.0  0.46012  0.83936  0.83626  1.0000
  S   S335      1.0  0.12639  0.89363  0.65573  1.0000
  C   C2378     1.0  0.18446  0.83366  0.67302  1.0000
  C   C2379     1.0  0.42620  0.78114  0.89510  1.0000
  C   C2380     1.0  0.18503  0.82446  0.73701  1.0000
  C   C2381     1.0  0.24992  0.95568  0.76528  1.0000
  H   H1896     1.0  0.39317  0.79688  0.84430  1.0000
  Fe  Fe170     1.0  0.15148  0.83417  0.65298  1.0000
  C   C2382     1.0  0.10618  0.82937  0.78141  1.0000
  H   H1897     1.0  0.43477  0.90128  0.79533  1.0000
  C   C2383     1.0  0.07458  0.78302  0.65530  1.0000
  H   H1898     1.0  0.25799  0.79628  0.86124  1.0000
  H   H1899     1.0  0.06244  0.77901  0.65659  1.0000
  H   H1900     1.0  0.30581  0.80895  0.70812  1.0000
  C   C2384     1.0  0.33267  0.91507  0.76578  1.0000
  H   H1901     1.0  0.28278  0.79257  0.71163  1.0000
  Fe  Fe171     1.0  0.20925  0.76791  0.84867  1.0000
  H   H1902     1.0  0.44415  0.82389  0.78929  1.0000
  P   P78       1.0  0.15179  0.84362  0.75026  1.0000
  C   C2385     1.0  0.39007  0.84585  0.82098  1.0000
  C   C2386     1.0  0.41066  0.85354  0.85496  1.0000
  C   C2387     1.0  0.41528  0.83523  0.85738  1.0000
  P   P79       1.0  0.42718  0.86622  0.84295  1.0000
  C   C2388     1.0  0.45881  0.86770  0.84999  1.0000
  C   C2389     1.0  0.20503  0.83697  0.68845  1.0000
  H   H1903     1.0  0.32544  0.83202  0.79223  1.0000
  H   H1904     1.0  0.12052  0.87107  0.74364  1.0000
  H   H1905     1.0  0.41628  0.80150  0.75533  1.0000
  C   C2390     1.0  0.18544  0.75402  0.81469  1.0000
  H   H1906     1.0  0.25839  0.74255  0.91117  1.0000
  C   C2391     1.0  0.17564  0.79192  0.75102  1.0000
  C   C2392     1.0  0.46655  0.84056  0.80877  1.0000
  S   S336      1.0  0.20373  0.96435  0.75400  1.0000
  C   C2393     1.0  0.41679  0.88902  0.83600  1.0000
  C   C2394     1.0  0.42460  0.90250  0.83603  1.0000
  C   C2395     1.0  0.41704  0.92005  0.82963  1.0000
  C   C2396     1.0  0.40151  0.92430  0.82342  1.0000
  C   C2397     1.0  0.39341  0.91101  0.82382  1.0000
  C   C2398     1.0  0.40111  0.89346  0.82982  1.0000
  C   C2399     1.0  0.12675  0.86618  0.73183  1.0000
  C   C2400     1.0  0.28092  0.78226  0.79460  1.0000
  H   H1907     1.0  0.42827  0.82884  0.85120  1.0000
  H   H1908     1.0  0.10689  0.88317  0.71791  1.0000
  H   H1909     1.0  0.19951  0.82295  0.80123  1.0000
  C   C2401     1.0  0.29000  0.77918  0.75293  1.0000
  C   C2402     1.0  0.26992  0.90973  0.69732  1.0000
  C   C2403     1.0  0.46738  0.93018  0.64678  1.0000
  C   C2404     1.0  0.28301  0.78038  0.73865  1.0000
  P   P80       1.0  0.31139  0.78825  0.76953  1.0000
  C   C2405     1.0  0.29943  0.77685  0.78975  1.0000
  H   H1910     1.0  0.43678  0.89956  0.84047  1.0000
  H   H1911     1.0  0.42346  0.93036  0.82905  1.0000
  H   H1912     1.0  0.39588  0.93784  0.81799  1.0000
  H   H1913     1.0  0.38136  0.91430  0.81905  1.0000
  H   H1914     1.0  0.39492  0.88337  0.82933  1.0000
  H   H1915     1.0  0.24051  0.79767  0.89536  1.0000
  H   H1916     1.0  0.27374  0.79274  0.78603  1.0000
  S   S337      1.0  0.37556  0.88616  0.74762  1.0000
  S   S338      1.0  0.39263  0.84859  0.77171  1.0000
  H   H1917     1.0  0.17781  0.94654  0.73895  1.0000
  C   C2406     1.0  0.20944  0.81215  0.79671  1.0000
  C   C2407     1.0  0.42286  0.80589  0.76273  1.0000
  H   H1918     1.0  0.45259  0.93151  0.74805  1.0000
  C   C2408     1.0  0.30573  0.93318  0.75689  1.0000
  C   C2409     1.0  0.37659  0.84078  0.83498  1.0000
  C   C2410     1.0  0.44300  0.79760  0.82265  1.0000
  C   C2411     1.0  0.17804  0.96989  0.66790  1.0000
  C   C2412     1.0  0.27487  0.91628  0.76492  1.0000
  C   C2413     1.0  0.39250  0.81046  0.83752  1.0000
  H   H1919     1.0  0.15011  0.80622  0.76176  1.0000
  C   C2414     1.0  0.29902  0.92867  0.72161  1.0000
  C   C2415     1.0  0.07397  0.79961  0.65790  1.0000
  C   C2416     1.0  0.44001  0.82050  0.95638  1.0000
  C   C2417     1.0  0.24748  0.92243  0.67991  1.0000
  H   H1920     1.0  0.36927  0.85738  0.88156  1.0000
  C   C2418     1.0  0.30533  0.78465  0.83324  1.0000
  S   S339      1.0  0.42411  0.86009  0.72710  1.0000
  C   C2419     1.0  0.18712  0.94512  0.72670  1.0000
  H   H1921     1.0  0.28537  0.77076  0.76523  1.0000
  H   H1922     1.0  0.23056  0.94307  0.73041  1.0000
  H   H1923     1.0  0.36731  0.81909  0.85407  1.0000
  H   H1924     1.0  0.31846  0.78122  0.82536  1.0000
  C   C2420     1.0  0.36997  0.75948  0.75592  1.0000
  H   H1925     1.0  0.18871  0.83699  0.73109  1.0000
  C   C2421     1.0  0.22009  0.82785  0.87305  1.0000
  C   C2422     1.0  0.27413  0.95357  0.72229  1.0000
  C   C2423     1.0  0.26754  0.79854  0.89378  1.0000
  H   H1926     1.0  0.23166  0.81820  0.84954  1.0000
  C   C2424     1.0  0.40561  0.81547  0.96258  1.0000
  H   H1927     1.0  0.13606  0.92254  0.73130  1.0000
  C   C2425     1.0  0.16788  0.82365  0.74708  1.0000
  H   H1928     1.0  0.42386  0.85475  0.88114  1.0000
  C   C2426     1.0  0.45793  0.88614  0.74415  1.0000
  C   C2427     1.0  0.13346  0.96621  0.71387  1.0000
  C   C2428     1.0  0.15915  0.88994  0.68936  1.0000
  H   H1929     1.0  0.35453  0.92780  0.75975  1.0000
  H   H1930     1.0  0.33998  0.90248  0.77165  1.0000
  H   H1931     1.0  0.25332  0.87617  0.78830  1.0000
  H   H1932     1.0  0.30935  0.90551  0.76942  1.0000
  C   C2429     1.0  0.14239  0.85303  0.73110  1.0000
  C   C2430     1.0  0.17691  0.97280  0.65055  1.0000
  H   H1933     1.0  0.26147  0.84780  0.86257  1.0000
  C   C2431     1.0  0.40036  0.77122  0.89490  1.0000
  Fe  Fe172     1.0  0.34066  0.77536  0.87091  1.0000
  H   H1934     1.0  0.39917  0.79376  0.90446  1.0000
  H   H1935     1.0  0.20857  0.82216  0.87610  1.0000
  H   H1936     1.0  0.36132  0.77937  0.80181  1.0000
  C   C2432     1.0  0.30151  0.80049  0.72059  1.0000
  S   S340      1.0  0.21492  0.86837  0.68372  1.0000
  C   C2433     1.0  0.27151  0.77418  0.81056  1.0000
  C   C2434     1.0  0.47251  0.93955  0.65596  1.0000
  C   C2435     1.0  0.45961  0.89996  0.80139  1.0000
  C   C2436     1.0  0.29844  0.82471  0.76317  1.0000
  H   H1937     1.0  0.17203  0.77930  0.75638  1.0000
  H   H1938     1.0  0.11860  0.83306  0.75415  1.0000
  H   H1939     1.0  0.45335  0.79644  0.86081  1.0000
  C   C2437     1.0  0.25323  0.73675  0.93949  1.0000
  C   C2438     1.0  0.33878  0.74799  0.94879  1.0000
  C   C2439     1.0  0.15410  0.95593  0.65964  1.0000
  Fe  Fe173     1.0  0.48552  0.79134  0.92582  1.0000
  H   H1940     1.0  0.29117  0.88917  0.68826  1.0000
  H   H1941     1.0  0.36144  0.74694  0.92721  1.0000
  P   P81       1.0  0.26648  0.75100  0.94029  1.0000
  S   S341      1.0  0.32075  0.76011  0.88853  1.0000
  C   C2440     1.0  0.43694  0.86967  0.73441  1.0000
  C   C2441     1.0  0.44123  0.82439  0.76392  1.0000
  C   C2442     1.0  0.06843  0.76653  0.71029  1.0000
  S   S342      1.0  0.43468  0.79695  0.89938  1.0000
  C   C2443     1.0  0.45905  0.97916  0.78472  1.0000
  C   C2444     1.0  0.45066  0.92244  0.68821  1.0000
  H   H1942     1.0  0.05801  0.74159  0.75395  1.0000
  H   H1943     1.0  0.23297  0.73933  0.80769  1.0000
  H   H1944     1.0  0.19694  0.73565  0.92115  1.0000
  H   H1945     1.0  0.12796  0.96437  0.75715  1.0000
  H   H1946     1.0  0.40167  0.74429  0.94595  1.0000
  H   H1947     1.0  0.28356  0.76919  0.95481  1.0000
  C   C2445     1.0  0.47756  0.95834  0.75289  1.0000
  H   H1948     1.0  0.12299  0.83448  0.81317  1.0000
  C   C2446     1.0  0.22255  0.74849  0.72389  1.0000
  H   H1949     1.0  0.06130  0.80841  0.66113  1.0000
  H   H1950     1.0  0.19923  0.91994  0.68228  1.0000
  C   C2447     1.0  0.46536  0.85886  0.87876  1.0000
  H   H1951     1.0  0.13347  0.92663  0.65246  1.0000
  C   C2448     1.0  0.12198  0.83437  0.80023  1.0000
  C   C2449     1.0  0.25196  0.77726  0.91478  1.0000
  H   H1952     1.0  0.05418  0.76880  0.71467  1.0000
  H   H1953     1.0  0.40530  0.83119  0.93656  1.0000
  C   C2450     1.0  0.43016  0.82788  0.94347  1.0000
  C   C2451     1.0  0.09304  0.93412  0.69115  1.0000
  C   C2452     1.0  0.47048  0.86513  0.86079  1.0000
  H   H1954     1.0  0.23299  0.76830  0.70286  1.0000
  H   H1955     1.0  0.47919  0.83136  0.80912  1.0000
  C   C2453     1.0  0.27615  0.95596  0.70424  1.0000
  C   C2454     1.0  0.18116  0.77211  0.80813  1.0000
  C   C2455     1.0  0.16458  0.88826  0.75284  1.0000
  C   C2456     1.0  0.15687  0.87683  0.74880  1.0000
  H   H1956     1.0  0.16042  0.90231  0.74844  1.0000
  H   H1957     1.0  0.14674  0.88233  0.74127  1.0000
  C   C2457     1.0  0.44185  0.86401  0.85708  1.0000
  H   H1958     1.0  0.19238  0.91687  0.73316  1.0000
  C   C2458     1.0  0.15579  0.73662  0.92324  1.0000
  H   H1959     1.0  0.40707  0.81089  0.87029  1.0000
  C   C2459     1.0  0.14189  0.85334  0.70139  1.0000
  C   C2460     1.0  0.44077  0.79728  0.84037  1.0000
  C   C2461     1.0  0.19829  0.73955  0.93227  1.0000
  H   H1960     1.0  0.44908  0.83418  0.75737  1.0000
  C   C2462     1.0  0.46591  0.87178  0.73633  1.0000
  H   H1961     1.0  0.46259  0.79450  0.79867  1.0000
  C   C2463     1.0  0.27221  0.89886  0.67186  1.0000
  C   C2464     1.0  0.42295  0.74723  0.83669  1.0000
  H   H1962     1.0  0.23226  0.75684  0.96548  1.0000
  C   C2465     1.0  0.09451  0.96431  0.67748  1.0000
  H   H1963     1.0  0.48834  0.93057  0.75387  1.0000
  S   S343      1.0  0.35436  0.77418  0.89165  1.0000
  H   H1964     1.0  0.17897  0.74838  0.82780  1.0000
  H   H1965     1.0  0.26778  0.96696  0.69736  1.0000
  H   H1966     1.0  0.16838  0.95790  0.69449  1.0000
  H   H1967     1.0  0.43342  0.90347  0.75292  1.0000
  H   H1968     1.0  0.23822  0.85164  0.88900  1.0000
  H   H1969     1.0  0.33802  0.95658  0.74580  1.0000
  C   C2466     1.0  0.17113  0.88341  0.70035  1.0000
  C   C2467     1.0  0.43346  0.81809  0.75426  1.0000
  P   P82       1.0  0.22808  0.93894  0.67521  1.0000
  H   H1970     1.0  0.34516  0.96719  0.85759  1.0000
  C   C2468     1.0  0.29904  0.77249  0.84788  1.0000
  H   H1971     1.0  0.44215  0.88182  0.69549  1.0000
  C   C2469     1.0  0.25260  0.98038  0.66180  1.0000
  C   C2470     1.0  0.18327  0.85122  0.66421  1.0000
  H   H1972     1.0  0.29771  0.73746  0.88173  1.0000
  C   C2471     1.0  0.27900  0.89846  0.68599  1.0000
  C   C2472     1.0  0.47222  0.79528  0.83632  1.0000
  C   C2473     1.0  0.43845  0.81845  0.78203  1.0000
  H   H1973     1.0  0.15824  0.76065  0.92775  1.0000
  C   C2474     1.0  0.47261  0.90912  0.79960  1.0000
  C   C2475     1.0  0.15473  0.95351  0.67717  1.0000
  H   H1974     1.0  0.27096  0.91186  0.74136  1.0000
  S   S344      1.0  0.48678  0.78752  0.87927  1.0000
  H   H1975     1.0  0.48343  0.79474  0.84150  1.0000
  H   H1976     1.0  0.24742  0.93042  0.70314  1.0000
  H   H1977     1.0  0.38898  0.85954  0.81439  1.0000
  C   C2476     1.0  0.28045  0.76033  0.82161  1.0000
  C   C2477     1.0  0.41946  0.92258  0.70113  1.0000
  H   H1978     1.0  0.27905  0.88975  0.66340  1.0000
  C   C2478     1.0  0.21120  0.94163  0.75480  1.0000
  C   C2479     1.0  0.31774  0.82998  0.78425  1.0000
  C   C2480     1.0  0.37785  0.82310  0.84331  1.0000
  P   P83       1.0  0.26568  0.82858  0.83511  1.0000
  C   C2481     1.0  0.27774  0.80601  0.83909  1.0000
  C   C2482     1.0  0.25531  0.83385  0.81677  1.0000
  C   C2483     1.0  0.26271  0.82511  0.80297  1.0000
  C   C2484     1.0  0.25438  0.82918  0.78896  1.0000
  C   C2485     1.0  0.23881  0.84211  0.78854  1.0000
  C   C2486     1.0  0.23157  0.85113  0.80203  1.0000
  C   C2487     1.0  0.23981  0.84710  0.81607  1.0000
  C   C2488     1.0  0.29486  0.80140  0.82899  1.0000
  H   H1979     1.0  0.44102  0.86548  0.78004  1.0000
  C   C2489     1.0  0.30758  0.84436  0.77476  1.0000
  C   C2490     1.0  0.22412  0.93448  0.74156  1.0000
  C   C2491     1.0  0.28205  0.84162  0.83051  1.0000
  C   C2492     1.0  0.29391  0.83753  0.84159  1.0000
  C   C2493     1.0  0.30735  0.84674  0.83768  1.0000
  C   C2494     1.0  0.30930  0.85992  0.82253  1.0000
  C   C2495     1.0  0.29764  0.86402  0.81138  1.0000
  C   C2496     1.0  0.28410  0.85487  0.81530  1.0000
  C   C2497     1.0  0.33439  0.77718  0.76421  1.0000
  H   H1980     1.0  0.27314  0.75416  0.83402  1.0000
  H   H1981     1.0  0.27488  0.81523  0.80297  1.0000
  H   H1982     1.0  0.25993  0.82238  0.77833  1.0000
  H   H1983     1.0  0.23238  0.84525  0.77769  1.0000
  H   H1984     1.0  0.21963  0.86137  0.80145  1.0000
  H   H1985     1.0  0.23405  0.85436  0.82633  1.0000
  H   H1986     1.0  0.30040  0.81093  0.81820  1.0000
  C   C2498     1.0  0.20746  0.75054  0.78785  1.0000
  H   H1987     1.0  0.29313  0.82687  0.85304  1.0000
  H   H1988     1.0  0.31660  0.84323  0.84618  1.0000
  H   H1989     1.0  0.32007  0.86671  0.81925  1.0000
  H   H1990     1.0  0.29939  0.87406  0.79949  1.0000
  H   H1991     1.0  0.27563  0.85782  0.80619  1.0000
  C   C2499     1.0  0.22642  0.78232  0.80271  1.0000
  C   C2500     1.0  0.44297  0.95822  0.75137  1.0000
  H   H1992     1.0  0.32268  0.75903  0.79811  1.0000
  H   H1993     1.0  0.11708  0.95678  0.64408  1.0000
  C   C2501     1.0  0.43973  0.85789  0.82365  1.0000
  C   C2502     1.0  0.15002  0.90742  0.68731  1.0000
  C   C2503     1.0  0.13208  0.94208  0.74592  1.0000
  H   H1994     1.0  0.41174  0.79055  0.78690  1.0000
  C   C2504     1.0  0.30837  0.76309  0.80110  1.0000
  S   S345      1.0  0.35982  0.75221  0.86151  1.0000
  Fe  Fe174     1.0  0.06916  0.74249  0.64512  1.0000
  C   C2505     1.0  0.10963  0.93117  0.69508  1.0000
  S   S346      1.0  0.12470  0.84564  0.66764  1.0000
  H   H1995     1.0  0.32671  0.80200  0.79018  1.0000
  C   C2506     1.0  0.17786  0.88160  0.76238  1.0000
  H   H1996     1.0  0.31835  0.80690  0.73309  1.0000
  C   C2507     1.0  0.40778  0.78306  0.89868  1.0000
  C   C2508     1.0  0.30855  0.79933  0.73481  1.0000
  C   C2509     1.0  0.34919  0.78883  0.82557  1.0000
  C   C2510     1.0  0.35788  0.79044  0.80793  1.0000
  C   C2511     1.0  0.30255  0.78899  0.75121  1.0000
  H   H1997     1.0  0.43204  0.93153  0.77875  1.0000
  H   H1998     1.0  0.28966  0.85284  0.75731  1.0000
  C   C2512     1.0  0.29764  0.84169  0.76454  1.0000
  C   C2513     1.0  0.20398  0.85446  0.67938  1.0000
  H   H1999     1.0  0.28176  0.87412  0.72209  1.0000
  H   H2000     1.0  0.42782  0.79757  0.84901  1.0000
  C   C2514     1.0  0.40132  0.77143  0.94190  1.0000
  H   H2001     1.0  0.37633  0.78447  0.75270  1.0000
  C   C2515     1.0  0.21349  0.79620  0.80854  1.0000
  H   H2002     1.0  0.41465  0.83753  0.80394  1.0000
  H   H2003     1.0  0.42181  0.87399  0.80685  1.0000
  C   C2516     1.0  0.36583  0.77738  0.75578  1.0000
  C   C2517     1.0  0.25004  0.84215  0.86528  1.0000
  C   C2518     1.0  0.33864  0.75930  0.76381  1.0000
  C   C2519     1.0  0.42895  0.88368  0.74273  1.0000
  H   H2004     1.0  0.14779  0.84838  0.68955  1.0000
  H   H2005     1.0  0.46328  0.87209  0.83609  1.0000
  H   H2006     1.0  0.25728  0.77871  0.81441  1.0000
  C   C2520     1.0  0.25881  0.76136  0.95873  1.0000
  C   C2521     1.0  0.42177  0.97617  0.73393  1.0000
  C   C2522     1.0  0.22517  0.97217  0.65289  1.0000
  H   H2007     1.0  0.27285  0.77334  0.74020  1.0000
  C   C2523     1.0  0.42975  0.75542  0.88372  1.0000
  H   H2008     1.0  0.48389  0.90269  0.80552  1.0000
  C   C2524     1.0  0.27113  0.79337  0.85323  1.0000
  H   H2009     1.0  0.36508  0.85055  0.83922  1.0000
  H   H2010     1.0  0.06810  0.79422  0.70084  1.0000
  S   S347      1.0  0.23203  0.76333  0.86130  1.0000
  C   C2525     1.0  0.40581  0.81537  0.82300  1.0000
  H   H2011     1.0  0.39218  0.78793  0.81431  1.0000
  C   C2526     1.0  0.45571  0.84528  0.82413  1.0000
  C   C2527     1.0  0.40462  0.83324  0.81501  1.0000
  P   P84       1.0  0.14065  0.94094  0.69431  1.0000
  C   C2528     1.0  0.42855  0.76308  0.82994  1.0000
  C   C2529     1.0  0.44389  0.94398  0.74435  1.0000
  C   C2530     1.0  0.40109  0.77654  0.82014  1.0000
  C   C2531     1.0  0.31517  0.91692  0.76467  1.0000
  C   C2532     1.0  0.46139  0.84801  0.79287  1.0000
  C   C2533     1.0  0.42023  0.79976  0.78083  1.0000
  C   C2534     1.0  0.40922  0.75360  0.94536  1.0000
  H   H2012     1.0  0.46163  0.85304  0.72454  1.0000
  C   C2535     1.0  0.28254  0.79085  0.90087  1.0000
  H   H2013     1.0  0.43596  0.83532  0.93100  1.0000
  H   H2014     1.0  0.18594  0.97285  0.71752  1.0000
  C   C2536     1.0  0.40654  0.74598  0.83501  1.0000
  H   H2015     1.0  0.25862  0.88581  0.75621  1.0000
  C   C2537     1.0  0.25418  0.92163  0.69435  1.0000
  C   C2538     1.0  0.28186  0.77679  0.85776  1.0000
  H   H2016     1.0  0.19390  0.85839  0.77521  1.0000
  C   C2539     1.0  0.24535  0.73706  0.79831  1.0000
  C   C2540     1.0  0.26968  0.90740  0.75532  1.0000
  C   C2541     1.0  0.42809  0.80591  0.79069  1.0000
  C   C2542     1.0  0.26812  0.95290  0.76455  1.0000
  P   P85       1.0  0.28347  0.93579  0.75435  1.0000
  H   H2017     1.0  0.16902  0.92080  0.71235  1.0000
  H   H2018     1.0  0.26787  0.80972  0.88290  1.0000
  C   C2543     1.0  0.43672  0.85793  0.87523  1.0000
  H   H2019     1.0  0.27026  0.73913  0.87197  1.0000
  S   S348      1.0  0.47066  0.89750  0.74935  1.0000
  C   C2544     1.0  0.45543  0.86381  0.73109  1.0000
  C   C2545     1.0  0.43951  0.89218  0.74717  1.0000
  H   H2020     1.0  0.18023  0.83802  0.76853  1.0000
  C   C2546     1.0  0.13424  0.83857  0.76896  1.0000
  C   C2547     1.0  0.40339  0.82503  0.86833  1.0000
  C   C2548     1.0  0.26421  0.89624  0.79161  1.0000
  C   C2549     1.0  0.31426  0.94731  0.74972  1.0000
  C   C2550     1.0  0.07626  0.78104  0.70269  1.0000
  H   H2021     1.0  0.29445  0.79608  0.89550  1.0000
  H   H2022     1.0  0.14666  0.84211  0.78782  1.0000
  C   C2551     1.0  0.20711  0.75909  0.94427  1.0000
  Fe  Fe175     1.0  0.19813  0.73384  0.87005  1.0000
  H   H2023     1.0  0.26402  0.96273  0.72914  1.0000
  C   C2552     1.0  0.11913  0.94461  0.68954  1.0000
  C   C2553     1.0  0.41291  0.82550  0.94662  1.0000
  C   C2554     1.0  0.22191  0.83719  0.88423  1.0000
  C   C2555     1.0  0.43972  0.89574  0.69501  1.0000
  C   C2556     1.0  0.18978  0.77941  0.79140  1.0000
  C   C2557     1.0  0.34091  0.92934  0.75901  1.0000
  H   H2024     1.0  0.48795  0.79367  0.81052  1.0000
  C   C2558     1.0  0.26242  0.89270  0.76374  1.0000
  H   H2025     1.0  0.30750  0.75975  0.85146  1.0000
  C   C2559     1.0  0.45198  0.96846  0.68030  1.0000
  H   H2026     1.0  0.21077  0.80974  0.72662  1.0000
  C   C2560     1.0  0.33168  0.94548  0.75104  1.0000
  C   C2561     1.0  0.09095  0.77155  0.65135  1.0000
  C   C2562     1.0  0.25949  0.88723  0.78188  1.0000
  H   H2027     1.0  0.19633  0.81303  0.69213  1.0000
  C   C2563     1.0  0.25653  0.91081  0.66879  1.0000
  C   C2564     1.0  0.21235  0.94147  0.69554  1.0000
  C   C2565     1.0  0.20805  0.92659  0.70802  1.0000
  C   C2566     1.0  0.26388  0.77910  0.97570  1.0000
  C   C2567     1.0  0.45721  0.93426  0.78124  1.0000
  C   C2568     1.0  0.42196  0.96165  0.72783  1.0000
  C   C2569     1.0  0.27200  0.91065  0.78315  1.0000
  C   C2570     1.0  0.22769  0.74651  0.75241  1.0000
  H   H2028     1.0  0.21004  0.77487  0.76886  1.0000
  H   H2029     1.0  0.46690  0.89712  0.68404  1.0000
  H   H2030     1.0  0.45151  0.74677  0.91712  1.0000
  C   C2571     1.0  0.02005  0.74963  0.70971  1.0000
  H   H2031     1.0  0.18399  0.89044  0.76534  1.0000
  C   C2572     1.0  0.09466  0.77864  0.69706  1.0000
  C   C2573     1.0  0.39409  0.86146  0.86406  1.0000
  C   C2574     1.0  0.17574  0.85202  0.76400  1.0000
  C   C2575     1.0  0.13009  0.95988  0.74525  1.0000
  C   C2576     1.0  0.26710  0.76919  0.92168  1.0000
  C   C2577     1.0  0.11469  0.91483  0.64808  1.0000
  H   H2032     1.0  0.46104  0.88638  0.80822  1.0000
  C   C2578     1.0  0.10602  0.79347  0.65207  1.0000
  H   H2033     1.0  0.32823  0.75220  0.76669  1.0000
  C   C2579     1.0  0.43723  0.76722  0.88770  1.0000
  H   H2034     1.0  0.15706  0.88151  0.68223  1.0000
  S   S349      1.0  0.18971  0.76158  0.87389  1.0000
  H   H2035     1.0  0.29388  0.77067  0.92041  1.0000
  H   H2036     1.0  0.44120  0.76374  0.83165  1.0000
  C   C2580     1.0  0.42664  0.74803  0.94789  1.0000
  H   H2037     1.0  0.26169  0.89217  0.80571  1.0000
  C   C2581     1.0  0.20296  0.76872  0.78134  1.0000
  H   H2038     1.0  0.18515  0.88970  0.71588  1.0000
  H   H2039     1.0  0.42031  0.97005  0.78418  1.0000
  C   C2582     1.0  0.17498  0.89464  0.70830  1.0000
  H   H2040     1.0  0.46088  0.91941  0.65360  1.0000
  C   C2583     1.0  0.25223  0.79176  0.90074  1.0000
  H   H2041     1.0  0.27694  0.76741  0.86914  1.0000
  C   C2584     1.0  0.18341  0.86350  0.76799  1.0000
  H   H2042     1.0  0.22957  0.77004  0.81183  1.0000
  C   C2585     1.0  0.28227  0.77630  0.91487  1.0000
  S   S350      1.0  0.20151  0.79370  0.83030  1.0000
  C   C2586     1.0  0.13620  0.94828  0.71434  1.0000
  H   H2043     1.0  0.21176  0.83880  0.89596  1.0000
  H   H2044     1.0  0.24553  0.77879  0.72171  1.0000
  S   S351      1.0  0.08856  0.82570  0.65970  1.0000
  C   C2587     1.0  0.46677  0.96960  0.70699  1.0000
  H   H2045     1.0  0.17785  0.86973  0.70232  1.0000
  H   H2046     1.0  0.17156  0.78052  0.81622  1.0000
  H   H2047     1.0  0.39051  0.87547  0.86321  1.0000
  H   H2048     1.0  0.14907  0.75169  0.95997  1.0000
  C   C2588     1.0  0.09754  0.74718  0.70670  1.0000
  H   H2049     1.0  0.09701  0.82629  0.80931  1.0000
  P   P86       1.0  0.45633  0.95561  0.76677  1.0000
  C   C2589     1.0  0.07900  0.74943  0.71194  1.0000
  H   H2050     1.0  0.09492  0.82564  0.77974  1.0000
  H   H2051     1.0  0.11809  0.97204  0.67705  1.0000
  H   H2052     1.0  0.10064  0.78992  0.69085  1.0000
  S   S352      1.0  0.00238  0.76260  0.65018  1.0000
  C   C2590     1.0  0.16586  0.91217  0.70625  1.0000
  H   H2053     1.0  0.45148  0.76572  0.88476  1.0000
  C   C2591     1.0  0.28809  0.73692  0.94021  1.0000
  S   S353      1.0  0.21593  0.74070  0.84376  1.0000
  C   C2592     1.0  0.19539  0.82657  0.68518  1.0000
  H   H2054     1.0  0.37759  0.82497  0.88531  1.0000
  C   C2593     1.0  0.46024  0.79550  0.81209  1.0000
  H   H2055     1.0  0.20243  0.75365  0.97246  1.0000
  C   C2594     1.0  0.24846  0.96387  0.66896  1.0000
  C   C2595     1.0  0.15465  0.74805  0.93370  1.0000
  C   C2596     1.0  0.00895  0.74223  0.72481  1.0000
  H   H2056     1.0  0.24221  0.76506  0.75301  1.0000
  C   C2597     1.0  0.12119  0.92896  0.64841  1.0000
  Fe  Fe176     1.0  0.37218  0.74970  0.88393  1.0000
  H   H2057     1.0  0.49377  0.93553  0.85890  1.0000
  C   C2598     1.0  0.42929  0.97626  0.78688  1.0000
  S   S354      1.0  0.21287  0.76600  0.90866  1.0000
  C   C2599     1.0  0.43565  0.76049  0.94804  1.0000
  H   H2058     1.0  0.43530  0.82300  0.74025  1.0000
  C   C2600     1.0  0.12643  0.86651  0.70218  1.0000
  S   S355      1.0  0.47085  0.81269  0.90782  1.0000
  H   H2059     1.0  0.41471  0.88841  0.74513  1.0000
  H   H2060     1.0  0.16002  0.74044  0.90914  1.0000
  C   C2601     1.0  0.45527  0.79636  0.84714  1.0000
  H   H2061     1.0  0.12038  0.87175  0.69095  1.0000
  Fe  Fe177     1.0  0.33636  0.75666  0.90853  1.0000
  C   C2602     1.0  0.38210  0.85122  0.87475  1.0000
  C   C2603     1.0  0.13060  0.97196  0.72925  1.0000
  H   H2062     1.0  0.35960  0.73663  0.75973  1.0000
  H   H2063     1.0  0.17483  0.85694  0.65499  1.0000
  H   H2064     1.0  0.24515  0.94832  0.75899  1.0000
  H   H2065     1.0  0.43333  0.93415  0.72846  1.0000
  H   H2066     1.0  0.44463  0.85017  0.89985  1.0000
  H   H2067     1.0  0.47444  0.90857  0.71189  1.0000
  C   C2604     1.0  0.42778  0.77836  0.94445  1.0000
  C   C2605     1.0  0.27004  0.76976  0.96237  1.0000
  C   C2606     1.0  0.43313  0.94555  0.73297  1.0000
  H   H2068     1.0  0.40496  0.79761  0.93737  1.0000
  C   C2607     1.0  0.30093  0.93104  0.70364  1.0000
  C   C2608     1.0  0.13540  0.83875  0.78576  1.0000
  C   C2609     1.0  0.42264  0.90473  0.70140  1.0000
  C   C2610     1.0  0.47081  0.95411  0.70105  1.0000
  C   C2611     1.0  0.20154  0.74958  0.96125  1.0000
  C   C2612     1.0  0.10737  0.82972  0.79806  1.0000
  H   H2069     1.0  0.38373  0.75267  0.75293  1.0000
  C   C2613     1.0  0.14944  0.74301  0.95185  1.0000
  H   H2070     1.0  0.20218  0.78100  0.73863  1.0000
  Fe  Fe178     1.0  0.21301  0.75491  0.88626  1.0000
  C   C2614     1.0  0.43337  0.93146  0.69441  1.0000
  C   C2615     1.0  0.11959  0.83371  0.76692  1.0000
  H   H2071     1.0  0.41195  0.89772  0.70687  1.0000
  S   S356      1.0  0.17233  0.82043  0.66916  1.0000
  H   H2072     1.0  0.13360  0.97573  0.70157  1.0000
  C   C2616     1.0  0.23877  0.76797  0.72719  1.0000
  C   C2617     1.0  0.44846  0.85536  0.88598  1.0000
  Fe  Fe179     1.0  0.38123  0.97709  0.76923  1.0000
  C   C2618     1.0  0.38677  0.83299  0.87692  1.0000
  C   C2619     1.0  0.43221  0.97448  0.74568  1.0000
  H   H2073     1.0  0.47472  0.85625  0.88698  1.0000
  H   H2074     1.0  0.30812  0.91814  0.72815  1.0000
  H   H2075     1.0  0.13135  0.93278  0.75837  1.0000
  H   H2076     1.0  0.07290  0.95287  0.67878  1.0000
  C   C2620     1.0  0.11126  0.96132  0.68106  1.0000
  H   H2077     1.0  0.48377  0.86739  0.85517  1.0000
  C   C2621     1.0  0.19853  0.74327  0.80461  1.0000
  H   H2078     1.0  0.47913  0.74129  0.89491  1.0000
  H   H2079     1.0  0.31142  0.92231  0.69654  1.0000
  C   C2622     1.0  0.45371  0.90446  0.68861  1.0000
  S   S357      1.0  0.32348  0.75971  0.93585  1.0000
  C   C2623     1.0  0.35638  0.75047  0.75981  1.0000
  P   P87       1.0  0.46888  0.93361  0.67949  1.0000
  H   H2080     1.0  0.48016  0.86717  0.73382  1.0000
  C   C2624     1.0  0.23465  0.95963  0.66462  1.0000
  C   C2625     1.0  0.23164  0.76212  0.71663  1.0000
  H   H2081     1.0  0.31901  0.74661  0.97254  1.0000
  C   C2626     1.0  0.49354  0.75962  0.96161  1.0000
  H   H2082     1.0  0.08870  0.97707  0.67049  1.0000
  C   C2627     1.0  0.29883  0.75462  0.81679  1.0000
  H   H2083     1.0  0.44603  0.96818  0.67002  1.0000
  C   C2628     1.0  0.24129  0.76266  0.96843  1.0000
  H   H2084     1.0  0.11505  0.91835  0.70223  1.0000
  H   H2085     1.0  0.40622  0.92944  0.70633  1.0000
  H   H2086     1.0  0.08613  0.92351  0.69469  1.0000
  H   H2087     1.0  0.22363  0.96988  0.77488  1.0000
  C   C2629     1.0  0.27727  0.73363  0.79105  1.0000
  H   H2088     1.0  0.48211  0.93284  0.78751  1.0000
  H   H2089     1.0  0.43516  0.78799  0.94360  1.0000
  C   C2630     1.0  0.41073  0.78381  0.94109  1.0000
  C   C2631     1.0  0.39571  0.76058  0.82656  1.0000
  C   C2632     1.0  0.08552  0.95067  0.68228  1.0000
  C   C2633     1.0  0.46350  0.95344  0.68757  1.0000
  C   C2634     1.0  0.33432  0.97859  0.85664  1.0000
  H   H2090     1.0  0.14086  0.91215  0.67868  1.0000
  C   C2635     1.0  0.22057  0.74068  0.74172  1.0000
  H   H2091     1.0  0.29114  0.94679  0.68094  1.0000
  C   C2636     1.0  0.23681  0.76019  0.74498  1.0000
  H   H2092     1.0  0.32053  0.97137  0.88335  1.0000
  H   H2093     1.0  0.43053  0.94525  0.69438  1.0000
  C   C2637     1.0  0.48048  0.97530  0.74492  1.0000
  H   H2094     1.0  0.19210  0.87504  0.66029  1.0000
  C   C2638     1.0  0.28949  0.94472  0.69493  1.0000
  H   H2095     1.0  0.38291  0.75969  0.82541  1.0000
  H   H2096     1.0  0.44893  0.75639  0.95044  1.0000
  H   H2097     1.0  0.41338  0.96289  0.71923  1.0000
  C   C2639     1.0  0.23765  0.96780  0.77439  1.0000
  C   C2640     1.0  0.26103  0.73644  0.80290  1.0000
  H   H2098     1.0  0.45336  0.82245  0.95391  1.0000
  C   C2641     1.0  0.44760  0.97175  0.78013  1.0000
  C   C2642     1.0  0.03828  0.74631  0.70875  1.0000
  H   H2099     1.0  0.18751  0.90955  0.66336  1.0000
  S   S358      1.0  0.09249  0.75035  0.64880  1.0000
  C   C2643     1.0  0.21814  0.93241  0.66127  1.0000
  H   H2100     1.0  0.39223  0.81376  0.96474  1.0000
  C   C2644     1.0  0.26147  0.97456  0.78222  1.0000
  H   H2101     1.0  0.18687  0.97582  0.67114  1.0000
  C   C2645     1.0  0.20450  0.92306  0.66842  1.0000
  C   C2646     1.0  0.08970  0.80492  0.65619  1.0000
  H   H2102     1.0  0.25580  0.95471  0.67819  1.0000
  C   C2647     1.0  0.49054  0.94377  0.74840  1.0000
  C   C2648     1.0  0.16724  0.96003  0.68115  1.0000
  C   C2649     1.0  0.33292  0.74300  0.96682  1.0000
  Fe  Fe180     1.0  0.03025  0.74619  0.64560  1.0000
  S   S359      1.0  0.40201  0.74290  0.88169  1.0000
  H   H2103     1.0  0.44793  0.98018  0.86446  1.0000
  H   H2104     1.0  0.04682  0.75165  0.69673  1.0000
  H   H2105     1.0  0.30572  0.74398  0.82555  1.0000
  C   C2650     1.0  0.32046  0.98099  0.87115  1.0000
  H   H2106     1.0  0.25158  0.91083  0.65775  1.0000
  H   H2107     1.0  0.14488  0.95063  0.65622  1.0000
  C   C2651     1.0  0.19768  0.91715  0.65764  1.0000
  C   C2652     1.0  0.35672  0.74293  0.94113  1.0000
  C   C2653     1.0  0.10663  0.77681  0.64979  1.0000
  S   S360      1.0  0.48396  0.79549  0.95228  1.0000
  C   C2654     1.0  0.48117  0.95327  0.64658  1.0000
  C   C2655     1.0  0.10530  0.76172  0.69914  1.0000
  H   H2108     1.0  0.11932  0.76794  0.64685  1.0000
  H   H2109     1.0  0.49262  0.75941  0.94878  1.0000
  C   C2656     1.0  0.43282  0.81037  0.97231  1.0000
  P   P88       1.0  0.22533  0.73669  0.77549  1.0000
  H   H2110     1.0  0.29366  0.73679  0.91276  1.0000
  H   H2111     1.0  0.11817  0.79729  0.65100  1.0000
  Fe  Fe181     1.0  0.11349  0.83671  0.65013  1.0000
  H   H2112     1.0  0.11956  0.75992  0.69458  1.0000
  H   H2113     1.0  0.26054  0.73826  0.81567  1.0000
  C   C2657     1.0  0.16510  0.96567  0.64641  1.0000
  C   C2658     1.0  0.48722  0.90836  0.70286  1.0000
  C   C2659     1.0  0.48860  0.91917  0.68606  1.0000
  Fe  Fe182     1.0  0.23711  0.73557  0.85887  1.0000
  H   H2114     1.0  0.21695  0.74404  0.71568  1.0000
  H   H2115     1.0  0.10597  0.73414  0.70806  1.0000
  C   C2660     1.0  0.19422  0.73515  0.96373  1.0000
  C   C2661     1.0  0.48973  0.77556  0.96672  1.0000
  C   C2662     1.0  0.24343  0.97742  0.78264  1.0000
  C   C2663     1.0  0.24572  0.73521  0.78164  1.0000
  H   H2116     1.0  0.48551  0.96047  0.65338  1.0000
  H   H2117     1.0  0.26599  0.98193  0.78870  1.0000
  C   C2664     1.0  0.46106  0.73451  0.91948  1.0000
  C   C2665     1.0  0.04551  0.73583  0.72302  1.0000
  H   H2118     1.0  0.43106  0.73604  0.84374  1.0000
  H   H2119     1.0  0.21430  0.96942  0.64953  1.0000
  Fe  Fe183     1.0  0.12687  0.86978  0.64642  1.0000
  H   H2120     1.0  0.40203  0.73382  0.84068  1.0000
  C   C2666     1.0  0.22497  0.93546  0.64314  1.0000
  H   H2121     1.0  0.49471  0.84908  0.91775  1.0000
  Fe  Fe184     1.0  0.49553  0.80747  0.88739  1.0000
  C   C2667     1.0  0.41564  0.80750  0.97541  1.0000
  C   C2668     1.0  0.11202  0.94617  0.64339  1.0000
  H   H2122     1.0  0.09346  0.90707  0.64292  1.0000
  C   C2669     1.0  0.09870  0.91798  0.64288  1.0000
  C   C2670     1.0  0.53464  0.02906  0.02252  1.0000
  S   S361      1.0  0.82871  0.20873  0.04685  1.0000
  C   C2671     1.0  0.94548  0.07063  0.19594  1.0000
  H   H2123     1.0  0.67470  0.13775  0.04762  1.0000
  H   H2124     1.0  0.73357  0.20336  0.17718  1.0000
  H   H2125     1.0  0.64778  0.05189  0.05140  1.0000
  C   C2672     1.0  0.78845  0.22353  0.22071  1.0000
  S   S362      1.0  0.68527  0.00979  0.23901  1.0000
  H   H2126     1.0  0.51940  0.04681  0.05692  1.0000
  C   C2673     1.0  0.97670  0.01300  0.21563  1.0000
  C   C2674     1.0  0.67971  0.13840  0.12378  1.0000
  C   C2675     1.0  0.55181  0.13180  0.00792  1.0000
  H   H2127     1.0  0.54671  0.99638  0.98564  1.0000
  S   S363      1.0  0.65295  0.98874  0.15520  1.0000
  C   C2676     1.0  0.57180  0.06927  0.00511  1.0000
  Fe  Fe185     1.0  0.98333  0.20401  0.11009  1.0000
  S   S364      1.0  0.98970  0.18374  0.09398  1.0000
  S   S365      1.0  0.96854  0.20151  0.13804  1.0000
  C   C2677     1.0  0.80130  0.01536  0.27561  1.0000
  C   C2678     1.0  0.95421  0.99967  0.21334  1.0000
  Fe  Fe186     1.0  0.97939  0.20643  0.07370  1.0000
  S   S366      1.0  0.96117  0.20719  0.05690  1.0000
  C   C2679     1.0  0.70499  0.17624  0.99484  1.0000
  C   C2680     1.0  0.52548  0.06951  0.03740  1.0000
  Fe  Fe187     1.0  0.82621  0.20033  0.11118  1.0000
  S   S367      1.0  0.84458  0.18476  0.09194  1.0000
  S   S368      1.0  0.80758  0.18984  0.13568  1.0000
  H   H2128     1.0  0.66538  0.14469  0.08664  1.0000
  C   C2681     1.0  0.67127  0.17848  0.99001  1.0000
  C   C2682     1.0  0.97978  0.17988  0.02502  1.0000
  Fe  Fe188     1.0  0.83645  0.20837  0.07151  1.0000
  H   H2129     1.0  0.57043  0.06225  0.01863  1.0000
  Fe  Fe189     1.0  0.86451  0.19888  0.09302  1.0000
  S   S369      1.0  0.89016  0.18380  0.10075  1.0000
  C   C2683     1.0  0.76332  0.12440  0.24951  1.0000
  S   S370      1.0  0.84655  0.21300  0.11356  1.0000
  Fe  Fe190     1.0  0.98252  0.11956  0.20975  1.0000
  S   S371      1.0  0.96493  0.10129  0.21256  1.0000
  H   H2130     1.0  0.52878  0.04865  0.14549  1.0000
  Fe  Fe191     1.0  0.97174  0.11996  0.24854  1.0000
  S   S372      1.0  0.95292  0.10218  0.25468  1.0000
  H   H2131     1.0  0.56154  0.01059  0.10992  1.0000
  Fe  Fe192     1.0  0.97475  0.08708  0.23697  1.0000
  Fe  Fe193     1.0  0.94487  0.11802  0.22976  1.0000
  S   S373      1.0  0.91700  0.12934  0.22614  1.0000
  H   H2132     1.0  0.55807  0.99237  0.14152  1.0000
  S   S374      1.0  0.96163  0.13737  0.22523  1.0000
  Fe  Fe194     1.0  0.81421  0.11547  0.22853  1.0000
  S   S375      1.0  0.82138  0.08888  0.24522  1.0000
  S   S376      1.0  0.80320  0.14045  0.23848  1.0000
  Fe  Fe195     1.0  0.82748  0.10154  0.19532  1.0000
  S   S377      1.0  0.83589  0.07368  0.20943  1.0000
  S   S378      1.0  0.83408  0.10919  0.16610  1.0000
  Fe  Fe196     1.0  0.80985  0.07938  0.22832  1.0000
  S   S379      1.0  0.79179  0.06038  0.24249  1.0000
  Fe  Fe197     1.0  0.84652  0.08573  0.22493  1.0000
  S   S380      1.0  0.87274  0.07368  0.23275  1.0000
  S   S381      1.0  0.80054  0.10653  0.21300  1.0000
  S   S382      1.0  0.84019  0.11309  0.20918  1.0000
  Fe  Fe198     1.0  0.69458  0.02330  0.21125  1.0000
  C   C2684     1.0  0.66582  0.08970  0.07374  1.0000
  S   S383      1.0  0.67615  0.03545  0.19244  1.0000
  Fe  Fe199     1.0  0.73214  0.01830  0.21627  1.0000
  S   S384      1.0  0.75902  0.02441  0.20262  1.0000
  C   C2685     1.0  0.78063  0.14425  0.12591  1.0000
  H   H2133     1.0  0.51184  0.12466  0.00823  1.0000
  Fe  Fe200     1.0  0.63105  0.00070  0.14003  1.0000
  S   S385      1.0  0.63483  0.01126  0.11094  1.0000
  C   C2686     1.0  0.70697  0.12322  0.99682  1.0000
  Fe  Fe201     1.0  0.61147  0.03268  0.11825  1.0000
  S   S386      1.0  0.60883  0.06164  0.10759  1.0000
  Fe  Fe202     1.0  0.61389  0.99699  0.11242  1.0000
  C   C2687     1.0  0.59340  0.00825  0.22850  1.0000
  C   C2688     1.0  0.79019  0.98676  0.24099  1.0000
  S   S387      1.0  0.61323  0.11275  0.99751  1.0000
  Fe  Fe203     1.0  0.62124  0.15131  0.01215  1.0000
  S   S388      1.0  0.64332  0.13329  0.99791  1.0000
  S   S389      1.0  0.62635  0.17433  0.01906  1.0000
  H   H2134     1.0  0.61190  0.01000  0.04159  1.0000
  H   H2135     1.0  0.98090  0.02430  0.21637  1.0000
  Fe  Fe204     1.0  0.63008  0.11184  0.01576  1.0000
  S   S390      1.0  0.64569  0.08609  0.02858  1.0000
  S   S391      1.0  0.60302  0.15578  0.99414  1.0000
  H   H2136     1.0  0.80734  0.00676  0.19959  1.0000
  C   C2689     1.0  0.98360  0.99228  0.26281  1.0000
  C   C2690     1.0  0.61171  0.04170  0.05236  1.0000
  H   H2137     1.0  0.94376  0.02482  0.18088  1.0000
  H   H2138     1.0  0.62570  0.05539  0.14609  1.0000
  C   C2691     1.0  0.65671  0.99220  0.22941  1.0000
  C   C2692     1.0  0.62060  0.06812  0.08617  1.0000
  C   C2693     1.0  0.61880  0.08602  0.07857  1.0000
  C   C2694     1.0  0.62673  0.09160  0.06099  1.0000
  C   C2695     1.0  0.63684  0.07934  0.05101  1.0000
  C   C2696     1.0  0.63975  0.06145  0.05898  1.0000
  C   C2697     1.0  0.63137  0.05581  0.07646  1.0000
  H   H2139     1.0  0.61092  0.09560  0.08618  1.0000
  H   H2140     1.0  0.62524  0.10538  0.05530  1.0000
  C   C2698     1.0  0.53092  0.13284  0.98502  1.0000
  H   H2141     1.0  0.79551  0.11824  0.13483  1.0000
  C   C2699     1.0  0.67006  0.02226  0.18205  1.0000
  C   C2700     1.0  0.67768  0.00434  0.18373  1.0000
  H   H2142     1.0  0.72152  0.05978  0.29066  1.0000
  C   C2701     1.0  0.65958  0.00190  0.16523  1.0000
  C   C2702     1.0  0.65209  0.01985  0.16346  1.0000
  C   C2703     1.0  0.65728  0.02997  0.17186  1.0000
  H   H2143     1.0  0.68774  0.99831  0.19133  1.0000
  S   S392      1.0  0.69913  0.21045  0.03516  1.0000
  H   H2144     1.0  0.64230  0.02590  0.15560  1.0000
  S   S393      1.0  0.59085  0.01930  0.11762  1.0000
  C   C2704     1.0  0.78311  0.05032  0.23111  1.0000
  C   C2705     1.0  0.78912  0.05141  0.21312  1.0000
  C   C2706     1.0  0.78177  0.04325  0.20454  1.0000
  C   C2707     1.0  0.76798  0.03455  0.21373  1.0000
  C   C2708     1.0  0.76189  0.03361  0.23168  1.0000
  C   C2709     1.0  0.76970  0.04114  0.24039  1.0000
  H   H2145     1.0  0.79953  0.05836  0.20586  1.0000
  H   H2146     1.0  0.78679  0.04366  0.19075  1.0000
  H   H2147     1.0  0.75129  0.02694  0.23891  1.0000
  H   H2148     1.0  0.76498  0.04026  0.25431  1.0000
  C   C2710     1.0  0.88495  0.08922  0.23114  1.0000
  C   C2711     1.0  0.90278  0.08362  0.23231  1.0000
  C   C2712     1.0  0.91279  0.09585  0.23084  1.0000
  C   C2713     1.0  0.90494  0.11373  0.22810  1.0000
  C   C2714     1.0  0.88710  0.11935  0.22709  1.0000
  C   C2715     1.0  0.87706  0.10710  0.22886  1.0000
  H   H2149     1.0  0.90879  0.06983  0.23458  1.0000
  H   H2150     1.0  0.92654  0.09145  0.23183  1.0000
  H   H2151     1.0  0.88100  0.13318  0.22512  1.0000
  H   H2152     1.0  0.86315  0.11150  0.22890  1.0000
  C   C2716     1.0  0.96897  0.08039  0.17237  1.0000
  C   C2717     1.0  0.67769  0.08268  0.05999  1.0000
  H   H2153     1.0  0.60558  0.08370  0.13725  1.0000
  C   C2718     1.0  0.66963  0.10254  0.07976  1.0000
  C   C2719     1.0  0.76372  0.19695  0.09731  1.0000
  C   C2720     1.0  0.81559  0.16774  0.14490  1.0000
  C   C2721     1.0  0.80563  0.15931  0.16034  1.0000
  C   C2722     1.0  0.81151  0.14141  0.16728  1.0000
  C   C2723     1.0  0.82709  0.13182  0.15849  1.0000
  C   C2724     1.0  0.83722  0.14034  0.14332  1.0000
  C   C2725     1.0  0.83167  0.15833  0.13677  1.0000
  H   H2154     1.0  0.79341  0.16663  0.16692  1.0000
  H   H2155     1.0  0.80383  0.13499  0.17923  1.0000
  H   H2156     1.0  0.84939  0.13303  0.13661  1.0000
  H   H2157     1.0  0.83976  0.16480  0.12529  1.0000
  C   C2726     1.0  0.97759  0.18145  0.15062  1.0000
  C   C2727     1.0  0.96953  0.17666  0.16824  1.0000
  C   C2728     1.0  0.97629  0.16049  0.17842  1.0000
  C   C2729     1.0  0.58610  0.01660  0.29348  1.0000
  C   C2730     1.0  0.79629  0.22383  0.23388  1.0000
  H   H2158     1.0  0.94083  0.00047  0.21240  1.0000
  H   H2159     1.0  0.95802  0.18543  0.17401  1.0000
  H   H2160     1.0  0.96982  0.15682  0.19189  1.0000
  C   C2731     1.0  0.85179  0.14798  0.29795  1.0000
  H   H2161     1.0  0.99066  0.06000  0.16381  1.0000
  C   C2732     1.0  0.94134  0.20090  0.06903  1.0000
  C   C2733     1.0  0.93970  0.19257  0.08666  1.0000
  C   C2734     1.0  0.92400  0.18714  0.09612  1.0000
  C   C2735     1.0  0.90968  0.19050  0.08821  1.0000
  C   C2736     1.0  0.91119  0.19906  0.07062  1.0000
  C   C2737     1.0  0.92710  0.20414  0.06098  1.0000
  H   H2162     1.0  0.95062  0.19007  0.09294  1.0000
  H   H2163     1.0  0.92285  0.18046  0.10968  1.0000
  H   H2164     1.0  0.90019  0.20157  0.06442  1.0000
  P   P89       1.0  0.55498  0.99058  0.06060  1.0000
  H   H2165     1.0  0.70972  0.13323  0.02936  1.0000
  H   H2166     1.0  0.88063  0.21112  0.12773  1.0000
  H   H2167     1.0  0.51729  0.02823  0.00702  1.0000
  C   C2738     1.0  0.76535  0.04909  0.30641  1.0000
  C   C2739     1.0  0.52492  0.00302  0.02379  1.0000
  C   C2740     1.0  0.97437  0.10707  0.29672  1.0000
  C   C2741     1.0  0.97350  0.03753  0.30632  1.0000
  C   C2742     1.0  0.55940  0.05967  0.10843  1.0000
  H   H2168     1.0  0.57644  0.99844  0.98726  1.0000
  H   H2169     1.0  0.96645  0.10197  0.29138  1.0000
  H   H2170     1.0  0.75850  0.13316  0.04111  1.0000
  H   H2171     1.0  0.68182  0.08542  0.00829  1.0000
  C   C2743     1.0  0.78823  0.15428  0.28512  1.0000
  C   C2744     1.0  0.79181  0.15462  0.26725  1.0000
  C   C2745     1.0  0.80060  0.13942  0.26095  1.0000
  C   C2746     1.0  0.80633  0.12392  0.27269  1.0000
  C   C2747     1.0  0.80290  0.12364  0.29068  1.0000
  C   C2748     1.0  0.62654  0.09604  0.12018  1.0000
  H   H2172     1.0  0.78735  0.16663  0.25832  1.0000
  H   H2173     1.0  0.81317  0.11212  0.26804  1.0000
  C   C2749     1.0  0.56940  0.06182  0.99261  1.0000
  C   C2750     1.0  0.97799  0.06297  0.17274  1.0000
  C   C2751     1.0  0.93574  0.22753  0.17659  1.0000
  C   C2752     1.0  0.85853  0.15150  0.26121  1.0000
  C   C2753     1.0  0.52645  0.05734  0.05315  1.0000
  H   H2174     1.0  0.73284  0.00579  0.28127  1.0000
  H   H2175     1.0  0.94553  0.09769  0.18357  1.0000
  H   H2176     1.0  0.74602  0.13916  0.08628  1.0000
  C   C2754     1.0  0.95264  0.08421  0.18388  1.0000
  H   H2177     1.0  0.74757  0.19281  0.08204  1.0000
  C   C2755     1.0  0.70109  0.16170  0.99179  1.0000
  H   H2178     1.0  0.82730  0.01202  0.21507  1.0000
  H   H2179     1.0  0.77136  0.14209  0.00957  1.0000
  C   C2756     1.0  0.54399  0.11100  0.06837  1.0000
  H   H2180     1.0  0.60574  0.99551  0.30428  1.0000
  H   H2181     1.0  0.72741  0.12926  0.05089  1.0000
  H   H2182     1.0  0.61736  0.10811  0.11624  1.0000
  C   C2757     1.0  0.53441  0.08318  0.03248  1.0000
  H   H2183     1.0  0.68550  0.14490  0.13002  1.0000
  C   C2758     1.0  0.88557  0.22984  0.17247  1.0000
  H   H2184     1.0  0.65361  0.08513  0.07961  1.0000
  C   C2759     1.0  0.69363  0.08819  0.05236  1.0000
  C   C2760     1.0  0.69763  0.10083  0.05839  1.0000
  C   C2761     1.0  0.68567  0.10806  0.07199  1.0000
  H   H2185     1.0  0.88846  0.04030  0.17951  1.0000
  H   H2186     1.0  0.70997  0.10512  0.05243  1.0000
  H   H2187     1.0  0.68895  0.11807  0.07616  1.0000
  H   H2188     1.0  0.73780  0.02894  0.29783  1.0000
  H   H2189     1.0  0.79766  0.10851  0.17546  1.0000
  C   C2762     1.0  0.96393  0.12787  0.16535  1.0000
  C   C2763     1.0  0.97333  0.13088  0.14802  1.0000
  C   C2764     1.0  0.96484  0.14208  0.13498  1.0000
  C   C2765     1.0  0.94702  0.15050  0.13933  1.0000
  C   C2766     1.0  0.93773  0.14814  0.15684  1.0000
  C   C2767     1.0  0.94613  0.13629  0.16978  1.0000
  P   P90       1.0  0.91503  0.15976  0.16258  1.0000
  C   C2768     1.0  0.91064  0.16474  0.18375  1.0000
  C   C2769     1.0  0.91169  0.18113  0.14810  1.0000
  C   C2770     1.0  0.89536  0.18894  0.14326  1.0000
  H   H2190     1.0  0.89504  0.20191  0.17828  1.0000
  C   C2771     1.0  0.61457  0.98534  0.03515  1.0000
  C   C2772     1.0  0.54598  0.99884  0.14909  1.0000
  C   C2773     1.0  0.92526  0.19055  0.14230  1.0000
  C   C2774     1.0  0.89367  0.16574  0.19470  1.0000
  C   C2775     1.0  0.89028  0.17049  0.21070  1.0000
  C   C2776     1.0  0.90366  0.17456  0.21574  1.0000
  C   C2777     1.0  0.92054  0.17373  0.20482  1.0000
  C   C2778     1.0  0.92395  0.16897  0.18884  1.0000
  C   C2779     1.0  0.90123  0.14584  0.16206  1.0000
  C   C2780     1.0  0.89634  0.13300  0.17693  1.0000
  C   C2781     1.0  0.88552  0.12228  0.17666  1.0000
  C   C2782     1.0  0.87985  0.12401  0.16144  1.0000
  C   C2783     1.0  0.88530  0.13624  0.14638  1.0000
  C   C2784     1.0  0.89611  0.14700  0.14661  1.0000
  H   H2191     1.0  0.97065  0.11934  0.17543  1.0000
  C   C2785     1.0  0.63643  0.12852  0.08926  1.0000
  H   H2192     1.0  0.97214  0.14446  0.12153  1.0000
  H   H2193     1.0  0.94066  0.15911  0.12904  1.0000
  H   H2194     1.0  0.93911  0.13384  0.18334  1.0000
  H   H2195     1.0  0.88457  0.18216  0.14784  1.0000
  H   H2196     1.0  0.92837  0.21059  0.04733  1.0000
  C   C2786     1.0  0.92557  0.04581  0.26749  1.0000
  C   C2787     1.0  0.71437  0.08371  0.15364  1.0000
  H   H2197     1.0  0.93784  0.18501  0.14621  1.0000
  H   H2198     1.0  0.88309  0.16275  0.19100  1.0000
  H   H2199     1.0  0.87747  0.17044  0.21941  1.0000
  H   H2200     1.0  0.90115  0.17780  0.22833  1.0000
  H   H2201     1.0  0.93115  0.17619  0.20895  1.0000
  H   H2202     1.0  0.93706  0.16825  0.18056  1.0000
  H   H2203     1.0  0.90092  0.13120  0.18874  1.0000
  H   H2204     1.0  0.88161  0.11254  0.18826  1.0000
  H   H2205     1.0  0.87136  0.11576  0.16128  1.0000
  H   H2206     1.0  0.88116  0.13741  0.13447  1.0000
  H   H2207     1.0  0.90044  0.15617  0.13469  1.0000
  H   H2208     1.0  0.96727  0.05625  0.28297  1.0000
  H   H2209     1.0  0.97464  0.09090  0.16315  1.0000
  C   C2788     1.0  0.75816  0.13940  0.01379  1.0000
  H   H2210     1.0  0.55097  0.02647  0.04028  1.0000
  Fe  Fe205     1.0  0.72565  0.20484  0.01685  1.0000
  H   H2211     1.0  0.63539  0.06783  0.20249  1.0000
  C   C2789     1.0  0.59048  0.06951  0.05116  1.0000
  H   H2212     1.0  0.79268  0.22167  0.19406  1.0000
  S   S394      1.0  0.68984  0.16139  0.05646  1.0000
  C   C2790     1.0  0.55286  0.01129  0.10162  1.0000
  C   C2791     1.0  0.99111  0.12864  0.29410  1.0000
  C   C2792     1.0  0.54746  0.13748  0.97843  1.0000
  S   S395      1.0  0.69177  0.03869  0.26840  1.0000
  C   C2793     1.0  0.59444  0.00802  0.19862  1.0000
  C   C2794     1.0  0.98865  0.99676  0.21662  1.0000
  S   S396      1.0  0.97630  0.13370  0.26670  1.0000
  H   H2213     1.0  0.56106  0.04758  0.13517  1.0000
  C   C2795     1.0  0.53417  0.05388  0.13189  1.0000
  H   H2214     1.0  0.72093  0.10642  0.15652  1.0000
  C   C2796     1.0  0.66330  0.18221  0.03967  1.0000
  C   C2797     1.0  0.54783  0.00340  0.07709  1.0000
  C   C2798     1.0  0.84765  0.09374  0.29044  1.0000
  C   C2799     1.0  0.60187  0.00381  0.29244  1.0000
  C   C2800     1.0  0.54382  0.01976  0.03571  1.0000
  Fe  Fe206     1.0  0.71469  0.21545  0.05166  1.0000
  C   C2801     1.0  0.55913  0.00263  0.08779  1.0000
  C   C2802     1.0  0.53004  0.01232  0.08092  1.0000
  H   H2215     1.0  0.86074  0.06964  0.28182  1.0000
  P   P91       1.0  0.71772  0.14158  0.99105  1.0000
  H   H2216     1.0  0.68634  0.13327  0.01727  1.0000
  H   H2217     1.0  0.65966  0.00450  0.22120  1.0000
  C   C2803     1.0  0.99144  0.14923  0.17116  1.0000
  H   H2218     1.0  0.67440  0.07306  0.05519  1.0000
  H   H2219     1.0  0.72490  0.10941  0.97725  1.0000
  H   H2220     1.0  0.74646  0.22176  0.06224  1.0000
  H   H2221     1.0  0.82360  0.00128  0.24694  1.0000
  C   C2804     1.0  0.55796  0.13689  0.98988  1.0000
  P   P92       1.0  0.99039  0.19727  0.99064  1.0000
  C   C2805     1.0  0.67590  0.12195  0.13223  1.0000
  C   C2806     1.0  0.63113  0.06619  0.13717  1.0000
  H   H2222     1.0  0.83837  0.05234  0.30443  1.0000
  C   C2807     1.0  0.91574  0.12715  0.29119  1.0000
  C   C2808     1.0  0.79261  0.99261  0.22288  1.0000
  H   H2223     1.0  0.52088  0.01246  0.07333  1.0000
  Fe  Fe207     1.0  0.71092  0.99019  0.23428  1.0000
  H   H2224     1.0  0.99219  0.13842  0.04812  1.0000
  H   H2225     1.0  0.69501  0.20281  0.99827  1.0000
  H   H2226     1.0  0.70132  0.15048  0.19946  1.0000
  C   C2809     1.0  0.81903  0.23340  0.16315  1.0000
  H   H2227     1.0  0.76600  0.02212  0.30772  1.0000
  H   H2228     1.0  0.77401  0.21043  0.14310  1.0000
  C   C2810     1.0  0.62568  0.14040  0.09960  1.0000
  H   H2229     1.0  0.76580  0.06770  0.16815  1.0000
  S   S397      1.0  0.60921  0.12975  0.03122  1.0000
  H   H2230     1.0  0.93900  0.07206  0.29830  1.0000
  C   C2811     1.0  0.73726  0.12786  0.16500  1.0000
  H   H2231     1.0  0.81418  0.08422  0.16067  1.0000
  C   C2812     1.0  0.72464  0.07271  0.24558  1.0000
  C   C2813     1.0  0.79083  0.07462  0.16333  1.0000
  C   C2814     1.0  0.74090  0.07760  0.23800  1.0000
  C   C2815     1.0  0.63362  0.13037  0.07259  1.0000
  H   H2232     1.0  0.53204  0.10848  0.06679  1.0000
  C   C2816     1.0  0.99285  0.17032  0.14331  1.0000
  H   H2233     1.0  0.82056  0.22303  0.24068  1.0000
  C   C2817     1.0  0.82994  0.16573  0.19069  1.0000
  H   H2234     1.0  0.79543  0.16214  0.07508  1.0000
  C   C2818     1.0  0.81672  0.22798  0.14918  1.0000
  H   H2235     1.0  0.76099  0.14391  0.26372  1.0000
  H   H2236     1.0  0.75147  0.11966  0.97667  1.0000
  C   C2819     1.0  0.76484  0.10015  0.28142  1.0000
  H   H2237     1.0  0.50279  0.02225  0.17636  1.0000
  S   S398      1.0  0.97100  0.22586  0.09064  1.0000
  P   P93       1.0  0.65395  0.11154  0.09743  1.0000
  H   H2238     1.0  0.73742  0.05777  0.19187  1.0000
  C   C2820     1.0  0.60986  0.15584  0.07660  1.0000
  H   H2239     1.0  0.93275  0.07380  0.20467  1.0000
  H   H2240     1.0  0.52097  0.07395  0.09374  1.0000
  H   H2241     1.0  0.97801  0.03598  0.18453  1.0000
  Fe  Fe208     1.0  0.62434  0.13606  0.98117  1.0000
  H   H2242     1.0  0.96508  0.02986  0.27734  1.0000
  C   C2821     1.0  0.81937  0.06334  0.28799  1.0000
  P   P94       1.0  0.76113  0.17767  0.11452  1.0000
  C   C2822     1.0  0.75227  0.18544  0.13461  1.0000
  C   C2823     1.0  0.73890  0.20080  0.13506  1.0000
  C   C2824     1.0  0.73208  0.20714  0.15040  1.0000
  C   C2825     1.0  0.73867  0.19831  0.16537  1.0000
  C   C2826     1.0  0.75217  0.18319  0.16496  1.0000
  C   C2827     1.0  0.75904  0.17682  0.14963  1.0000
  C   C2828     1.0  0.82591  0.18341  0.19147  1.0000
  C   C2829     1.0  0.80835  0.02033  0.30058  1.0000
  C   C2830     1.0  0.78146  0.16139  0.11626  1.0000
  C   C2831     1.0  0.79616  0.13136  0.12719  1.0000
  C   C2832     1.0  0.81262  0.13539  0.11858  1.0000
  C   C2833     1.0  0.81355  0.15236  0.10890  1.0000
  C   C2834     1.0  0.79807  0.16542  0.10801  1.0000
  H   H2243     1.0  0.58810  0.00714  0.18888  1.0000
  C   C2835     1.0  0.76258  0.22989  0.07424  1.0000
  H   H2244     1.0  0.75762  0.17654  0.17642  1.0000
  H   H2245     1.0  0.76984  0.16538  0.14957  1.0000
  C   C2836     1.0  0.68264  0.10928  0.01434  1.0000
  C   C2837     1.0  0.65389  0.15358  0.03451  1.0000
  H   H2246     1.0  0.82470  0.12545  0.11962  1.0000
  H   H2247     1.0  0.82634  0.15545  0.10232  1.0000
  H   H2248     1.0  0.79918  0.17852  0.10075  1.0000
  C   C2838     1.0  0.92421  0.22453  0.19291  1.0000
  C   C2839     1.0  0.52469  0.12806  0.00305  1.0000
  H   H2249     1.0  0.81866  0.17831  0.07208  1.0000
  H   H2250     1.0  0.71353  0.16836  0.17081  1.0000
  Fe  Fe209     1.0  0.74441  0.18373  0.04603  1.0000
  H   H2251     1.0  0.58054  0.10789  0.97907  1.0000
  C   C2840     1.0  0.79674  0.17369  0.06478  1.0000
  H   H2252     1.0  0.64159  0.19801  0.02769  1.0000
  S   S399      1.0  0.56700  0.00448  0.16783  1.0000
  H   H2253     1.0  0.57158  0.00549  0.21959  1.0000
  C   C2841     1.0  0.89905  0.03904  0.18589  1.0000
  S   S400      1.0  0.71943  0.00288  0.20604  1.0000
  C   C2842     1.0  0.78751  0.19401  0.03942  1.0000
  H   H2254     1.0  0.64401  0.02219  0.25592  1.0000
  C   C2843     1.0  0.88358  0.21255  0.17686  1.0000
  Fe  Fe210     1.0  0.70639  0.18201  0.04808  1.0000
  C   C2844     1.0  0.86205  0.08238  0.28234  1.0000
  C   C2845     1.0  0.67260  0.16521  0.04547  1.0000
  C   C2846     1.0  0.97436  0.01766  0.27583  1.0000
  H   H2255     1.0  0.91952  0.02693  0.16677  1.0000
  H   H2256     1.0  0.68092  0.15224  0.98625  1.0000
  C   C2847     1.0  0.75091  0.13432  0.03158  1.0000
  C   C2848     1.0  0.80596  0.00170  0.21354  1.0000
  C   C2849     1.0  0.81712  0.00474  0.22228  1.0000
  C   C2850     1.0  0.81482  0.99881  0.24039  1.0000
  H   H2257     1.0  0.75377  0.14658  0.98786  1.0000
  H   H2258     1.0  0.90519  0.22696  0.11661  1.0000
  C   C2851     1.0  0.76115  0.99554  0.27724  1.0000
  H   H2259     1.0  0.82885  0.06043  0.27626  1.0000
  S   S401      1.0  0.56491  0.12983  0.02266  1.0000
  H   H2260     1.0  0.52864  0.99342  0.13602  1.0000
  S   S402      1.0  0.76903  0.16769  0.05552  1.0000
  H   H2261     1.0  0.62517  0.99225  0.27575  1.0000
  C   C2852     1.0  0.79061  0.09971  0.17383  1.0000
  H   H2262     1.0  0.72198  0.18233  0.12419  1.0000
  C   C2853     1.0  0.96298  0.05189  0.29696  1.0000
  C   C2854     1.0  0.55237  0.05317  0.12604  1.0000
  H   H2263     1.0  0.65044  0.14249  0.03240  1.0000
  C   C2855     1.0  0.84554  0.18981  0.16314  1.0000
  C   C2856     1.0  0.83353  0.15338  0.29823  1.0000
  H   H2264     1.0  0.75018  0.07591  0.24606  1.0000
  H   H2265     1.0  0.62460  0.03404  0.04743  1.0000
  S   S403      1.0  0.60917  0.02314  0.14713  1.0000
  C   C2857     1.0  0.61977  0.08224  0.13226  1.0000
  H   H2266     1.0  0.67865  0.11575  0.14505  1.0000
  C   C2858     1.0  0.57352  0.10080  0.07420  1.0000
  C   C2859     1.0  0.74589  0.16725  0.11055  1.0000
  H   H2267     1.0  0.76798  0.14086  0.13248  1.0000
  C   C2860     1.0  0.64483  0.09387  0.11296  1.0000
  C   C2861     1.0  0.66832  0.13817  0.09936  1.0000
  C   C2862     1.0  0.72747  0.17243  0.11650  1.0000
  H   H2268     1.0  0.99267  0.06377  0.28895  1.0000
  C   C2863     1.0  0.64935  0.06392  0.13007  1.0000
  C   C2864     1.0  0.65619  0.07771  0.11802  1.0000
  H   H2269     1.0  0.57085  0.14016  0.98477  1.0000
  C   C2865     1.0  0.97083  0.04934  0.18473  1.0000
  C   C2866     1.0  0.93708  0.03979  0.23346  1.0000
  C   C2867     1.0  0.79991  0.08601  0.16543  1.0000
  C   C2868     1.0  0.77231  0.10202  0.18022  1.0000
  H   H2270     1.0  0.70168  0.16972  0.11613  1.0000
  C   C2869     1.0  0.76285  0.11810  0.28041  1.0000
  C   C2870     1.0  0.71587  0.16522  0.11203  1.0000
  S   S404      1.0  0.73188  0.17621  0.02861  1.0000
  H   H2271     1.0  0.76543  0.11265  0.18686  1.0000
  H   H2272     1.0  0.65811  0.05136  0.13366  1.0000
  H   H2273     1.0  0.67032  0.07570  0.11250  1.0000
  C   C2871     1.0  0.75243  0.15512  0.09970  1.0000
  H   H2274     1.0  0.76649  0.15173  0.09400  1.0000
  C   C2872     1.0  0.56051  0.13192  0.06814  1.0000
  H   H2275     1.0  0.70919  0.05890  0.15397  1.0000
  H   H2276     1.0  0.66500  0.20468  0.99434  1.0000
  H   H2277     1.0  0.88179  0.05156  0.20646  1.0000
  H   H2278     1.0  0.90568  0.04950  0.22062  1.0000
  H   H2279     1.0  0.62762  0.13923  0.11251  1.0000
  C   C2873     1.0  0.91653  0.03150  0.17874  1.0000
  C   C2874     1.0  0.74082  0.14794  0.09526  1.0000
  C   C2875     1.0  0.72255  0.15293  0.10144  1.0000
  C   C2876     1.0  0.53120  0.01427  0.17239  1.0000
  C   C2877     1.0  0.71278  0.07462  0.23520  1.0000
  C   C2878     1.0  0.53521  0.02037  0.10515  1.0000
  C   C2879     1.0  0.95464  0.05310  0.19665  1.0000
  C   C2880     1.0  0.66450  0.12163  0.10772  1.0000
  H   H2280     1.0  0.71361  0.14788  0.09730  1.0000
  C   C2881     1.0  0.90892  0.04403  0.20921  1.0000
  C   C2882     1.0  0.77246  0.07687  0.16970  1.0000
  H   H2281     1.0  0.98727  0.12471  0.14480  1.0000
  C   C2883     1.0  0.62038  0.14401  0.06632  1.0000
  H   H2282     1.0  0.64182  0.12161  0.06420  1.0000
  C   C2884     1.0  0.74355  0.99607  0.28635  1.0000
  C   C2885     1.0  0.52992  0.06790  0.10257  1.0000
  H   H2283     1.0  0.65791  0.04763  0.24794  1.0000
  C   C2886     1.0  0.76305  0.09063  0.17820  1.0000
  S   S405      1.0  0.71935  0.18745  0.06652  1.0000
  C   C2887     1.0  0.85156  0.14435  0.25145  1.0000
  H   H2284     1.0  0.70800  0.09083  0.14288  1.0000
  C   C2888     1.0  0.56753  0.00998  0.98166  1.0000
  C   C2889     1.0  0.61198  0.00992  0.19382  1.0000
  H   H2285     1.0  0.96009  0.01243  0.25977  1.0000
  H   H2286     1.0  0.50994  0.02739  0.09796  1.0000
  C   C2890     1.0  0.61280  0.00187  0.27615  1.0000
  C   C2891     1.0  0.99084  0.17835  0.00860  1.0000
  H   H2287     1.0  0.85818  0.16784  0.15089  1.0000
  H   H2288     1.0  0.88926  0.07880  0.26830  1.0000
  H   H2289     1.0  0.63291  0.04198  0.08226  1.0000
  C   C2892     1.0  0.71817  0.15423  0.17368  1.0000
  C   C2893     1.0  0.61089  0.01073  0.22362  1.0000
  C   C2894     1.0  0.89527  0.04533  0.20109  1.0000
  S   S406      1.0  0.74065  0.21197  0.03235  1.0000
  C   C2895     1.0  0.87812  0.08757  0.27464  1.0000
  H   H2290     1.0  0.98294  0.20815  0.17175  1.0000
  C   C2896     1.0  0.52938  0.99944  0.14600  1.0000
  H   H2291     1.0  0.99173  0.06858  0.20803  1.0000
  Fe  Fe211     1.0  0.59326  0.13229  0.01176  1.0000
  C   C2897     1.0  0.64735  0.05945  0.22480  1.0000
  H   H2292     1.0  0.82377  0.15635  0.20128  1.0000
  P   P95       1.0  0.94449  0.03584  0.21164  1.0000
  C   C2898     1.0  0.92457  0.03104  0.24585  1.0000
  C   C2899     1.0  0.57897  0.06199  0.06596  1.0000
  H   H2293     1.0  0.92102  0.04831  0.28055  1.0000
  H   H2294     1.0  0.76652  0.10199  0.23880  1.0000
  H   H2295     1.0  0.67888  0.15924  0.10061  1.0000
  C   C2900     1.0  0.79373  0.13884  0.29692  1.0000
  H   H2296     1.0  0.53006  0.12415  0.02842  1.0000
  C   C2901     1.0  0.87965  0.10432  0.27452  1.0000
  C   C2902     1.0  0.74557  0.08392  0.21994  1.0000
  C   C2903     1.0  0.73006  0.08325  0.17535  1.0000
  C   C2904     1.0  0.92646  0.03625  0.20228  1.0000
  H   H2297     1.0  0.89199  0.10836  0.26771  1.0000
  C   C2905     1.0  0.61244  0.15399  0.09328  1.0000
  P   P96       1.0  0.62233  0.01114  0.23958  1.0000
  C   C2906     1.0  0.93021  0.03023  0.18683  1.0000
  C   C2907     1.0  0.86520  0.11583  0.28261  1.0000
  C   C2908     1.0  0.84322  0.15527  0.23817  1.0000
  C   C2909     1.0  0.73382  0.08560  0.20935  1.0000
  H   H2298     1.0  0.76789  0.08072  0.26663  1.0000
  P   P97       1.0  0.73927  0.09426  0.18605  1.0000
  H   H2299     1.0  0.61860  0.14580  0.05325  1.0000
  C   C2910     1.0  0.89299  0.20551  0.13205  1.0000
  C   C2911     1.0  0.64428  0.17055  0.02912  1.0000
  H   H2300     1.0  0.91917  0.02199  0.24237  1.0000
  C   C2912     1.0  0.94691  0.06088  0.30560  1.0000
  C   C2913     1.0  0.57465  0.11814  0.07220  1.0000
  C   C2914     1.0  0.58136  0.02759  0.27823  1.0000
  C   C2915     1.0  0.75389  0.21808  0.07240  1.0000
  C   C2916     1.0  0.89955  0.14660  0.26348  1.0000
  C   C2917     1.0  0.55840  0.09717  0.07180  1.0000
  C   C2918     1.0  0.84926  0.11032  0.29079  1.0000
  H   H2301     1.0  0.79807  0.06387  0.15697  1.0000
  C   C2919     1.0  0.96762  0.20905  0.99111  1.0000
  H   H2302     1.0  0.67060  0.10930  0.02449  1.0000
  C   C2920     1.0  0.75453  0.20163  0.08378  1.0000
  H   H2303     1.0  0.60433  0.16324  0.10121  1.0000
  C   C2921     1.0  0.92548  0.13628  0.27618  1.0000
  C   C2922     1.0  0.67594  0.14649  0.10733  1.0000
  C   C2923     1.0  0.73099  0.06514  0.18121  1.0000
  C   C2924     1.0  0.80983  0.18284  0.06314  1.0000
  H   H2304     1.0  0.72422  0.04245  0.17821  1.0000
  C   C2925     1.0  0.97148  0.00778  0.26572  1.0000
  C   C2926     1.0  0.64195  0.03207  0.24427  1.0000
  C   C2927     1.0  0.89790  0.12778  0.29237  1.0000
  H   H2305     1.0  0.76341  0.13370  0.23710  1.0000
  C   C2928     1.0  0.72355  0.05642  0.17347  1.0000
  C   C2929     1.0  0.71513  0.06571  0.15977  1.0000
  H   H2306     1.0  0.75933  0.98638  0.20082  1.0000
  H   H2307     1.0  0.80264  0.04053  0.27804  1.0000
  C   C2930     1.0  0.63192  0.03022  0.23356  1.0000
  H   H2308     1.0  0.85219  0.13039  0.25419  1.0000
  S   S407      1.0  0.70795  0.04000  0.21900  1.0000
  C   C2931     1.0  0.95963  0.01471  0.21328  1.0000
  C   C2932     1.0  0.66833  0.11356  0.12424  1.0000
  H   H2309     1.0  0.66533  0.10093  0.13111  1.0000
  H   H2310     1.0  0.75183  0.18302  0.98935  1.0000
  H   H2311     1.0  0.92562  0.21150  0.20126  1.0000
  C   C2933     1.0  0.71725  0.08119  0.21719  1.0000
  H   H2312     1.0  0.58689  0.08323  0.04484  1.0000
  C   C2934     1.0  0.68895  0.09583  0.00518  1.0000
  P   P98       1.0  0.86658  0.13816  0.28033  1.0000
  C   C2935     1.0  0.71132  0.14416  0.18980  1.0000
  C   C2936     1.0  0.71746  0.12593  0.19358  1.0000
  H   H2313     1.0  0.70787  0.08252  0.20937  1.0000
  H   H2314     1.0  0.53027  0.02674  0.11610  1.0000
  H   H2315     1.0  0.82090  0.21440  0.14818  1.0000
  C   C2937     1.0  0.53619  0.05898  0.06411  1.0000
  H   H2316     1.0  0.79717  0.02081  0.26330  1.0000
  S   S408      1.0  0.85826  0.22126  0.07066  1.0000
  H   H2317     1.0  0.74736  0.12173  0.15528  1.0000
  S   S409      1.0  0.98246  0.05793  0.24595  1.0000
  C   C2938     1.0  0.73389  0.05685  0.29479  1.0000
  C   C2939     1.0  0.72178  0.09249  0.16140  1.0000
  C   C2940     1.0  0.57577  0.08589  0.00024  1.0000
  C   C2941     1.0  0.80420  0.02670  0.28411  1.0000
  H   H2318     1.0  0.81669  0.18734  0.20287  1.0000
  H   H2319     1.0  0.59989  0.16656  0.07146  1.0000
  C   C2942     1.0  0.74067  0.07042  0.29611  1.0000
  P   P99       1.0  0.83058  0.21812  0.17937  1.0000
  C   C2943     1.0  0.91872  0.03417  0.26276  1.0000
  H   H2320     1.0  0.53376  0.09243  0.02013  1.0000
  H   H2321     1.0  0.94385  0.06307  0.25903  1.0000
  H   H2322     1.0  0.82807  0.15036  0.28896  1.0000
  C   C2944     1.0  0.58699  0.00186  0.04950  1.0000
  H   H2323     1.0  0.89382  0.15336  0.25229  1.0000
  H   H2324     1.0  0.77917  0.19820  0.03004  1.0000
  S   S410      1.0  0.72594  0.00368  0.24410  1.0000
  C   C2945     1.0  0.72342  0.13431  0.02478  1.0000
  C   C2946     1.0  0.53502  0.12777  0.01447  1.0000
  H   H2325     1.0  0.57268  0.99510  0.08569  1.0000
  C   C2947     1.0  0.60677  0.05938  0.04439  1.0000
  H   H2326     1.0  0.53714  0.04931  0.07609  1.0000
  C   C2948     1.0  0.73053  0.11766  0.18120  1.0000
  H   H2327     1.0  0.58660  0.12089  0.07349  1.0000
  Fe  Fe212     1.0  0.59079  0.00751  0.14577  1.0000
  H   H2328     1.0  0.64282  0.00992  0.29108  1.0000
  H   H2329     1.0  0.89721  0.22753  0.08542  1.0000
  H   H2330     1.0  0.65905  0.99337  0.26775  1.0000
  H   H2331     1.0  0.73643  0.15382  0.14884  1.0000
  C   C2949     1.0  0.76602  0.09451  0.26628  1.0000
  H   H2332     1.0  0.83460  0.18182  0.22476  1.0000
  Fe  Fe213     1.0  0.70094  0.02445  0.24632  1.0000
  C   C2950     1.0  0.94424  0.05108  0.23846  1.0000
  C   C2951     1.0  0.92289  0.20706  0.13104  1.0000
  H   H2333     1.0  0.83916  0.22028  0.21152  1.0000
  C   C2952     1.0  0.81454  0.22279  0.23043  1.0000
  H   H2334     1.0  0.61934  0.01008  0.18051  1.0000
  C   C2953     1.0  0.88953  0.13791  0.27872  1.0000
  C   C2954     1.0  0.69535  0.03228  0.30219  1.0000
  C   C2955     1.0  0.80103  0.20276  0.03741  1.0000
  C   C2956     1.0  0.67517  0.19284  0.99324  1.0000
  H   H2335     1.0  0.86186  0.17549  0.26521  1.0000
  C   C2957     1.0  0.98946  0.01216  0.28309  1.0000
  H   H2336     1.0  0.80295  0.21371  0.02650  1.0000
  C   C2958     1.0  0.81201  0.19740  0.04945  1.0000
  C   C2959     1.0  0.85696  0.16974  0.25750  1.0000
  H   H2337     1.0  0.75848  0.08707  0.21438  1.0000
  H   H2338     1.0  0.58613  0.00698  0.24191  1.0000
  C   C2960     1.0  0.84144  0.17342  0.23477  1.0000
  C   C2961     1.0  0.77288  0.20871  0.09874  1.0000
  C   C2962     1.0  0.73109  0.14606  0.16129  1.0000
  S   S411      1.0  0.72625  0.21661  0.98844  1.0000
  H   H2339     1.0  0.71209  0.11840  0.20620  1.0000
  C   C2963     1.0  0.84838  0.18065  0.24438  1.0000
  H   H2340     1.0  0.84698  0.19470  0.24181  1.0000
  H   H2341     1.0  0.92210  0.11938  0.30181  1.0000
  H   H2342     1.0  0.97100  0.19229  0.02695  1.0000
  C   C2964     1.0  0.57827  0.98871  0.05054  1.0000
  C   C2965     1.0  0.73345  0.13203  0.03708  1.0000
  H   H2343     1.0  0.83773  0.14960  0.23085  1.0000
  C   C2966     1.0  0.82502  0.22130  0.21385  1.0000
  H   H2344     1.0  0.57743  0.09181  0.00991  1.0000
  C   C2967     1.0  0.54512  0.12833  0.06642  1.0000
  H   H2345     1.0  0.78009  0.20539  0.10905  1.0000
  H   H2346     1.0  0.61579  0.06540  0.03323  1.0000
  H   H2347     1.0  0.69126  0.00198  0.28285  1.0000
  H   H2348     1.0  0.56158  0.14537  0.06605  1.0000
  H   H2349     1.0  0.66685  0.19332  0.04160  1.0000
  H   H2350     1.0  0.72191  0.21910  0.15055  1.0000
  C   C2968     1.0  0.80170  0.07147  0.28734  1.0000
  C   C2969     1.0  0.52292  0.06145  0.12020  1.0000
  H   H2351     1.0  0.76238  0.12287  0.29168  1.0000
  C   C2970     1.0  0.84182  0.16008  0.17623  1.0000
  H   H2352     1.0  0.58449  0.09021  0.07739  1.0000
  H   H2353     1.0  0.97184  0.16703  0.05187  1.0000
  H   H2354     1.0  0.95438  0.05753  0.22938  1.0000
  C   C2971     1.0  0.98023  0.16553  0.03919  1.0000
  H   H2355     1.0  0.57990  0.01342  0.05464  1.0000
  C   C2972     1.0  0.80329  0.99737  0.28321  1.0000
  H   H2356     1.0  0.79759  0.07436  0.27513  1.0000
  C   C2973     1.0  0.86692  0.20898  0.17917  1.0000
  C   C2974     1.0  0.69259  0.00757  0.29287  1.0000
  C   C2975     1.0  0.66019  0.98773  0.28114  1.0000
  C   C2976     1.0  0.98103  0.12200  0.28707  1.0000
  C   C2977     1.0  0.99169  0.14947  0.03707  1.0000
  C   C2978     1.0  0.75655  0.06664  0.30182  1.0000
  H   H2357     1.0  0.65136  0.04383  0.17045  1.0000
  C   C2979     1.0  0.80101  0.99021  0.24992  1.0000
  C   C2980     1.0  0.71328  0.10955  0.98774  1.0000
  C   C2981     1.0  0.58374  0.04407  0.07352  1.0000
  H   H2358     1.0  0.93936  0.13560  0.27518  1.0000
  H   H2359     1.0  0.90881  0.02767  0.27217  1.0000
  H   H2360     1.0  0.92528  0.15217  0.25030  1.0000
  C   C2982     1.0  0.76521  0.10658  0.25043  1.0000
  C   C2983     1.0  0.91745  0.14583  0.26226  1.0000
  C   C2984     1.0  0.93837  0.05418  0.25536  1.0000
  C   C2985     1.0  0.76955  0.22387  0.14462  1.0000
  C   C2986     1.0  0.66768  0.15091  0.04308  1.0000
  C   C2987     1.0  0.64896  0.18484  0.03183  1.0000
  C   C2988     1.0  0.76198  0.13015  0.26453  1.0000
  H   H2361     1.0  0.53471  0.04278  0.01692  1.0000
  C   C2989     1.0  0.67249  0.99423  0.17531  1.0000
  C   C2990     1.0  0.51480  0.01557  0.16881  1.0000
  C   C2991     1.0  0.74308  0.03945  0.29882  1.0000
  C   C2992     1.0  0.68424  0.16308  0.98897  1.0000
  C   C2993     1.0  0.78537  0.17939  0.05309  1.0000
  H   H2362     1.0  0.51758  0.06849  0.02912  1.0000
  H   H2363     1.0  0.86576  0.19544  0.18270  1.0000
  H   H2364     1.0  0.70023  0.07066  0.24113  1.0000
  H   H2365     1.0  0.70278  0.08279  0.04166  1.0000
  H   H2366     1.0  0.80693  0.11159  0.29975  1.0000
  C   C2994     1.0  0.86508  0.23058  0.01977  1.0000
  C   C2995     1.0  0.54684  0.00621  0.16237  1.0000
  H   H2367     1.0  0.73360  0.08387  0.29262  1.0000
  C   C2996     1.0  0.82473  0.05871  0.30382  1.0000
  H   H2368     1.0  0.72129  0.06718  0.25945  1.0000
  C   C2997     1.0  0.79887  0.22214  0.20409  1.0000
  H   H2369     1.0  0.62124  0.04273  0.21032  1.0000
  H   H2370     1.0  0.73386  0.20798  0.12347  1.0000
  C   C2998     1.0  0.95387  0.19984  0.99720  1.0000
  H   H2371     1.0  0.57351  0.05933  0.10416  1.0000
  C   C2999     1.0  0.74810  0.14184  0.00147  1.0000
  H   H2372     1.0  0.57480  0.03783  0.08451  1.0000
  C   C3000     1.0  0.78932  0.07527  0.30244  1.0000
  H   H2373     1.0  0.53176  0.01982  0.18277  1.0000
  H   H2374     1.0  0.65803  0.17908  0.98876  1.0000
  C   C3001     1.0  0.70430  0.09592  0.99194  1.0000
  H   H2375     1.0  0.63383  0.01274  0.20224  1.0000
  C   C3002     1.0  0.63696  0.05798  0.21432  1.0000
  H   H2376     1.0  0.60403  0.02033  0.07314  1.0000
  C   C3003     1.0  0.69165  0.12282  0.01026  1.0000
  H   H2377     1.0  0.93376  0.21383  0.12606  1.0000
  H   H2378     1.0  0.56929  0.03772  0.27904  1.0000
  C   C3004     1.0  0.51379  0.00822  0.15562  1.0000
  H   H2379     1.0  0.77802  0.21828  0.16870  1.0000
  H   H2380     1.0  0.62851  0.20921  0.98256  1.0000
  C   C3005     1.0  0.62014  0.01141  0.20621  1.0000
  C   C3006     1.0  0.64972  0.04657  0.23986  1.0000
  C   C3007     1.0  0.55081  0.00880  0.98073  1.0000
  H   H2381     1.0  0.53429  0.13902  0.06296  1.0000
  C   C3008     1.0  0.62918  0.04348  0.21870  1.0000
  H   H2382     1.0  0.55111  0.09552  0.03938  1.0000
  C   C3009     1.0  0.59229  0.02569  0.26193  1.0000
  C   C3010     1.0  0.73084  0.13869  0.00683  1.0000
  S   S412      1.0  0.81626  0.22277  0.09069  1.0000
  C   C3011     1.0  0.60790  0.01255  0.26073  1.0000
  H   H2383     1.0  0.84486  0.14638  0.17561  1.0000
  C   C3012     1.0  0.69336  0.02523  0.28916  1.0000
  C   C3013     1.0  0.54832  0.06645  0.09644  1.0000
  P   P100      1.0  0.55742  0.07482  0.07372  1.0000
  H   H2384     1.0  0.77432  0.22421  0.22344  1.0000
  C   C3014     1.0  0.60019  0.03404  0.06691  1.0000
  H   H2385     1.0  0.58867  0.03460  0.25023  1.0000
  H   H2386     1.0  0.65380  0.07041  0.22111  1.0000
  H   H2387     1.0  0.56615  0.04905  0.99677  1.0000
  C   C3015     1.0  0.90681  0.21447  0.12580  1.0000
  P   P101      1.0  0.76623  0.08428  0.30175  1.0000
  C   C3016     1.0  0.85210  0.22277  0.17683  1.0000
  P   P102      1.0  0.99406  0.02555  0.29502  1.0000
  H   H2388     1.0  0.76399  0.00518  0.26525  1.0000
  H   H2389     1.0  0.85172  0.19896  0.15234  1.0000
  C   C3017     1.0  0.57738  0.09505  0.98287  1.0000
  C   C3018     1.0  0.60511  0.00007  0.04195  1.0000
  C   C3019     1.0  0.83389  0.19559  0.17778  1.0000
  C   C3020     1.0  0.69204  0.19174  0.99558  1.0000
  H   H2390     1.0  0.94607  0.21685  0.17220  1.0000
  C   C3021     1.0  0.54454  0.07312  0.05966  1.0000
  C   C3022     1.0  0.58515  0.00713  0.21595  1.0000
  C   C3023     1.0  0.52494  0.02078  0.01679  1.0000
  H   H2391     1.0  0.78108  0.16604  0.28985  1.0000
  C   C3024     1.0  0.54406  0.08495  0.04351  1.0000
  H   H2392     1.0  0.78822  0.22479  0.24679  1.0000
  C   C3025     1.0  0.52375  0.02074  0.09491  1.0000
  H   H2393     1.0  0.92569  0.20162  0.00257  1.0000
  C   C3026     1.0  0.81723  0.22096  0.20057  1.0000
  C   C3027     1.0  0.84944  0.17215  0.16236  1.0000
  C   C3028     1.0  0.93623  0.20882  0.99768  1.0000
  C   C3029     1.0  0.77238  0.22507  0.08715  1.0000
  H   H2394     1.0  0.95675  0.18570  0.00164  1.0000
  H   H2395     1.0  0.70910  0.08549  0.98482  1.0000
  H   H2396     1.0  0.71799  0.17565  0.99671  1.0000
  S   S413      1.0  0.50669  0.08923  0.99772  1.0000
  H   H2397     1.0  0.86637  0.21739  0.01831  1.0000
  C   C3030     1.0  0.77159  0.22830  0.15918  1.0000
  C   C3031     1.0  0.80704  0.99113  0.29992  1.0000
  H   H2398     1.0  0.78374  0.99069  0.21610  1.0000
  C   C3032     1.0  0.54350  0.00202  0.04315  1.0000
  H   H2399     1.0  0.88824  0.22384  0.03065  1.0000
  C   C3033     1.0  0.73978  0.98422  0.30224  1.0000
  H   H2400     1.0  0.89063  0.12028  0.30389  1.0000
  H   H2401     1.0  0.83795  0.11885  0.29716  1.0000
  H   H2402     1.0  0.50876  0.06220  0.12479  1.0000
  C   C3034     1.0  0.63977  0.99153  0.24006  1.0000
  H   H2403     1.0  0.83515  0.08983  0.29636  1.0000
  S   S414      1.0  0.99426  0.10370  0.23272  1.0000
  C   C3035     1.0  0.75120  0.18933  0.97594  1.0000
  S   S415      1.0  0.61237  0.98430  0.14060  1.0000
  Fe  Fe214     1.0  0.49774  0.11646  0.98274  1.0000
  H   H2404     1.0  0.69588  0.04595  0.29941  1.0000
  C   C3036     1.0  0.75886  0.03560  0.30451  1.0000
  C   C3037     1.0  0.65098  0.99691  0.29428  1.0000
  H   H2405     1.0  0.76006  0.23302  0.12093  1.0000
  H   H2406     1.0  0.76662  0.22743  0.00543  1.0000
  H   H2407     1.0  0.60297  0.19877  0.98104  1.0000
  H   H2408     1.0  0.62868  0.98381  0.02963  1.0000
  H   H2409     1.0  0.99185  0.23189  0.14681  1.0000
  H   H2410     1.0  0.89853  0.23246  0.17050  1.0000
  C   C3038     1.0  0.53439  0.99357  0.03673  1.0000
  H   H2411     1.0  0.81005  0.02921  0.30743  1.0000
  H   H2412     1.0  0.51733  0.99665  0.01935  1.0000
  H   H2413     1.0  0.57768  0.01815  0.30612  1.0000
  C   C3039     1.0  0.80958  0.00258  0.30856  1.0000
  C   C3040     1.0  0.96344  0.22735  0.98512  1.0000
  C   C3041     1.0  0.93218  0.22702  0.99181  1.0000
  H   H2414     1.0  0.98152  0.98476  0.25479  1.0000
  Fe  Fe215     1.0  0.73100  0.99231  0.51715  1.0000
  S   S416      1.0  0.72091  0.01990  0.50383  1.0000
  C   C3042     1.0  0.83087  0.01299  0.46783  1.0000
  Fe  Fe216     1.0  0.76732  0.99931  0.51386  1.0000
  S   S417      1.0  0.75983  0.02736  0.50002  1.0000
  C   C3043     1.0  0.84890  0.01286  0.57511  1.0000
  Fe  Fe217     1.0  0.73433  0.02772  0.52019  1.0000
  S   S418      1.0  0.71994  0.04961  0.53427  1.0000
  Fe  Fe218     1.0  0.74724  0.01656  0.48513  1.0000
  S   S419      1.0  0.74977  0.02681  0.45617  1.0000
  S   S420      1.0  0.74249  0.00038  0.53500  1.0000
  C   C3044     1.0  0.81296  0.00241  0.41621  1.0000
  Fe  Fe219     1.0  0.73178  0.99062  0.38731  1.0000
  S   S421      1.0  0.75626  0.00015  0.37205  1.0000
  C   C3045     1.0  0.87973  0.09810  0.60455  1.0000
  Fe  Fe220     1.0  0.71817  0.99497  0.35448  1.0000
  S   S422      1.0  0.74159  0.00510  0.33671  1.0000
  C   C3046     1.0  0.69058  0.00331  0.48514  1.0000
  C   C3047     1.0  0.90089  0.09134  0.34340  1.0000
  Fe  Fe221     1.0  0.73798  0.02066  0.35670  1.0000
  S   S423      1.0  0.73797  0.04918  0.35188  1.0000
  C   C3048     1.0  0.75342  0.12335  0.62008  1.0000
  S   S424      1.0  0.71318  0.01231  0.37322  1.0000
  Fe  Fe222     1.0  0.82218  0.06864  0.52574  1.0000
  S   S425      1.0  0.79511  0.08454  0.52321  1.0000
  S   S426      1.0  0.82752  0.04016  0.54012  1.0000
  Fe  Fe223     1.0  0.83951  0.09944  0.50460  1.0000
  S   S427      1.0  0.81374  0.11739  0.49960  1.0000
  S   S428      1.0  0.86522  0.10848  0.49261  1.0000
  Fe  Fe224     1.0  0.80358  0.10657  0.52812  1.0000
  Fe  Fe225     1.0  0.80796  0.09365  0.49504  1.0000
  S   S429      1.0  0.79670  0.08923  0.47458  1.0000
  S   S430      1.0  0.82959  0.08978  0.53325  1.0000
  S   S431      1.0  0.83467  0.07665  0.49750  1.0000
  Fe  Fe226     1.0  0.94004  0.10174  0.52986  1.0000
  S   S432      1.0  0.94765  0.12580  0.51131  1.0000
  S   S433      1.0  0.91207  0.10269  0.54523  1.0000
  Fe  Fe227     1.0  0.84065  0.10281  0.34478  1.0000
  S   S434      1.0  0.82271  0.12877  0.34744  1.0000
  H   H2415     1.0  0.77722  0.04575  0.31145  1.0000
  Fe  Fe228     1.0  0.81085  0.08355  0.36128  1.0000
  S   S435      1.0  0.79021  0.10802  0.36562  1.0000
  S   S436      1.0  0.80788  0.05564  0.36799  1.0000
  Fe  Fe229     1.0  0.80359  0.11973  0.33835  1.0000
  Fe  Fe230     1.0  0.81113  0.11500  0.37435  1.0000
  S   S437      1.0  0.80788  0.12943  0.39552  1.0000
  S   S438      1.0  0.82255  0.09477  0.33343  1.0000
  S   S439      1.0  0.83048  0.08950  0.37233  1.0000
  S   S440      1.0  0.91373  0.08217  0.39043  1.0000
  S   S441      1.0  0.95505  0.04706  0.40112  1.0000
  S   S442      1.0  0.95742  0.11847  0.46513  1.0000
  Fe  Fe231     1.0  0.72867  0.02527  0.63167  1.0000
  S   S443      1.0  0.70978  0.02420  0.61632  1.0000
  C   C3049     1.0  0.83492  0.22461  0.63785  1.0000
  S   S444      1.0  0.69756  0.99034  0.34324  1.0000
  H   H2416     1.0  0.91052  0.12290  0.59259  1.0000
  H   H2417     1.0  0.97522  0.18758  0.63070  1.0000
  H   H2418     1.0  0.90748  0.09087  0.33000  1.0000
  H   H2419     1.0  0.69505  0.99981  0.49727  1.0000
  H   H2420     1.0  0.76048  0.11881  0.63057  1.0000
  C   C3050     1.0  0.89498  0.04869  0.57828  1.0000
  H   H2421     1.0  0.85198  0.16519  0.33157  1.0000
  H   H2422     1.0  0.91172  0.14997  0.50110  1.0000
  H   H2423     1.0  0.88210  0.14484  0.42736  1.0000
  S   S445      1.0  0.93019  0.14707  0.61885  1.0000
  H   H2424     1.0  0.81984  0.17447  0.33184  1.0000
  C   C3051     1.0  0.96361  0.10473  0.43655  1.0000
  C   C3052     1.0  0.80475  0.00141  0.47301  1.0000
  H   H2425     1.0  0.97508  0.08230  0.57696  1.0000
  C   C3053     1.0  0.89749  0.14177  0.62146  1.0000
  C   C3054     1.0  0.79549  0.99708  0.39910  1.0000
  H   H2426     1.0  0.84048  0.00402  0.61224  1.0000
  C   C3055     1.0  0.86189  0.99891  0.56951  1.0000
  H   H2427     1.0  0.89589  0.15383  0.61168  1.0000
  C   C3056     1.0  0.98637  0.07141  0.57842  1.0000
  H   H2428     1.0  0.98818  0.13562  0.45556  1.0000
  S   S446      1.0  0.99263  0.09692  0.34128  1.0000
  C   C3057     1.0  0.84688  0.16197  0.32218  1.0000
  C   C3058     1.0  0.92218  0.04816  0.59392  1.0000
  C   C3059     1.0  0.91555  0.11911  0.63940  1.0000
  C   C3060     1.0  0.97755  0.09914  0.31363  1.0000
  C   C3061     1.0  0.90364  0.03279  0.58746  1.0000
  C   C3062     1.0  0.99538  0.12429  0.55286  1.0000
  C   C3063     1.0  0.94175  0.12169  0.35479  1.0000
  C   C3064     1.0  0.88234  0.09618  0.34790  1.0000
  C   C3065     1.0  0.87390  0.09730  0.36507  1.0000
  C   C3066     1.0  0.88380  0.09307  0.37783  1.0000
  C   C3067     1.0  0.90221  0.08761  0.37363  1.0000
  H   H2429     1.0  0.85976  0.10189  0.36849  1.0000
  H   H2430     1.0  0.87717  0.09420  0.39096  1.0000
  C   C3068     1.0  0.78648  0.07716  0.57804  1.0000
  H   H2431     1.0  0.94489  0.11059  0.34870  1.0000
  C   C3069     1.0  0.87889  0.16716  0.57183  1.0000
  C   C3070     1.0  0.92597  0.12482  0.36723  1.0000
  C   C3071     1.0  0.87970  0.00003  0.56449  1.0000
  C   C3072     1.0  0.80253  0.09963  0.45247  1.0000
  C   C3073     1.0  0.80636  0.11631  0.44752  1.0000
  C   C3074     1.0  0.80839  0.12527  0.42989  1.0000
  C   C3075     1.0  0.80718  0.11733  0.41714  1.0000
  C   C3076     1.0  0.80440  0.10028  0.42200  1.0000
  C   C3077     1.0  0.80170  0.09161  0.43966  1.0000
  H   H2432     1.0  0.80684  0.12263  0.45737  1.0000
  H   H2433     1.0  0.81051  0.13851  0.42619  1.0000
  H   H2434     1.0  0.80374  0.09406  0.41217  1.0000
  H   H2435     1.0  0.79872  0.07873  0.44349  1.0000
  C   C3078     1.0  0.87733  0.10909  0.50724  1.0000
  C   C3079     1.0  0.86971  0.10808  0.52502  1.0000
  C   C3080     1.0  0.88025  0.10664  0.53671  1.0000
  C   C3081     1.0  0.89836  0.10649  0.53055  1.0000
  C   C3082     1.0  0.90564  0.10877  0.51260  1.0000
  C   C3083     1.0  0.89517  0.11003  0.50098  1.0000
  H   H2436     1.0  0.85573  0.10839  0.52975  1.0000
  H   H2437     1.0  0.87446  0.10547  0.55050  1.0000
  H   H2438     1.0  0.91938  0.10942  0.50759  1.0000
  H   H2439     1.0  0.90106  0.11126  0.48720  1.0000
  C   C3084     1.0  0.91335  0.06405  0.58509  1.0000
  C   C3085     1.0  0.96756  0.03234  0.32449  1.0000
  C   C3086     1.0  0.69689  0.02164  0.31876  1.0000
  C   C3087     1.0  0.69563  0.00409  0.32262  1.0000
  H   H2440     1.0  0.67929  0.00992  0.63764  1.0000
  H   H2441     1.0  0.89202  0.01902  0.39573  1.0000
  C   C3088     1.0  0.91357  0.13485  0.62687  1.0000
  H   H2442     1.0  0.69880  0.02707  0.32863  1.0000
  H   H2443     1.0  0.80027  0.10041  0.62841  1.0000
  C   C3089     1.0  0.67488  0.12678  0.52320  1.0000
  C   C3090     1.0  0.75741  0.05109  0.35623  1.0000
  C   C3091     1.0  0.75733  0.06531  0.36279  1.0000
  C   C3092     1.0  0.77282  0.06679  0.36646  1.0000
  C   C3093     1.0  0.78832  0.05386  0.36385  1.0000
  C   C3094     1.0  0.78837  0.03954  0.35747  1.0000
  C   C3095     1.0  0.77298  0.03826  0.35348  1.0000
  H   H2444     1.0  0.74524  0.07505  0.36526  1.0000
  H   H2445     1.0  0.77271  0.07780  0.37151  1.0000
  H   H2446     1.0  0.80040  0.02959  0.35535  1.0000
  H   H2447     1.0  0.77323  0.02745  0.34807  1.0000
  C   C3096     1.0  0.71769  0.04301  0.55707  1.0000
  C   C3097     1.0  0.73242  0.03824  0.56475  1.0000
  C   C3098     1.0  0.73018  0.03333  0.58307  1.0000
  C   C3099     1.0  0.71323  0.03269  0.59364  1.0000
  C   C3100     1.0  0.69856  0.03766  0.58591  1.0000
  C   C3101     1.0  0.70075  0.04307  0.56774  1.0000
  H   H2448     1.0  0.74550  0.03837  0.55653  1.0000
  H   H2449     1.0  0.74160  0.02934  0.58894  1.0000
  H   H2450     1.0  0.68546  0.03715  0.59400  1.0000
  H   H2451     1.0  0.68933  0.04688  0.56190  1.0000
  C   C3102     1.0  0.80422  0.00229  0.52513  1.0000
  C   C3103     1.0  0.81593  0.99600  0.53647  1.0000
  C   C3104     1.0  0.82328  0.00766  0.54073  1.0000
  C   C3105     1.0  0.81916  0.02569  0.53351  1.0000
  C   C3106     1.0  0.80829  0.03187  0.52141  1.0000
  C   C3107     1.0  0.80083  0.02018  0.51722  1.0000
  H   H2452     1.0  0.92408  0.02027  0.60212  1.0000
  H   H2453     1.0  0.83191  0.00276  0.54986  1.0000
  H   H2454     1.0  0.80560  0.04569  0.51538  1.0000
  H   H2455     1.0  0.79250  0.02499  0.50786  1.0000
  C   C3108     1.0  0.74370  0.01431  0.44523  1.0000
  C   C3109     1.0  0.73683  0.99952  0.45445  1.0000
  C   C3110     1.0  0.99528  0.01235  0.42310  1.0000
  H   H2456     1.0  0.87229  0.14855  0.31025  1.0000
  C   C3111     1.0  0.74077  0.00949  0.41812  1.0000
  C   C3112     1.0  0.74548  0.01940  0.42708  1.0000
  H   H2457     1.0  0.79576  0.99324  0.48146  1.0000
  H   H2458     1.0  0.89639  0.22582  0.62474  1.0000
  H   H2459     1.0  0.74236  0.01342  0.40412  1.0000
  H   H2460     1.0  0.75059  0.03097  0.41992  1.0000
  H   H2461     1.0  0.84212  0.01372  0.47223  1.0000
  Fe  Fe232     1.0  0.97855  0.07760  0.36169  1.0000
  Fe  Fe233     1.0  0.98550  0.10339  0.63598  1.0000
  C   C3113     1.0  0.82248  0.14128  0.55936  1.0000
  S   S447      1.0  0.96158  0.08706  0.38552  1.0000
  C   C3114     1.0  0.86936  0.10716  0.59234  1.0000
  H   H2462     1.0  0.77574  0.10695  0.31845  1.0000
  H   H2463     1.0  0.91786  0.07003  0.51207  1.0000
  H   H2464     1.0  0.89826  0.01621  0.56017  1.0000
  C   C3115     1.0  0.84840  0.06194  0.40527  1.0000
  C   C3116     1.0  0.85848  0.05500  0.39083  1.0000
  C   C3117     1.0  0.85333  0.04204  0.38637  1.0000
  C   C3118     1.0  0.83826  0.03578  0.39651  1.0000
  C   C3119     1.0  0.82819  0.04255  0.41118  1.0000
  C   C3120     1.0  0.83324  0.05588  0.41531  1.0000
  P   P103      1.0  0.80888  0.03445  0.42474  1.0000
  C   C3121     1.0  0.80340  0.01989  0.41478  1.0000
  C   C3122     1.0  0.81303  0.02211  0.44589  1.0000
  C   C3123     1.0  0.80155  0.01129  0.45677  1.0000
  H   H2465     1.0  0.68085  0.99311  0.38214  1.0000
  C   C3124     1.0  0.77957  0.99172  0.59441  1.0000
  C   C3125     1.0  0.65259  0.98942  0.31153  1.0000
  C   C3126     1.0  0.82772  0.02290  0.45158  1.0000
  C   C3127     1.0  0.78972  0.02574  0.40558  1.0000
  C   C3128     1.0  0.78579  0.01435  0.39784  1.0000
  H   H2466     1.0  0.84326  0.03886  0.57928  1.0000
  C   C3129     1.0  0.72874  0.98917  0.58225  1.0000
  S   S448      1.0  0.97752  0.11738  0.61068  1.0000
  C   C3130     1.0  0.79069  0.05319  0.42693  1.0000
  C   C3131     1.0  0.78822  0.06683  0.41230  1.0000
  C   C3132     1.0  0.77396  0.08122  0.41368  1.0000
  C   C3133     1.0  0.76224  0.08227  0.42975  1.0000
  C   C3134     1.0  0.76476  0.06889  0.44444  1.0000
  C   C3135     1.0  0.77887  0.05437  0.44306  1.0000
  H   H2467     1.0  0.85202  0.07243  0.40834  1.0000
  H   H2468     1.0  0.86998  0.06006  0.38279  1.0000
  H   H2469     1.0  0.86074  0.03717  0.37477  1.0000
  H   H2470     1.0  0.83426  0.02609  0.39252  1.0000
  H   H2471     1.0  0.82544  0.06158  0.42631  1.0000
  H   H2472     1.0  0.79000  0.01064  0.45275  1.0000
  S   S449      1.0  0.98678  0.10098  0.50047  1.0000
  P   P104      1.0  0.86971  0.20431  0.63298  1.0000
  C   C3136     1.0  0.88809  0.22675  0.63753  1.0000
  H   H2473     1.0  0.83679  0.03108  0.44362  1.0000
  H   H2474     1.0  0.78211  0.03910  0.40416  1.0000
  H   H2475     1.0  0.99169  0.02256  0.41211  1.0000
  C   C3137     1.0  0.99076  0.98573  0.44445  1.0000
  H   H2476     1.0  0.81689  0.19447  0.62076  1.0000
  C   C3138     1.0  0.73150  0.99005  0.44556  1.0000
  H   H2477     1.0  0.79733  0.06632  0.39981  1.0000
  H   H2478     1.0  0.77217  0.09164  0.40230  1.0000
  H   H2479     1.0  0.75129  0.09347  0.43081  1.0000
  H   H2480     1.0  0.75578  0.06962  0.45693  1.0000
  H   H2481     1.0  0.78034  0.04415  0.45461  1.0000
  S   S450      1.0  0.98606  0.05729  0.42431  1.0000
  H   H2482     1.0  0.74335  0.99090  0.61511  1.0000
  H   H2483     1.0  0.83498  0.01250  0.57804  1.0000
  Fe  Fe234     1.0  0.97267  0.04071  0.37614  1.0000
  C   C3139     1.0  0.69784  0.10121  0.51762  1.0000
  H   H2484     1.0  0.86082  0.15303  0.59204  1.0000
  S   S451      1.0  0.82695  0.11566  0.63055  1.0000
  C   C3140     1.0  0.82879  0.16734  0.32225  1.0000
  H   H2485     1.0  0.75150  0.10529  0.45624  1.0000
  C   C3141     1.0  0.75314  0.11397  0.33847  1.0000
  H   H2486     1.0  0.98674  0.05868  0.45876  1.0000
  C   C3142     1.0  0.85836  0.15234  0.31010  1.0000
  C   C3143     1.0  0.70776  0.11187  0.50405  1.0000
  C   C3144     1.0  0.89471  0.10373  0.60430  1.0000
  C   C3145     1.0  0.81532  0.14237  0.57688  1.0000
  C   C3146     1.0  0.90397  0.14984  0.52861  1.0000
  C   C3147     1.0  0.89631  0.16552  0.39357  1.0000
  H   H2487     1.0  0.68946  0.06522  0.60833  1.0000
  H   H2488     1.0  0.71457  0.10007  0.34869  1.0000
  C   C3148     1.0  0.82204  0.20305  0.62522  1.0000
  H   H2489     1.0  0.66221  0.13252  0.53063  1.0000
  S   S452      1.0  0.97364  0.15415  0.62284  1.0000
  P   P105      1.0  0.89373  0.14801  0.56491  1.0000
  S   S453      1.0  0.78616  0.12268  0.54763  1.0000
  C   C3149     1.0  0.87282  0.98350  0.62265  1.0000
  H   H2490     1.0  0.69180  0.13335  0.55374  1.0000
  C   C3150     1.0  0.73713  0.09294  0.32851  1.0000
  P   P106      1.0  0.90141  0.14303  0.39139  1.0000
  C   C3151     1.0  0.88372  0.14086  0.36720  1.0000
  C   C3152     1.0  0.91623  0.14824  0.56475  1.0000
  H   H2491     1.0  0.83896  0.17953  0.59830  1.0000
  H   H2492     1.0  0.85852  0.05055  0.60402  1.0000
  C   C3153     1.0  0.88845  0.20040  0.39714  1.0000
  C   C3154     1.0  0.91946  0.15893  0.57390  1.0000
  H   H2493     1.0  0.70774  0.13834  0.48876  1.0000
  C   C3155     1.0  0.79758  0.13013  0.55880  1.0000
  C   C3156     1.0  0.72819  0.11190  0.57085  1.0000
  H   H2494     1.0  0.77764  0.12812  0.58276  1.0000
  C   C3157     1.0  0.74068  0.14714  0.59874  1.0000
  H   H2495     1.0  0.88114  0.15275  0.49813  1.0000
  H   H2496     1.0  0.78083  0.05566  0.50259  1.0000
  H   H2497     1.0  0.91462  0.98494  0.59851  1.0000
  S   S454      1.0  0.98570  0.13820  0.52100  1.0000
  S   S455      1.0  0.99125  0.05083  0.52670  1.0000
  H   H2498     1.0  0.72637  0.98441  0.30948  1.0000
  H   H2499     1.0  0.71676  0.10159  0.62858  1.0000
  Fe  Fe235     1.0  0.97299  0.11682  0.52073  1.0000
  C   C3158     1.0  0.83057  0.00049  0.62383  1.0000
  C   C3159     1.0  0.76938  0.05478  0.58627  1.0000
  H   H2500     1.0  0.84470  0.20905  0.58302  1.0000
  S   S456      1.0  0.78197  0.04973  0.62369  1.0000
  H   H2501     1.0  0.71301  0.06711  0.44798  1.0000
  H   H2502     1.0  0.81948  0.13408  0.53693  1.0000
  C   C3160     1.0  0.72327  0.09090  0.47814  1.0000
  C   C3161     1.0  0.85369  0.02786  0.57587  1.0000
  H   H2503     1.0  0.88867  0.01365  0.50974  1.0000
  S   S457      1.0  0.78799  0.13917  0.31932  1.0000
  H   H2504     1.0  0.81199  0.99773  0.32166  1.0000
  S   S458      1.0  0.95126  0.08450  0.51051  1.0000
  C   C3162     1.0  0.69512  0.07357  0.61256  1.0000
  H   H2505     1.0  0.88536  0.21385  0.39858  1.0000
  C   C3163     1.0  0.97839  0.07458  0.43532  1.0000
  C   C3164     1.0  0.78825  0.00567  0.58909  1.0000
  C   C3165     1.0  0.78822  0.01661  0.57254  1.0000
  C   C3166     1.0  0.77863  0.01431  0.56181  1.0000
  C   C3167     1.0  0.76997  0.00044  0.56708  1.0000
  H   H2506     1.0  0.90643  0.19109  0.41465  1.0000
  C   C3168     1.0  0.71873  0.12953  0.53884  1.0000
  C   C3169     1.0  0.88316  0.13943  0.38491  1.0000
  H   H2507     1.0  0.73524  0.99558  0.46848  1.0000
  C   C3170     1.0  0.97417  0.08507  0.46160  1.0000
  Fe  Fe236     1.0  0.82078  0.14398  0.61704  1.0000
  H   H2508     1.0  0.76866  0.04123  0.58889  1.0000
  H   H2509     1.0  0.87143  0.20578  0.37918  1.0000
  H   H2510     1.0  0.77172  0.10297  0.58021  1.0000
  C   C3171     1.0  0.69741  0.08591  0.63542  1.0000
  C   C3172     1.0  0.75517  0.14198  0.47595  1.0000
  C   C3173     1.0  0.74209  0.11748  0.47858  1.0000
  H   H2511     1.0  0.86992  0.13937  0.34865  1.0000
  Fe  Fe237     1.0  0.97512  0.06175  0.40049  1.0000
  C   C3174     1.0  0.75375  0.06725  0.58980  1.0000
  H   H2512     1.0  0.73780  0.13112  0.49915  1.0000
  C   C3175     1.0  0.73379  0.99474  0.42736  1.0000
  H   H2513     1.0  0.64571  0.99663  0.32170  1.0000
  H   H2514     1.0  0.79551  0.02698  0.56797  1.0000
  H   H2515     1.0  0.77826  0.02301  0.54916  1.0000
  H   H2516     1.0  0.76337  0.99838  0.55821  1.0000
  H   H2517     1.0  0.67907  0.15139  0.50596  1.0000
  C   C3176     1.0  0.71377  0.09206  0.45197  1.0000
  C   C3177     1.0  0.89294  0.13343  0.42784  1.0000
  H   H2518     1.0  0.77286  0.14952  0.45130  1.0000
  H   H2519     1.0  0.79253  0.98845  0.39281  1.0000
  H   H2520     1.0  0.70351  0.00445  0.57701  1.0000
  H   H2521     1.0  0.96851  0.09371  0.41416  1.0000
  H   H2522     1.0  0.73043  0.99856  0.58844  1.0000
  C   C3178     1.0  0.81376  0.13500  0.55040  1.0000
  C   C3179     1.0  0.96999  0.09119  0.42738  1.0000
  C   C3180     1.0  0.79183  0.09116  0.63463  1.0000
  H   H2523     1.0  0.87110  0.13875  0.62448  1.0000
  H   H2524     1.0  0.71510  0.13642  0.52652  1.0000
  H   H2525     1.0  0.83337  0.07207  0.61702  1.0000
  C   C3181     1.0  0.88866  0.12794  0.57980  1.0000
  H   H2526     1.0  0.85810  0.98749  0.56850  1.0000
  H   H2527     1.0  0.66285  0.99328  0.46646  1.0000
  H   H2528     1.0  0.91758  0.19334  0.58118  1.0000
  S   S459      1.0  0.75733  0.01180  0.63005  1.0000
  C   C3182     1.0  0.71074  0.09402  0.62382  1.0000
  C   C3183     1.0  0.78074  0.06651  0.63388  1.0000
  C   C3184     1.0  0.94108  0.05549  0.32363  1.0000
  H   H2529     1.0  0.92512  0.08325  0.35281  1.0000
  H   H2530     1.0  0.78551  0.07299  0.33016  1.0000
  C   C3185     1.0  0.78576  0.05973  0.58024  1.0000
  H   H2531     1.0  0.74689  0.12377  0.52764  1.0000
  C   C3186     1.0  0.88060  0.19585  0.38622  1.0000
  C   C3187     1.0  0.74125  0.11360  0.55532  1.0000
  C   C3188     1.0  0.88475  0.11829  0.64226  1.0000
  C   C3189     1.0  0.85122  0.18082  0.58883  1.0000
  H   H2532     1.0  0.97221  0.08783  0.32126  1.0000
  C   C3190     1.0  0.71031  0.11917  0.57018  1.0000
  H   H2533     1.0  0.87836  0.17523  0.37584  1.0000
  C   C3191     1.0  0.70835  0.08174  0.60090  1.0000
  C   C3192     1.0  0.68157  0.10867  0.52728  1.0000
  C   C3193     1.0  0.80898  0.99105  0.40842  1.0000
  H   H2534     1.0  0.75943  0.12209  0.34230  1.0000
  C   C3194     1.0  0.71336  0.99240  0.57603  1.0000
  S   S460      1.0  0.75667  0.98827  0.49732  1.0000
  C   C3195     1.0  0.81945  0.00221  0.47849  1.0000
  C   C3196     1.0  0.79485  0.07058  0.31826  1.0000
  C   C3197     1.0  0.73655  0.12245  0.53943  1.0000
  H   H2535     1.0  0.81743  0.02747  0.62423  1.0000
  C   C3198     1.0  0.75452  0.09461  0.31992  1.0000
  C   C3199     1.0  0.74859  0.11132  0.61388  1.0000
  H   H2536     1.0  0.70002  0.11832  0.58201  1.0000
  C   C3200     1.0  0.87564  0.22552  0.59981  1.0000
  H   H2537     1.0  0.89238  0.99714  0.62249  1.0000
  C   C3201     1.0  0.73967  0.11716  0.60007  1.0000
  H   H2538     1.0  0.70277  0.08710  0.52078  1.0000
  C   C3202     1.0  0.88183  0.18388  0.56274  1.0000
  H   H2539     1.0  0.90862  0.16720  0.58107  1.0000
  C   C3203     1.0  0.71647  0.09182  0.60650  1.0000
  C   C3204     1.0  0.87783  0.06125  0.51588  1.0000
  C   C3205     1.0  0.89410  0.06599  0.50796  1.0000
  C   C3206     1.0  0.90541  0.06596  0.51822  1.0000
  C   C3207     1.0  0.90040  0.06139  0.53643  1.0000
  C   C3208     1.0  0.88396  0.05675  0.54453  1.0000
  C   C3209     1.0  0.87276  0.05665  0.53407  1.0000
  P   P107      1.0  0.87744  0.04974  0.56799  1.0000
  H   H2540     1.0  0.80043  0.07753  0.61344  1.0000
  H   H2541     1.0  0.96436  0.14636  0.56735  1.0000
  S   S461      1.0  0.73191  0.05027  0.63565  1.0000
  C   C3210     1.0  0.95370  0.13263  0.35045  1.0000
  C   C3211     1.0  0.84641  0.20952  0.63269  1.0000
  C   C3212     1.0  0.68440  0.13740  0.50933  1.0000
  H   H2542     1.0  0.93284  0.04800  0.59972  1.0000
  H   H2543     1.0  0.97585  0.08264  0.47480  1.0000
  H   H2544     1.0  0.90094  0.18453  0.61115  1.0000
  C   C3213     1.0  0.85881  0.06509  0.57740  1.0000
  C   C3214     1.0  0.85095  0.08028  0.56682  1.0000
  C   C3215     1.0  0.83672  0.09228  0.57419  1.0000
  C   C3216     1.0  0.83036  0.08934  0.59223  1.0000
  C   C3217     1.0  0.83825  0.07426  0.60298  1.0000
  C   C3218     1.0  0.85244  0.06213  0.59559  1.0000
  H   H2545     1.0  0.86900  0.06144  0.50792  1.0000
  H   H2546     1.0  0.89770  0.07021  0.49392  1.0000
  H   H2547     1.0  0.72916  0.14003  0.58170  1.0000
  C   C3219     1.0  0.89968  0.06434  0.57750  1.0000
  H   H2548     1.0  0.86002  0.05311  0.53997  1.0000
  H   H2549     1.0  0.71263  0.07974  0.58765  1.0000
  H   H2550     1.0  0.89300  0.07682  0.57068  1.0000
  C   C3220     1.0  0.81757  0.01381  0.63058  1.0000
  H   H2551     1.0  0.99001  0.15021  0.47777  1.0000
  Fe  Fe238     1.0  0.97614  0.07881  0.52019  1.0000
  H   H2552     1.0  0.81665  0.05879  0.33120  1.0000
  H   H2553     1.0  0.72876  0.11891  0.35746  1.0000
  H   H2554     1.0  0.85592  0.08298  0.55289  1.0000
  H   H2555     1.0  0.83074  0.10395  0.56586  1.0000
  H   H2556     1.0  0.81948  0.09891  0.59783  1.0000
  P   P108      1.0  0.72867  0.10196  0.49170  1.0000
  S   S462      1.0  0.95903  0.06419  0.35881  1.0000
  C   C3221     1.0  0.68038  0.06624  0.40422  1.0000
  C   C3222     1.0  0.69792  0.06200  0.39501  1.0000
  C   C3223     1.0  0.70733  0.04461  0.39754  1.0000
  C   C3224     1.0  0.69920  0.03142  0.40913  1.0000
  C   C3225     1.0  0.68158  0.03549  0.41832  1.0000
  C   C3226     1.0  0.67222  0.05305  0.41590  1.0000
  P   P109      1.0  0.67170  0.01807  0.43345  1.0000
  C   C3227     1.0  0.67735  0.00011  0.42245  1.0000
  C   C3228     1.0  0.67967  0.01189  0.45341  1.0000
  C   C3229     1.0  0.67260  0.99956  0.46761  1.0000
  C   C3230     1.0  0.89632  0.19738  0.60348  1.0000
  H   H2557     1.0  0.86347  0.98864  0.63340  1.0000
  C   C3231     1.0  0.69727  0.01594  0.47125  1.0000
  C   C3232     1.0  0.69205  0.02007  0.45537  1.0000
  C   C3233     1.0  0.67573  0.00359  0.40505  1.0000
  C   C3234     1.0  0.72784  0.10174  0.34194  1.0000
  C   C3235     1.0  0.67824  0.99511  0.48333  1.0000
  C   C3236     1.0  0.64790  0.02550  0.43936  1.0000
  C   C3237     1.0  0.64052  0.03555  0.45217  1.0000
  C   C3238     1.0  0.62214  0.04147  0.45692  1.0000
  C   C3239     1.0  0.61098  0.03739  0.44892  1.0000
  C   C3240     1.0  0.61819  0.02738  0.43618  1.0000
  C   C3241     1.0  0.63657  0.02143  0.43141  1.0000
  H   H2558     1.0  0.67311  0.07976  0.40223  1.0000
  H   H2559     1.0  0.70429  0.07210  0.38581  1.0000
  H   H2560     1.0  0.72093  0.04130  0.39035  1.0000
  H   H2561     1.0  0.70662  0.01798  0.41082  1.0000
  H   H2562     1.0  0.65866  0.05663  0.42287  1.0000
  H   H2563     1.0  0.90738  0.22214  0.56259  1.0000
  C   C3242     1.0  0.81248  0.06237  0.31892  1.0000
  H   H2564     1.0  0.92863  0.06238  0.33036  1.0000
  H   H2565     1.0  0.70696  0.02221  0.47257  1.0000
  H   H2566     1.0  0.69788  0.02955  0.44472  1.0000
  H   H2567     1.0  0.67067  0.01682  0.39839  1.0000
  C   C3243     1.0  0.69335  0.99717  0.30965  1.0000
  C   C3244     1.0  0.79190  0.07831  0.62612  1.0000
  H   H2568     1.0  0.64901  0.03889  0.45845  1.0000
  H   H2569     1.0  0.61657  0.04923  0.46679  1.0000
  H   H2570     1.0  0.59673  0.04200  0.45259  1.0000
  H   H2571     1.0  0.60953  0.02422  0.42998  1.0000
  H   H2572     1.0  0.64179  0.01367  0.42157  1.0000
  C   C3245     1.0  0.85357  0.13684  0.37462  1.0000
  C   C3246     1.0  0.85273  0.13585  0.39215  1.0000
  C   C3247     1.0  0.86746  0.13706  0.39731  1.0000
  C   C3248     1.0  0.90408  0.12888  0.41237  1.0000
  C   C3249     1.0  0.89603  0.12356  0.44413  1.0000
  C   C3250     1.0  0.91035  0.10922  0.44510  1.0000
  C   C3251     1.0  0.92111  0.10422  0.42984  1.0000
  C   C3252     1.0  0.91795  0.11395  0.41354  1.0000
  H   H2573     1.0  0.84225  0.13547  0.37077  1.0000
  H   H2574     1.0  0.84065  0.13397  0.40175  1.0000
  H   H2575     1.0  0.86647  0.13621  0.41097  1.0000
  H   H2576     1.0  0.91311  0.10204  0.45771  1.0000
  H   H2577     1.0  0.93210  0.09294  0.43056  1.0000
  H   H2578     1.0  0.92656  0.10984  0.40195  1.0000
  C   C3253     1.0  0.87922  0.02223  0.42197  1.0000
  C   C3254     1.0  0.89183  0.02475  0.40630  1.0000
  C   C3255     1.0  0.90399  0.03499  0.40412  1.0000
  C   C3256     1.0  0.90364  0.04258  0.41763  1.0000
  C   C3257     1.0  0.89119  0.03997  0.43350  1.0000
  C   C3258     1.0  0.87884  0.02986  0.43551  1.0000
  P   P110      1.0  0.89012  0.05111  0.45024  1.0000
  C   C3259     1.0  0.87948  0.03997  0.47134  1.0000
  C   C3260     1.0  0.91228  0.05097  0.45145  1.0000
  C   C3261     1.0  0.92647  0.03710  0.44716  1.0000
  C   C3262     1.0  0.94336  0.03627  0.44929  1.0000
  C   C3263     1.0  0.94615  0.04901  0.45607  1.0000
  C   C3264     1.0  0.93214  0.06277  0.46051  1.0000
  C   C3265     1.0  0.91525  0.06377  0.45818  1.0000
  C   C3266     1.0  0.88946  0.02940  0.48363  1.0000
  C   C3267     1.0  0.88097  0.02147  0.50018  1.0000
  C   C3268     1.0  0.86252  0.02385  0.50451  1.0000
  C   C3269     1.0  0.85253  0.03418  0.49231  1.0000
  C   C3270     1.0  0.86093  0.04233  0.47584  1.0000
  C   C3271     1.0  0.87682  0.07313  0.44565  1.0000
  C   C3272     1.0  0.87241  0.08037  0.42927  1.0000
  C   C3273     1.0  0.86025  0.09640  0.42651  1.0000
  C   C3274     1.0  0.85288  0.10562  0.43981  1.0000
  C   C3275     1.0  0.85745  0.09874  0.45599  1.0000
  C   C3276     1.0  0.86934  0.08256  0.45898  1.0000
  H   H2579     1.0  0.99033  0.99200  0.31924  1.0000
  H   H2580     1.0  0.73080  0.08454  0.32520  1.0000
  H   H2581     1.0  0.91359  0.03730  0.39188  1.0000
  H   H2582     1.0  0.91298  0.05071  0.41562  1.0000
  H   H2583     1.0  0.86884  0.02793  0.44741  1.0000
  H   H2584     1.0  0.92454  0.02683  0.44229  1.0000
  H   H2585     1.0  0.95439  0.02583  0.44559  1.0000
  H   H2586     1.0  0.95924  0.04822  0.45778  1.0000
  H   H2587     1.0  0.93450  0.07271  0.46561  1.0000
  H   H2588     1.0  0.90452  0.07442  0.46176  1.0000
  H   H2589     1.0  0.90376  0.02742  0.48065  1.0000
  S   S463      1.0  0.79390  0.98751  0.52133  1.0000
  H   H2590     1.0  0.85595  0.01792  0.51742  1.0000
  H   H2591     1.0  0.83820  0.03629  0.49574  1.0000
  H   H2592     1.0  0.85289  0.05069  0.46672  1.0000
  H   H2593     1.0  0.87810  0.07358  0.41867  1.0000
  H   H2594     1.0  0.85627  0.10162  0.41415  1.0000
  H   H2595     1.0  0.84346  0.11801  0.43767  1.0000
  H   H2596     1.0  0.85141  0.10584  0.46633  1.0000
  H   H2597     1.0  0.87232  0.07730  0.47181  1.0000
  C   C3277     1.0  0.70074  0.12997  0.49968  1.0000
  H   H2598     1.0  0.79797  0.05009  0.57776  1.0000
  C   C3278     1.0  0.92191  0.13903  0.37532  1.0000
  C   C3279     1.0  0.90003  0.21852  0.57588  1.0000
  H   H2599     1.0  0.67983  0.06884  0.63898  1.0000
  C   C3280     1.0  0.88454  0.01509  0.56506  1.0000
  H   H2600     1.0  0.74138  0.06296  0.59449  1.0000
  C   C3281     1.0  0.76408  0.14079  0.45885  1.0000
  H   H2601     1.0  0.89991  0.02066  0.58869  1.0000
  C   C3282     1.0  0.74251  0.08662  0.50569  1.0000
  Fe  Fe239     1.0  0.99509  0.13505  0.60911  1.0000
  C   C3283     1.0  0.75004  0.07423  0.53410  1.0000
  C   C3284     1.0  0.99523  0.13794  0.53799  1.0000
  C   C3285     1.0  0.68969  0.07560  0.62982  1.0000
  C   C3286     1.0  0.93410  0.14989  0.37096  1.0000
  C   C3287     1.0  0.96565  0.10164  0.45367  1.0000
  H   H2602     1.0  0.95935  0.15498  0.35530  1.0000
  H   H2603     1.0  0.88750  0.12714  0.45605  1.0000
  C   C3288     1.0  0.91725  0.03255  0.59520  1.0000
  C   C3289     1.0  0.98782  0.10589  0.32048  1.0000
  C   C3290     1.0  0.98812  0.05648  0.57224  1.0000
  C   C3291     1.0  0.86910  0.13922  0.36216  1.0000
  Fe  Fe240     1.0  0.94313  0.07168  0.38392  1.0000
  C   C3292     1.0  0.86940  0.15383  0.52505  1.0000
  C   C3293     1.0  0.85435  0.19742  0.57999  1.0000
  C   C3294     1.0  0.88929  0.98824  0.61660  1.0000
  H   H2604     1.0  0.89340  0.18519  0.55221  1.0000
  C   C3295     1.0  0.79927  0.13728  0.58537  1.0000
  C   C3296     1.0  0.88324  0.13340  0.62896  1.0000
  H   H2605     1.0  0.97537  0.99860  0.42474  1.0000
  C   C3297     1.0  0.86971  0.19895  0.56698  1.0000
  H   H2606     1.0  0.97532  0.02156  0.33227  1.0000
  H   H2607     1.0  0.93157  0.16076  0.37712  1.0000
  H   H2608     1.0  0.74712  0.07373  0.54798  1.0000
  H   H2609     1.0  0.82353  0.99760  0.42328  1.0000
  H   H2610     1.0  0.73803  0.16096  0.59260  1.0000
  H   H2611     1.0  0.76136  0.07628  0.48431  1.0000
  C   C3298     1.0  0.73887  0.08613  0.52366  1.0000
  C   C3299     1.0  0.86360  0.16573  0.58505  1.0000
  H   H2612     1.0  0.90261  0.09694  0.61396  1.0000
  C   C3300     1.0  0.74957  0.14122  0.61246  1.0000
  H   H2613     1.0  0.86138  0.15441  0.55221  1.0000
  H   H2614     1.0  0.87203  0.21179  0.55990  1.0000
  H   H2615     1.0  0.67415  0.10033  0.53786  1.0000
  C   C3301     1.0  0.90574  0.20221  0.58634  1.0000
  S   S464      1.0  0.86966  0.10077  0.33219  1.0000
  S   S465      1.0  0.96418  0.09414  0.54131  1.0000
  H   H2616     1.0  0.94701  0.03710  0.34707  1.0000
  C   C3302     1.0  0.72025  0.06433  0.47220  1.0000
  C   C3303     1.0  0.71539  0.07388  0.45655  1.0000
  H   H2617     1.0  0.91694  0.11613  0.37059  1.0000
  H   H2618     1.0  0.77522  0.01901  0.39074  1.0000
  C   C3304     1.0  0.75437  0.08480  0.58763  1.0000
  S   S466      1.0  0.97608  0.01358  0.37219  1.0000
  Fe  Fe241     1.0  0.95663  0.13515  0.62625  1.0000
  C   C3305     1.0  0.74424  0.13035  0.48580  1.0000
  C   C3306     1.0  0.90426  0.17023  0.40440  1.0000
  H   H2619     1.0  0.80802  0.16678  0.31061  1.0000
  C   C3307     1.0  0.88453  0.17848  0.38439  1.0000
  C   C3308     1.0  0.68149  0.99020  0.39578  1.0000
  H   H2620     1.0  0.71623  0.11467  0.45910  1.0000
  C   C3309     1.0  0.83993  0.19908  0.62591  1.0000
  H   H2621     1.0  0.75515  0.10833  0.55536  1.0000
  C   C3310     1.0  0.70560  0.12782  0.55419  1.0000
  H   H2622     1.0  0.86528  0.12871  0.57099  1.0000
  C   C3311     1.0  0.98382  0.20659  0.63840  1.0000
  C   C3312     1.0  0.88134  0.20917  0.61044  1.0000
  C   C3313     1.0  0.71749  0.10058  0.46283  1.0000
  C   C3314     1.0  0.88352  0.15258  0.51061  1.0000
  H   H2623     1.0  0.70985  0.09949  0.43989  1.0000
  C   C3315     1.0  0.95140  0.04122  0.33304  1.0000
  H   H2624     1.0  0.83486  0.14518  0.55272  1.0000
  C   C3316     1.0  0.98051  0.07156  0.45243  1.0000
  H   H2625     1.0  0.86957  0.01458  0.42350  1.0000
  C   C3317     1.0  0.90075  0.15091  0.51232  1.0000
  H   H2626     1.0  0.85601  0.15525  0.52370  1.0000
  H   H2627     1.0  0.91717  0.07622  0.58388  1.0000
  C   C3318     1.0  0.87159  0.02905  0.57094  1.0000
  H   H2628     1.0  0.88971  0.98947  0.55959  1.0000
  H   H2629     1.0  0.79513  0.00789  0.59769  1.0000
  H   H2630     1.0  0.75213  0.09743  0.61962  1.0000
  C   C3319     1.0  0.73585  0.11224  0.34694  1.0000
  C   C3320     1.0  0.76893  0.06378  0.50868  1.0000
  C   C3321     1.0  0.76229  0.12779  0.45171  1.0000
  C   C3322     1.0  0.90030  0.18760  0.40620  1.0000
  C   C3323     1.0  0.82212  0.16298  0.31032  1.0000
  H   H2631     1.0  0.96600  0.13011  0.34094  1.0000
  C   C3324     1.0  0.77089  0.08957  0.58192  1.0000
  H   H2632     1.0  0.89540  0.14319  0.35722  1.0000
  H   H2633     1.0  0.91736  0.14878  0.52943  1.0000
  H   H2634     1.0  0.77369  0.05383  0.53468  1.0000
  Fe  Fe242     1.0  0.96072  0.10812  0.49271  1.0000
  C   C3325     1.0  0.76494  0.06289  0.52664  1.0000
  H   H2635     1.0  0.93925  0.16619  0.58212  1.0000
  C   C3326     1.0  0.75780  0.07559  0.49825  1.0000
  C   C3327     1.0  0.94992  0.14668  0.35856  1.0000
  H   H2636     1.0  0.85762  0.10302  0.59261  1.0000
  H   H2637     1.0  0.91358  0.16047  0.41143  1.0000
  H   H2638     1.0  0.95702  0.11756  0.43040  1.0000
  C   C3328     1.0  0.88999  0.15009  0.54344  1.0000
  H   H2639     1.0  0.72151  0.05027  0.47567  1.0000
  S   S467      1.0  0.83591  0.15270  0.63136  1.0000
  H   H2640     1.0  0.72748  0.09477  0.52974  1.0000
  C   C3329     1.0  0.77041  0.98902  0.58337  1.0000
  S   S468      1.0  0.82637  0.15080  0.58755  1.0000
  C   C3330     1.0  0.95099  0.14687  0.56658  1.0000
  C   C3331     1.0  0.87380  0.12192  0.57999  1.0000
  S   S469      1.0  0.79469  0.15112  0.63542  1.0000
  H   H2641     1.0  0.84869  0.18762  0.62154  1.0000
  H   H2642     1.0  0.79357  0.13820  0.59883  1.0000
  C   C3332     1.0  0.91086  0.08697  0.35630  1.0000
  C   C3333     1.0  0.98604  0.99888  0.43030  1.0000
  H   H2643     1.0  0.90940  0.06174  0.54394  1.0000
  H   H2644     1.0  0.75709  0.15166  0.48169  1.0000
  H   H2645     1.0  0.79911  0.08110  0.57347  1.0000
  H   H2646     1.0  0.92833  0.12685  0.55140  1.0000
  C   C3334     1.0  0.88491  0.23014  0.58258  1.0000
  H   H2647     1.0  0.95885  0.12666  0.55203  1.0000
  C   C3335     1.0  0.89914  0.11858  0.59205  1.0000
  H   H2648     1.0  0.76977  0.12641  0.43869  1.0000
  C   C3336     1.0  0.93055  0.13614  0.55740  1.0000
  H   H2649     1.0  0.72778  0.06506  0.49517  1.0000
  C   C3337     1.0  0.94786  0.13573  0.55803  1.0000
  C   C3338     1.0  0.72401  0.07277  0.48309  1.0000
  C   C3339     1.0  0.75168  0.11593  0.46165  1.0000
  P   P111      1.0  0.73436  0.10138  0.59156  1.0000
  C   C3340     1.0  0.93679  0.15833  0.57466  1.0000
  H   H2650     1.0  0.97831  0.05586  0.56572  1.0000
  H   H2651     1.0  0.87601  0.08691  0.61437  1.0000
  C   C3341     1.0  0.79027  0.13152  0.57624  1.0000
  C   C3342     1.0  0.87258  0.15290  0.54131  1.0000
  C   C3343     1.0  0.76241  0.10528  0.32498  1.0000
  C   C3344     1.0  0.73569  0.13518  0.59258  1.0000
  H   H2652     1.0  0.67314  0.98528  0.49414  1.0000
  H   H2653     1.0  0.82190  0.99455  0.49107  1.0000
  H   H2654     1.0  0.82395  0.98685  0.59938  1.0000
  C   C3345     1.0  0.97300  0.19500  0.64055  1.0000
  C   C3346     1.0  0.81702  0.22854  0.63717  1.0000
  H   H2655     1.0  0.75378  0.15043  0.61700  1.0000
  H   H2656     1.0  0.99035  0.11296  0.55376  1.0000
  C   C3347     1.0  0.81055  0.21767  0.63100  1.0000
  H   H2657     1.0  0.79659  0.22039  0.63093  1.0000
  Fe  Fe243     1.0  0.75977  0.03587  0.63684  1.0000
  H   H2658     1.0  0.99447  0.20807  0.62694  1.0000
  S   S470      1.0  0.99379  0.05347  0.37681  1.0000
  H   H2659     1.0  0.99485  0.05464  0.31984  1.0000
  S   S471      1.0  0.99518  0.07401  0.64227  1.0000
  C   C3348     1.0  0.99526  0.99813  0.37695  1.0000
  C   C3349     1.0  0.99471  0.12047  0.31056  1.0000
  H   H2660     1.0  0.90417  0.18475  0.64027  1.0000
  Fe  Fe244     1.0  0.75755  0.98359  0.35371  1.0000
  H   H2661     1.0  0.83962  0.23341  0.64241  1.0000
  Fe  Fe245     1.0  0.52922  0.03396  0.74327  1.0000
  S   S472      1.0  0.53264  0.01122  0.76579  1.0000
  S   S473      1.0  0.54793  0.05232  0.73065  1.0000
  H   H2662     1.0  0.53262  0.02333  0.66595  1.0000
  H   H2663     1.0  0.75099  0.23015  0.73133  1.0000
  C   C3350     1.0  0.71270  0.09050  0.71864  1.0000
  H   H2664     1.0  0.84531  0.21438  0.82241  1.0000
  Fe  Fe246     1.0  0.52497  0.99660  0.75047  1.0000
  H   H2665     1.0  0.75892  0.17732  0.76593  1.0000
  H   H2666     1.0  0.82807  0.15454  0.68013  1.0000
  S   S474      1.0  0.52395  0.01864  0.72712  1.0000
  C   C3351     1.0  0.62017  0.05972  0.93036  1.0000
  Fe  Fe247     1.0  0.72604  0.03803  0.66410  1.0000
  Fe  Fe248     1.0  0.50317  0.01997  0.77490  1.0000
  S   S475      1.0  0.64291  0.00460  0.75926  1.0000
  H   H2667     1.0  0.93218  0.23244  0.66034  1.0000
  Fe  Fe249     1.0  0.64658  0.00996  0.80373  1.0000
  S   S476      1.0  0.65582  0.02779  0.77849  1.0000
  S   S477      1.0  0.65021  0.01376  0.82876  1.0000
  Fe  Fe250     1.0  0.63050  0.02758  0.77185  1.0000
  S   S478      1.0  0.61395  0.05242  0.75880  1.0000
  Fe  Fe251     1.0  0.66694  0.00296  0.76877  1.0000
  S   S479      1.0  0.69437  0.99607  0.75300  1.0000
  S   S480      1.0  0.62016  0.01181  0.79800  1.0000
  C   C3352     1.0  0.78685  0.17866  0.81027  1.0000
  C   C3353     1.0  0.69889  0.10499  0.78436  1.0000
  S   S481      1.0  0.50016  0.04387  0.75320  1.0000
  H   H2668     1.0  0.50880  0.12689  0.77590  1.0000
  Fe  Fe252     1.0  0.63646  0.12416  0.84204  1.0000
  H   H2669     1.0  0.55482  0.07068  0.88231  1.0000
  H   H2670     1.0  0.63447  0.04572  0.91004  1.0000
  P   P112      1.0  0.78873  0.10909  0.72520  1.0000
  S   S482      1.0  0.70644  0.05290  0.68323  1.0000
  H   H2671     1.0  0.56204  0.07121  0.85086  1.0000
  S   S483      1.0  0.64394  0.09591  0.85529  1.0000
  H   H2672     1.0  0.65665  0.05934  0.78950  1.0000
  Fe  Fe253     1.0  0.67078  0.09653  0.83766  1.0000
  S   S484      1.0  0.68711  0.07573  0.82255  1.0000
  H   H2673     1.0  0.51087  0.07636  0.76372  1.0000
  Fe  Fe254     1.0  0.63407  0.98857  0.78592  1.0000
  C   C3354     1.0  0.64597  0.10679  0.91559  1.0000
  C   C3355     1.0  0.64116  0.10054  0.93370  1.0000
  C   C3356     1.0  0.63684  0.11199  0.94510  1.0000
  C   C3357     1.0  0.63742  0.12967  0.93837  1.0000
  C   C3358     1.0  0.64250  0.13583  0.92031  1.0000
  C   C3359     1.0  0.64681  0.12441  0.90895  1.0000
  H   H2674     1.0  0.66025  0.99881  0.70184  1.0000
  C   C3360     1.0  0.70128  0.20937  0.94334  1.0000
  H   H2675     1.0  0.64308  0.14949  0.91508  1.0000
  H   H2676     1.0  0.65087  0.12927  0.89508  1.0000
  C   C3361     1.0  0.56816  0.04152  0.67477  1.0000
  C   C3362     1.0  0.93034  0.16904  0.68818  1.0000
  H   H2677     1.0  0.75557  0.11951  0.74963  1.0000
  C   C3363     1.0  0.56822  0.07089  0.87491  1.0000
  H   H2678     1.0  0.72013  0.10396  0.92929  1.0000
  H   H2679     1.0  0.56960  0.05353  0.81878  1.0000
  H   H2680     1.0  0.76283  0.17730  0.68686  1.0000
  C   C3364     1.0  0.86980  0.16390  0.76987  1.0000
  Fe  Fe255     1.0  0.74643  0.22167  0.87891  1.0000
  C   C3365     1.0  0.51954  0.04735  0.82635  1.0000
  C   C3366     1.0  0.71751  0.10256  0.91752  1.0000
  C   C3367     1.0  0.66068  0.03085  0.82686  1.0000
  C   C3368     1.0  0.67533  0.03405  0.81331  1.0000
  C   C3369     1.0  0.68361  0.04758  0.81233  1.0000
  C   C3370     1.0  0.67704  0.05825  0.82460  1.0000
  C   C3371     1.0  0.66258  0.05485  0.83825  1.0000
  C   C3372     1.0  0.65456  0.04110  0.83948  1.0000
  H   H2681     1.0  0.68035  0.02596  0.80374  1.0000
  H   H2682     1.0  0.69502  0.04991  0.80200  1.0000
  H   H2683     1.0  0.65773  0.06257  0.84807  1.0000
  H   H2684     1.0  0.64346  0.03853  0.85015  1.0000
  C   C3373     1.0  0.69771  0.01228  0.73401  1.0000
  C   C3374     1.0  0.71256  0.00882  0.72071  1.0000
  C   C3375     1.0  0.71516  0.02135  0.70512  1.0000
  C   C3376     1.0  0.70319  0.03757  0.70298  1.0000
  C   C3377     1.0  0.68849  0.04122  0.71643  1.0000
  C   C3378     1.0  0.68560  0.02844  0.73188  1.0000
  H   H2685     1.0  0.72192  0.99633  0.72235  1.0000
  H   H2686     1.0  0.72648  0.01840  0.69481  1.0000
  H   H2687     1.0  0.67924  0.05376  0.71479  1.0000
  H   H2688     1.0  0.67406  0.03114  0.74211  1.0000
  S   S485      1.0  0.81558  0.12943  0.66715  1.0000
  C   C3379     1.0  0.77124  0.13038  0.87313  1.0000
  C   C3380     1.0  0.51179  0.09530  0.79585  1.0000
  C   C3381     1.0  0.53638  0.14982  0.89522  1.0000
  H   H2689     1.0  0.52149  0.10924  0.91729  1.0000
  C   C3382     1.0  0.67125  0.15446  0.95223  1.0000
  H   H2690     1.0  0.57681  0.98955  0.70972  1.0000
  H   H2691     1.0  0.58345  0.20106  0.84220  1.0000
  H   H2692     1.0  0.63062  0.08833  0.70968  1.0000
  H   H2693     1.0  0.52576  0.00625  0.69628  1.0000
  C   C3383     1.0  0.84706  0.10200  0.75500  1.0000
  Fe  Fe256     1.0  0.99062  0.20920  0.74047  1.0000
  H   H2694     1.0  0.73079  0.07944  0.84970  1.0000
  H   H2695     1.0  0.60520  0.18485  0.95676  1.0000
  C   C3384     1.0  0.76897  0.06799  0.64988  1.0000
  C   C3385     1.0  0.95656  0.17236  0.73902  1.0000
  H   H2696     1.0  0.85146  0.17504  0.65195  1.0000
  H   H2697     1.0  0.69357  0.13294  0.86773  1.0000
  H   H2698     1.0  0.57650  0.14997  0.87152  1.0000
  H   H2699     1.0  0.60363  0.11514  0.86591  1.0000
  C   C3386     1.0  0.56593  0.05151  0.73948  1.0000
  C   C3387     1.0  0.57138  0.03792  0.75312  1.0000
  C   C3388     1.0  0.58603  0.03802  0.75946  1.0000
  C   C3389     1.0  0.59516  0.05170  0.75212  1.0000
  C   C3390     1.0  0.58937  0.06535  0.73883  1.0000
  C   C3391     1.0  0.57502  0.06515  0.73241  1.0000
  H   H2700     1.0  0.56437  0.02738  0.75876  1.0000
  H   H2701     1.0  0.59022  0.02760  0.77000  1.0000
  H   H2702     1.0  0.59615  0.07607  0.73331  1.0000
  H   H2703     1.0  0.57085  0.07572  0.72197  1.0000
  H   H2704     1.0  0.52712  0.02134  0.79759  1.0000
  H   H2705     1.0  0.57570  0.10668  0.88413  1.0000
  C   C3392     1.0  0.59260  0.12802  0.84333  1.0000
  C   C3393     1.0  0.64633  0.06817  0.79652  1.0000
  C   C3394     1.0  0.56116  0.11762  0.86381  1.0000
  H   H2706     1.0  0.55149  0.06608  0.79192  1.0000
  C   C3395     1.0  0.83740  0.11479  0.76457  1.0000
  Fe  Fe257     1.0  0.85003  0.20754  0.72173  1.0000
  H   H2707     1.0  0.96831  0.21981  0.78828  1.0000
  H   H2708     1.0  0.53991  0.06012  0.76950  1.0000
  C   C3396     1.0  0.73230  0.10537  0.68631  1.0000
  H   H2709     1.0  0.51404  0.02019  0.85853  1.0000
  C   C3397     1.0  0.85809  0.23281  0.82585  1.0000
  C   C3398     1.0  0.75869  0.04125  0.88860  1.0000
  C   C3399     1.0  0.76903  0.03495  0.87385  1.0000
  C   C3400     1.0  0.77257  0.04665  0.85781  1.0000
  H   H2710     1.0  0.71924  0.13847  0.92722  1.0000
  H   H2711     1.0  0.77425  0.02097  0.87487  1.0000
  H   H2712     1.0  0.78056  0.04173  0.84639  1.0000
  H   H2713     1.0  0.86007  0.15715  0.75137  1.0000
  H   H2714     1.0  0.70327  0.21195  0.79075  1.0000
  C   C3401     1.0  0.69016  0.19881  0.94352  1.0000
  C   C3402     1.0  0.74231  0.16036  0.76658  1.0000
  C   C3403     1.0  0.60026  0.03390  0.68554  1.0000
  C   C3404     1.0  0.55841  0.00659  0.65939  1.0000
  H   H2715     1.0  0.68754  0.00338  0.70635  1.0000
  H   H2716     1.0  0.74007  0.11092  0.67384  1.0000
  H   H2717     1.0  0.80816  0.09897  0.86372  1.0000
  H   H2718     1.0  0.81087  0.21942  0.85741  1.0000
  H   H2719     1.0  0.81413  0.13225  0.70761  1.0000
  H   H2720     1.0  0.68912  0.10624  0.92741  1.0000
  H   H2721     1.0  0.67706  0.10728  0.71911  1.0000
  C   C3405     1.0  0.71090  0.08768  0.70307  1.0000
  Fe  Fe258     1.0  0.67099  0.13241  0.84323  1.0000
  C   C3406     1.0  0.60831  0.04041  0.92107  1.0000
  H   H2722     1.0  0.89362  0.13486  0.66987  1.0000
  H   H2723     1.0  0.93167  0.16425  0.74755  1.0000
  C   C3407     1.0  0.79283  0.10232  0.77575  1.0000
  C   C3408     1.0  0.81244  0.10484  0.71653  1.0000
  H   H2724     1.0  0.71734  0.09222  0.82413  1.0000
  H   H2725     1.0  0.74358  0.11582  0.70112  1.0000
  C   C3409     1.0  0.60632  0.03385  0.83572  1.0000
  H   H2726     1.0  0.74491  0.09884  0.90434  1.0000
  C   C3410     1.0  0.60272  0.07180  0.85562  1.0000
  H   H2727     1.0  0.75589  0.03216  0.90103  1.0000
  C   C3411     1.0  0.57742  0.13231  0.83637  1.0000
  C   C3412     1.0  0.69687  0.10157  0.90139  1.0000
  Fe  Fe259     1.0  0.52214  0.10400  0.86704  1.0000
  C   C3413     1.0  0.73090  0.09299  0.84318  1.0000
  H   H2728     1.0  0.59273  0.15645  0.95282  1.0000
  H   H2729     1.0  0.87593  0.17136  0.79046  1.0000
  C   C3414     1.0  0.80863  0.14099  0.78781  1.0000
  H   H2730     1.0  0.81584  0.07655  0.72382  1.0000
  C   C3415     1.0  0.75402  0.14556  0.93589  1.0000
  C   C3416     1.0  0.66768  0.07101  0.74980  1.0000
  H   H2731     1.0  0.68798  0.18808  0.95459  1.0000
  C   C3417     1.0  0.68625  0.11216  0.77410  1.0000
  C   C3418     1.0  0.66959  0.09782  0.72780  1.0000
  H   H2732     1.0  0.53509  0.05120  0.96223  1.0000
  H   H2733     1.0  0.84791  0.08821  0.76106  1.0000
  C   C3419     1.0  0.86529  0.17086  0.65250  1.0000
  C   C3420     1.0  0.57260  0.09403  0.78306  1.0000
  H   H2734     1.0  0.56361  0.19279  0.89767  1.0000
  H   H2735     1.0  0.55983  0.06125  0.92596  1.0000
  H   H2736     1.0  0.91601  0.21624  0.71622  1.0000
  C   C3421     1.0  0.73649  0.12126  0.84159  1.0000
  H   H2737     1.0  0.77104  0.12218  0.94718  1.0000
  S   S486      1.0  0.73699  0.20050  0.90116  1.0000
  C   C3422     1.0  0.55327  0.07641  0.94584  1.0000
  H   H2738     1.0  0.73153  0.00688  0.75621  1.0000
  H   H2739     1.0  0.60128  0.14527  0.89224  1.0000
  C   C3423     1.0  0.79933  0.18196  0.73146  1.0000
  H   H2740     1.0  0.53252  0.15222  0.93716  1.0000
  C   C3424     1.0  0.82122  0.11872  0.70845  1.0000
  H   H2741     1.0  0.88575  0.23128  0.77888  1.0000
  C   C3425     1.0  0.92606  0.22233  0.68833  1.0000
  H   H2742     1.0  0.96989  0.19932  0.70043  1.0000
  C   C3426     1.0  0.78061  0.09213  0.65102  1.0000
  C   C3427     1.0  0.85523  0.12469  0.72997  1.0000
  Fe  Fe260     1.0  0.51614  0.07818  0.84930  1.0000
  H   H2743     1.0  0.61178  0.08928  0.90524  1.0000
  H   H2744     1.0  0.60968  0.09977  0.82214  1.0000
  C   C3428     1.0  0.71411  0.02912  0.76593  1.0000
  H   H2745     1.0  0.59198  0.07067  0.79008  1.0000
  C   C3429     1.0  0.56864  0.03476  0.69236  1.0000
  S   S487      1.0  0.77460  0.21358  0.88192  1.0000
  C   C3430     1.0  0.70055  0.09029  0.75646  1.0000
  H   H2746     1.0  0.90247  0.09906  0.65726  1.0000
  Fe  Fe261     1.0  0.77801  0.19668  0.86312  1.0000
  H   H2747     1.0  0.71954  0.09243  0.67506  1.0000
  C   C3431     1.0  0.82677  0.16678  0.68364  1.0000
  S   S488      1.0  0.84748  0.20350  0.75048  1.0000
  H   H2748     1.0  0.57590  0.09522  0.95703  1.0000
  H   H2749     1.0  0.60605  0.00248  0.75562  1.0000
  C   C3432     1.0  0.60418  0.06353  0.94239  1.0000
  C   C3433     1.0  0.64522  0.20132  0.95909  1.0000
  C   C3434     1.0  0.87815  0.23179  0.79203  1.0000
  C   C3435     1.0  0.91841  0.15842  0.69078  1.0000
  C   C3436     1.0  0.96144  0.19159  0.71038  1.0000
  C   C3437     1.0  0.76606  0.11467  0.75683  1.0000
  C   C3438     1.0  0.55913  0.11148  0.80496  1.0000
  C   C3439     1.0  0.53838  0.00228  0.68767  1.0000
  H   H2750     1.0  0.83097  0.11057  0.77801  1.0000
  C   C3440     1.0  0.84866  0.09800  0.70051  1.0000
  C   C3441     1.0  0.57554  0.16357  0.87129  1.0000
  H   H2751     1.0  0.58827  0.99916  0.84026  1.0000
  C   C3442     1.0  0.72629  0.02091  0.75315  1.0000
  C   C3443     1.0  0.67789  0.08281  0.73850  1.0000
  S   S489      1.0  0.53142  0.05576  0.83613  1.0000
  S   S490      1.0  0.80340  0.19143  0.84307  1.0000
  C   C3444     1.0  0.83730  0.16778  0.69432  1.0000
  C   C3445     1.0  0.60423  0.01653  0.84025  1.0000
  C   C3446     1.0  0.59424  0.04733  0.82748  1.0000
  H   H2752     1.0  0.78595  0.15501  0.77635  1.0000
  C   C3447     1.0  0.69782  0.13155  0.94870  1.0000
  H   H2753     1.0  0.73072  0.22669  0.95177  1.0000
  C   C3448     1.0  0.76714  0.08456  0.73363  1.0000
  H   H2754     1.0  0.64497  0.11274  0.72060  1.0000
  C   C3449     1.0  0.57293  0.11836  0.91558  1.0000
  C   C3450     1.0  0.69310  0.22745  0.82776  1.0000
  H   H2755     1.0  0.74825  0.11811  0.78145  1.0000
  H   H2756     1.0  0.79906  0.12874  0.87014  1.0000
  H   H2757     1.0  0.77194  0.10705  0.79819  1.0000
  C   C3451     1.0  0.79425  0.10545  0.86604  1.0000
  C   C3452     1.0  0.66355  0.17831  0.88500  1.0000
  C   C3453     1.0  0.62870  0.07703  0.70648  1.0000
  C   C3454     1.0  0.61741  0.07928  0.69539  1.0000
  C   C3455     1.0  0.81478  0.18166  0.67725  1.0000
  H   H2758     1.0  0.84574  0.12597  0.69320  1.0000
  H   H2759     1.0  0.77587  0.12169  0.69235  1.0000
  C   C3456     1.0  0.68184  0.20210  0.92957  1.0000
  H   H2760     1.0  0.49866  0.99073  0.72713  1.0000
  C   C3457     1.0  0.49592  0.13515  0.77477  1.0000
  H   H2761     1.0  0.69766  0.11004  0.79572  1.0000
  H   H2762     1.0  0.72194  0.08482  0.78893  1.0000
  C   C3458     1.0  0.75863  0.13164  0.94949  1.0000
  H   H2763     1.0  0.82789  0.12518  0.80310  1.0000
  C   C3459     1.0  0.81020  0.18505  0.75995  1.0000
  S   S491      1.0  0.52278  0.10481  0.83928  1.0000
  C   C3460     1.0  0.57622  0.11372  0.87077  1.0000
  C   C3461     1.0  0.73470  0.18074  0.78577  1.0000
  C   C3462     1.0  0.76686  0.16429  0.69463  1.0000
  H   H2764     1.0  0.50389  0.10470  0.80374  1.0000
  C   C3463     1.0  0.76397  0.16657  0.83281  1.0000
  C   C3464     1.0  0.72452  0.10073  0.71788  1.0000
  Fe  Fe262     1.0  0.84020  0.12473  0.64621  1.0000
  H   H2765     1.0  0.79590  0.18092  0.71992  1.0000
  C   C3465     1.0  0.57951  0.19240  0.85462  1.0000
  Fe  Fe263     1.0  0.74932  0.00242  0.65915  1.0000
  C   C3466     1.0  0.66262  0.19043  0.90941  1.0000
  C   C3467     1.0  0.57069  0.99165  0.66534  1.0000
  H   H2766     1.0  0.53344  0.08824  0.80894  1.0000
  C   C3468     1.0  0.62333  0.04770  0.69854  1.0000
  C   C3469     1.0  0.82000  0.20411  0.80978  1.0000
  C   C3470     1.0  0.73426  0.10814  0.70174  1.0000
  C   C3471     1.0  0.52887  0.03675  0.81437  1.0000
  C   C3472     1.0  0.62995  0.06367  0.80480  1.0000
  C   C3473     1.0  0.92014  0.18995  0.77402  1.0000
  C   C3474     1.0  0.92438  0.18734  0.68575  1.0000
  C   C3475     1.0  0.94096  0.21768  0.79606  1.0000
  S   S492      1.0  0.78039  0.10784  0.66218  1.0000
  H   H2767     1.0  0.70804  0.09678  0.87572  1.0000
  C   C3476     1.0  0.84026  0.08410  0.70934  1.0000
  C   C3477     1.0  0.85052  0.16410  0.79842  1.0000
  H   H2768     1.0  0.58189  0.03754  0.93428  1.0000
  P   P113      1.0  0.56340  0.15493  0.90742  1.0000
  C   C3478     1.0  0.76709  0.06714  0.71388  1.0000
  C   C3479     1.0  0.68792  0.99174  0.70213  1.0000
  C   C3480     1.0  0.56943  0.16982  0.88680  1.0000
  C   C3481     1.0  0.83601  0.18367  0.69870  1.0000
  C   C3482     1.0  0.59238  0.04399  0.93323  1.0000
  H   H2769     1.0  0.83191  0.19537  0.81329  1.0000
  H   H2770     1.0  0.74067  0.12992  0.84682  1.0000
  H   H2771     1.0  0.84512  0.15114  0.73320  1.0000
  H   H2772     1.0  0.59092  0.14603  0.92811  1.0000
  H   H2773     1.0  0.55004  0.12295  0.80908  1.0000
  H   H2774     1.0  0.80318  0.09758  0.78310  1.0000
  S   S493      1.0  0.89009  0.20151  0.76170  1.0000
  C   C3483     1.0  0.55284  0.18210  0.94603  1.0000
  H   H2775     1.0  0.86373  0.09706  0.73038  1.0000
  C   C3484     1.0  0.73767  0.10345  0.84976  1.0000
  H   H2776     1.0  0.76199  0.08788  0.74627  1.0000
  C   C3485     1.0  0.61982  0.01080  0.71122  1.0000
  C   C3486     1.0  0.96692  0.18277  0.72595  1.0000
  C   C3487     1.0  0.80432  0.99206  0.65346  1.0000
  C   C3488     1.0  0.51937  0.14745  0.89681  1.0000
  H   H2777     1.0  0.76716  0.14319  0.87630  1.0000
  H   H2778     1.0  0.69717  0.05316  0.77183  1.0000
  H   H2779     1.0  0.94626  0.22303  0.74020  1.0000
  C   C3489     1.0  0.71563  0.16146  0.87195  1.0000
  C   C3490     1.0  0.55214  0.07305  0.93024  1.0000
  H   H2780     1.0  0.84671  0.15624  0.69899  1.0000
  C   C3491     1.0  0.51558  0.07946  0.77345  1.0000
  C   C3492     1.0  0.76185  0.18117  0.96230  1.0000
  H   H2781     1.0  0.76195  0.05751  0.71096  1.0000
  C   C3493     1.0  0.72887  0.12841  0.82702  1.0000
  H   H2782     1.0  0.82554  0.15757  0.80244  1.0000
  H   H2783     1.0  0.76853  0.07359  0.84397  1.0000
  H   H2784     1.0  0.57779  0.13972  0.82309  1.0000
  C   C3494     1.0  0.54436  0.03982  0.96752  1.0000
  S   S494      1.0  0.72042  0.01412  0.66030  1.0000
  Fe  Fe264     1.0  0.80181  0.12324  0.64991  1.0000
  C   C3495     1.0  0.61474  0.06468  0.69139  1.0000
  H   H2785     1.0  0.64158  0.03263  0.71531  1.0000
  H   H2786     1.0  0.70113  0.18271  0.83462  1.0000
  H   H2787     1.0  0.74455  0.12851  0.87580  1.0000
  C   C3496     1.0  0.78012  0.07486  0.70138  1.0000
  H   H2788     1.0  0.70218  0.07947  0.70339  1.0000
  H   H2789     1.0  0.79662  0.09339  0.69488  1.0000
  H   H2790     1.0  0.81027  0.15445  0.73853  1.0000
  S   S495      1.0  0.64398  0.13458  0.86116  1.0000
  C   C3497     1.0  0.64715  0.20789  0.88644  1.0000
  C   C3498     1.0  0.63202  0.18752  0.94465  1.0000
  H   H2791     1.0  0.58437  0.02633  0.71159  1.0000
  C   C3499     1.0  0.70438  0.22321  0.92909  1.0000
  H   H2792     1.0  0.75963  0.15916  0.84586  1.0000
  H   H2793     1.0  0.74927  0.21222  0.92773  1.0000
  C   C3500     1.0  0.63819  0.01243  0.66453  1.0000
  H   H2794     1.0  0.65699  0.03629  0.67997  1.0000
  C   C3501     1.0  0.50705  0.14735  0.91270  1.0000
  C   C3502     1.0  0.63951  0.02280  0.67513  1.0000
  Fe  Fe265     1.0  0.74345  0.18419  0.88119  1.0000
  S   S496      1.0  0.72855  0.16274  0.88565  1.0000
  C   C3503     1.0  0.50124  0.03267  0.81115  1.0000
  H   H2795     1.0  0.72298  0.14506  0.77016  1.0000
  C   C3504     1.0  0.75839  0.12199  0.87281  1.0000
  C   C3505     1.0  0.58491  0.10223  0.91505  1.0000
  C   C3506     1.0  0.92329  0.22656  0.79653  1.0000
  H   H2796     1.0  0.64937  0.19529  0.86565  1.0000
  H   H2797     1.0  0.60591  0.06671  0.68282  1.0000
  C   C3507     1.0  0.76904  0.08064  0.65850  1.0000
  H   H2798     1.0  0.61633  0.07149  0.84860  1.0000
  C   C3508     1.0  0.57761  0.02598  0.82879  1.0000
  P   P114      1.0  0.93856  0.20031  0.68734  1.0000
  H   H2799     1.0  0.67691  0.11047  0.75265  1.0000
  H   H2800     1.0  0.70310  0.16871  0.91785  1.0000
  C   C3509     1.0  0.66822  0.01336  0.64815  1.0000
  C   C3510     1.0  0.78943  0.22714  0.80082  1.0000
  C   C3511     1.0  0.95459  0.22688  0.78930  1.0000
  S   S497      1.0  0.63188  0.14461  0.95194  1.0000
  H   H2801     1.0  0.76024  0.08134  0.67109  1.0000
  C   C3512     1.0  0.72213  0.11794  0.82061  1.0000
  C   C3513     1.0  0.50101  0.05059  0.83069  1.0000
  C   C3514     1.0  0.72420  0.21330  0.82126  1.0000
  H   H2802     1.0  0.79019  0.21006  0.72689  1.0000
  C   C3515     1.0  0.77524  0.10773  0.78425  1.0000
  C   C3516     1.0  0.82224  0.08748  0.71744  1.0000
  H   H2803     1.0  0.92157  0.17993  0.72051  1.0000
  H   H2804     1.0  0.50509  0.15867  0.77127  1.0000
  C   C3517     1.0  0.75697  0.18529  0.80564  1.0000
  C   C3518     1.0  0.64947  0.07444  0.75085  1.0000
  P   P115      1.0  0.74047  0.19710  0.79302  1.0000
  H   H2805     1.0  0.56703  0.99144  0.78158  1.0000
  C   C3519     1.0  0.59645  0.13337  0.89855  1.0000
  C   C3520     1.0  0.71350  0.08350  0.76655  1.0000
  H   H2806     1.0  0.54210  0.19191  0.95138  1.0000
  S   S498      1.0  0.97011  0.19702  0.76191  1.0000
  S   S499      1.0  0.80150  0.18047  0.66380  1.0000
  C   C3521     1.0  0.52893  0.15148  0.92561  1.0000
  C   C3522     1.0  0.72733  0.15695  0.95561  1.0000
  C   C3523     1.0  0.67926  0.16591  0.93780  1.0000
  H   H2807     1.0  0.51592  0.14525  0.88577  1.0000
  H   H2808     1.0  0.67789  0.22775  0.80969  1.0000
  C   C3524     1.0  0.53054  0.10305  0.94125  1.0000
  H   H2809     1.0  0.63007  0.99065  0.69620  1.0000
  H   H2810     1.0  0.82279  0.21092  0.69575  1.0000
  C   C3525     1.0  0.59962  0.04098  0.66790  1.0000
  S   S500      1.0  0.75028  0.20615  0.85849  1.0000
  H   H2811     1.0  0.52178  0.11444  0.94566  1.0000
  S   S501      1.0  0.51810  0.07637  0.87659  1.0000
  H   H2812     1.0  0.58300  0.98773  0.65639  1.0000
  S   S502      1.0  0.54172  0.11133  0.87749  1.0000
  C   C3526     1.0  0.69893  0.14452  0.86470  1.0000
  C   C3527     1.0  0.71287  0.17452  0.85711  1.0000
  H   H2813     1.0  0.84785  0.16643  0.81144  1.0000
  C   C3528     1.0  0.74614  0.21576  0.75811  1.0000
  C   C3529     1.0  0.58363  0.04468  0.66254  1.0000
  C   C3530     1.0  0.65251  0.00773  0.65111  1.0000
  C   C3531     1.0  0.91638  0.22636  0.70438  1.0000
  C   C3532     1.0  0.94017  0.17151  0.73699  1.0000
  C   C3533     1.0  0.78869  0.21680  0.81778  1.0000
  C   C3534     1.0  0.70333  0.17248  0.84598  1.0000
  H   H2814     1.0  0.70490  0.11830  0.95296  1.0000
  Fe  Fe266     1.0  0.76558  0.19120  0.90257  1.0000
  C   C3535     1.0  0.72189  0.20889  0.80667  1.0000
  C   C3536     1.0  0.78917  0.12218  0.86970  1.0000
  H   H2815     1.0  0.57239  0.21249  0.86939  1.0000
  H   H2816     1.0  0.79435  0.01998  0.65052  1.0000
  C   C3537     1.0  0.90073  0.15928  0.65520  1.0000
  C   C3538     1.0  0.78147  0.16870  0.82695  1.0000
  H   H2817     1.0  0.73707  0.20977  0.82456  1.0000
  H   H2818     1.0  0.73835  0.17288  0.82674  1.0000
  C   C3539     1.0  0.88892  0.14813  0.66309  1.0000
  C   C3540     1.0  0.54120  0.15228  0.90952  1.0000
  C   C3541     1.0  0.77467  0.18700  0.79963  1.0000
  C   C3542     1.0  0.76835  0.14953  0.68833  1.0000
  H   H2819     1.0  0.99006  0.22433  0.64997  1.0000
  H   H2820     1.0  0.55004  0.13040  0.84120  1.0000
  C   C3543     1.0  0.54191  0.09128  0.95155  1.0000
  H   H2821     1.0  0.81450  0.18661  0.77078  1.0000
  C   C3544     1.0  0.60825  0.11725  0.89799  1.0000
  S   S503      1.0  0.87494  0.21769  0.71522  1.0000
  C   C3545     1.0  0.94542  0.19011  0.70783  1.0000
  C   C3546     1.0  0.58130  0.16208  0.94691  1.0000
  C   C3547     1.0  0.59201  0.11851  0.86048  1.0000
  H   H2822     1.0  0.54319  0.03424  0.81084  1.0000
  C   C3548     1.0  0.71257  0.09075  0.78053  1.0000
  C   C3549     1.0  0.77755  0.14555  0.72003  1.0000
  C   C3550     1.0  0.91180  0.20259  0.76160  1.0000
  H   H2823     1.0  0.77359  0.12419  0.82825  1.0000
  C   C3551     1.0  0.80137  0.12324  0.81709  1.0000
  H   H2824     1.0  0.57799  0.07097  0.89689  1.0000
  C   C3552     1.0  0.57331  0.19881  0.86994  1.0000
  H   H2825     1.0  0.96591  0.22102  0.67605  1.0000
  C   C3553     1.0  0.84544  0.13748  0.73943  1.0000
  P   P116      1.0  0.59536  0.06976  0.82485  1.0000
  C   C3554     1.0  0.53222  0.07018  0.77661  1.0000
  C   C3555     1.0  0.84131  0.15577  0.77641  1.0000
  C   C3556     1.0  0.54079  0.08491  0.92000  1.0000
  H   H2826     1.0  0.63882  0.10711  0.80821  1.0000
  C   C3557     1.0  0.53876  0.07358  0.78918  1.0000
  C   C3558     1.0  0.54224  0.01186  0.67054  1.0000
  C   C3559     1.0  0.58130  0.07092  0.88314  1.0000
  C   C3560     1.0  0.50528  0.09229  0.78290  1.0000
  C   C3561     1.0  0.61675  0.07484  0.81437  1.0000
  C   C3562     1.0  0.58953  0.07215  0.84716  1.0000
  S   S504      1.0  0.65099  0.09247  0.90136  1.0000
  Fe  Fe267     1.0  0.65403  0.10606  0.87282  1.0000
  H   H2827     1.0  0.61382  0.00620  0.84640  1.0000
  H   H2828     1.0  0.78564  0.08397  0.86306  1.0000
  H   H2829     1.0  0.58318  0.05023  0.64894  1.0000
  H   H2830     1.0  0.49615  0.12299  0.74278  1.0000
  C   C3563     1.0  0.51975  0.02959  0.80666  1.0000
  C   C3564     1.0  0.52854  0.08610  0.79880  1.0000
  C   C3565     1.0  0.58988  0.01257  0.83677  1.0000
  H   H2831     1.0  0.64067  0.08688  0.93893  1.0000
  C   C3566     1.0  0.77791  0.13995  0.80207  1.0000
  C   C3567     1.0  0.72070  0.09504  0.68698  1.0000
  C   C3568     1.0  0.59854  0.07140  0.87350  1.0000
  C   C3569     1.0  0.57228  0.07152  0.85698  1.0000
  H   H2832     1.0  0.60867  0.07156  0.87983  1.0000
  H   H2833     1.0  0.61716  0.03683  0.83900  1.0000
  S   S505      1.0  0.68153  0.10464  0.85610  1.0000
  C   C3570     1.0  0.86640  0.16672  0.78670  1.0000
  C   C3571     1.0  0.70587  0.14286  0.93431  1.0000
  C   C3572     1.0  0.58064  0.17477  0.85531  1.0000
  H   H2834     1.0  0.56778  0.10159  0.82916  1.0000
  C   C3573     1.0  0.56082  0.10881  0.78833  1.0000
  C   C3574     1.0  0.81326  0.19756  0.68178  1.0000
  C   C3575     1.0  0.56910  0.09932  0.81640  1.0000
  H   H2835     1.0  0.53991  0.08234  0.90799  1.0000
  H   H2836     1.0  0.72688  0.05552  0.71856  1.0000
  H   H2837     1.0  0.62770  0.05146  0.80384  1.0000
  C   C3576     1.0  0.63637  0.09506  0.80706  1.0000
  C   C3577     1.0  0.58081  0.08441  0.81126  1.0000
  H   H2838     1.0  0.71008  0.02146  0.77895  1.0000
  H   H2839     1.0  0.58553  0.16965  0.84349  1.0000
  H   H2840     1.0  0.55927  0.11861  0.92237  1.0000
  C   C3578     1.0  0.79623  0.19841  0.73529  1.0000
  H   H2841     1.0  0.92300  0.14429  0.69310  1.0000
  H   H2842     1.0  0.62184  0.11685  0.89106  1.0000
  H   H2843     1.0  0.97913  0.18416  0.72808  1.0000
  H   H2844     1.0  0.81073  0.09842  0.75150  1.0000
  S   S506      1.0  0.66275  0.12420  0.82307  1.0000
  C   C3579     1.0  0.83640  0.13269  0.75682  1.0000
  S   S507      1.0  0.75426  0.02535  0.66575  1.0000
  C   C3580     1.0  0.61989  0.09077  0.81510  1.0000
  H   H2845     1.0  0.56622  0.02304  0.82651  1.0000
  H   H2846     1.0  0.63298  0.10718  0.95905  1.0000
  C   C3581     1.0  0.64963  0.08370  0.79784  1.0000
  C   C3582     1.0  0.58266  0.08193  0.79444  1.0000
  H   H2847     1.0  0.66258  0.08674  0.79204  1.0000
  C   C3583     1.0  0.56173  0.12703  0.84657  1.0000
  C   C3584     1.0  0.57972  0.04330  0.82421  1.0000
  H   H2848     1.0  0.57395  0.09185  0.77020  1.0000
  C   C3585     1.0  0.77911  0.13061  0.71375  1.0000
  H   H2849     1.0  0.60989  0.03151  0.91274  1.0000
  H   H2850     1.0  0.60818  0.02727  0.73007  1.0000
  C   C3586     1.0  0.78364  0.10880  0.74827  1.0000
  C   C3587     1.0  0.78334  0.12861  0.81686  1.0000
  C   C3588     1.0  0.61138  0.00003  0.74257  1.0000
  C   C3589     1.0  0.94742  0.20056  0.76173  1.0000
  H   H2851     1.0  0.56827  0.17912  0.96486  1.0000
  C   C3590     1.0  0.76571  0.06467  0.85649  1.0000
  C   C3591     1.0  0.62217  0.04834  0.91958  1.0000
  C   C3592     1.0  0.58016  0.15615  0.93282  1.0000
  C   C3593     1.0  0.70012  0.10372  0.91652  1.0000
  H   H2852     1.0  0.78509  0.07128  0.68878  1.0000
  C   C3594     1.0  0.80148  0.19991  0.74964  1.0000
  C   C3595     1.0  0.66836  0.17648  0.90071  1.0000
  H   H2853     1.0  0.84760  0.07073  0.70937  1.0000
  H   H2854     1.0  0.88188  0.16655  0.76062  1.0000
  C   C3596     1.0  0.73156  0.09966  0.90329  1.0000
  H   H2855     1.0  0.64165  0.06553  0.76003  1.0000
  H   H2856     1.0  0.76390  0.14428  0.80196  1.0000
  H   H2857     1.0  0.79924  0.21270  0.75248  1.0000
  C   C3597     1.0  0.68516  0.21593  0.91520  1.0000
  C   C3598     1.0  0.70521  0.21460  0.80230  1.0000
  C   C3599     1.0  0.64126  0.08944  0.74039  1.0000
  H   H2858     1.0  0.72640  0.10286  0.72968  1.0000
  H   H2859     1.0  0.85396  0.21122  0.66779  1.0000
  C   C3600     1.0  0.71089  0.09853  0.88720  1.0000
  C   C3601     1.0  0.57861  0.13403  0.90708  1.0000
  H   H2860     1.0  0.62706  0.09196  0.74144  1.0000
  S   S508      1.0  0.98162  0.14598  0.67162  1.0000
  C   C3602     1.0  0.65135  0.10106  0.72870  1.0000
  C   C3603     1.0  0.74975  0.20573  0.94112  1.0000
  C   C3604     1.0  0.56758  0.17493  0.95362  1.0000
  C   C3605     1.0  0.77133  0.16231  0.71053  1.0000
  C   C3606     1.0  0.98131  0.21577  0.65135  1.0000
  H   H2861     1.0  0.80559  0.11457  0.82860  1.0000
  C   C3607     1.0  0.68708  0.10490  0.76016  1.0000
  P   P117      1.0  0.70078  0.07997  0.73936  1.0000
  C   C3608     1.0  0.56523  0.16308  0.92525  1.0000
  H   H2862     1.0  0.67352  0.05928  0.75812  1.0000
  C   C3609     1.0  0.81397  0.12934  0.80263  1.0000
  C   C3610     1.0  0.53028  0.10009  0.92530  1.0000
  H   H2863     1.0  0.54577  0.14934  0.88289  1.0000
  H   H2864     1.0  0.55228  0.14121  0.96447  1.0000
  C   C3611     1.0  0.69668  0.16003  0.92898  1.0000
  C   C3612     1.0  0.69659  0.15734  0.84958  1.0000
  C   C3613     1.0  0.79049  0.14608  0.78756  1.0000
  C   C3614     1.0  0.75513  0.07109  0.87121  1.0000
  H   H2865     1.0  0.63292  0.18083  0.93456  1.0000
  S   S509      1.0  0.51820  0.13301  0.97059  1.0000
  C   C3615     1.0  0.98935  0.19002  0.95936  1.0000
  C   C3616     1.0  0.72341  0.04853  0.73193  1.0000
  C   C3617     1.0  0.79705  0.10280  0.75782  1.0000
  C   C3618     1.0  0.75180  0.05925  0.88732  1.0000
  S   S510      1.0  0.61199  0.13515  0.83066  1.0000
  C   C3619     1.0  0.73111  0.03066  0.73623  1.0000
  H   H2866     1.0  0.72398  0.07223  0.76406  1.0000
  C   C3620     1.0  0.78139  0.09699  0.86568  1.0000
  H   H2867     1.0  0.77072  0.16856  0.96519  1.0000
  H   H2868     1.0  0.68189  0.02802  0.65624  1.0000
  C   C3621     1.0  0.72830  0.09790  0.88789  1.0000
  P   P118      1.0  0.74636  0.09438  0.86937  1.0000
  C   C3622     1.0  0.71107  0.05689  0.74469  1.0000
  H   H2869     1.0  0.74377  0.06380  0.89892  1.0000
  H   H2870     1.0  0.74019  0.02418  0.72621  1.0000
  H   H2871     1.0  0.67543  0.12297  0.77734  1.0000
  H   H2872     1.0  0.80029  0.18064  0.80587  1.0000
  C   C3623     1.0  0.70668  0.04705  0.76178  1.0000
  C   C3624     1.0  0.85733  0.15851  0.76470  1.0000
  P   P119      1.0  0.82498  0.14936  0.76937  1.0000
  H   H2873     1.0  0.75071  0.06571  0.73975  1.0000
  S   S511      1.0  0.68594  0.15448  0.83465  1.0000
  C   C3625     1.0  0.89481  0.18425  0.68721  1.0000
  H   H2874     1.0  0.71008  0.13667  0.88756  1.0000
  C   C3626     1.0  0.85602  0.10695  0.73773  1.0000
  C   C3627     1.0  0.78008  0.09262  0.72100  1.0000
  H   H2875     1.0  0.94406  0.17883  0.78361  1.0000
  P   P120      1.0  0.66761  0.18803  0.93034  1.0000
  H   H2876     1.0  0.55292  0.11813  0.77958  1.0000
  H   H2877     1.0  0.78169  0.14434  0.73191  1.0000
  C   C3628     1.0  0.76187  0.11397  0.77479  1.0000
  C   C3629     1.0  0.78663  0.08748  0.70491  1.0000
  H   H2878     1.0  0.77046  0.17386  0.71512  1.0000
  C   C3630     1.0  0.76071  0.07187  0.73005  1.0000
  H   H2879     1.0  0.71549  0.16707  0.95766  1.0000
  C   C3631     1.0  0.55173  0.17634  0.93181  1.0000
  H   H2880     1.0  0.71025  0.17928  0.80541  1.0000
  H   H2881     1.0  0.68344  0.10230  0.90063  1.0000
  H   H2882     1.0  0.65784  0.15861  0.95932  1.0000
  C   C3632     1.0  0.64675  0.19300  0.94561  1.0000
  C   C3633     1.0  0.75580  0.22602  0.77834  1.0000
  C   C3634     1.0  0.61276  0.01399  0.72809  1.0000
  C   C3635     1.0  0.56830  0.18757  0.88599  1.0000
  H   H2883     1.0  0.86238  0.12858  0.71665  1.0000
  C   C3636     1.0  0.76108  0.18936  0.94489  1.0000
  H   H2884     1.0  0.76541  0.15107  0.67573  1.0000
  C   C3637     1.0  0.76332  0.10524  0.86906  1.0000
  C   C3638     1.0  0.90667  0.19490  0.68469  1.0000
  C   C3639     1.0  0.60252  0.10168  0.90610  1.0000
  C   C3640     1.0  0.77439  0.13277  0.69785  1.0000
  H   H2885     1.0  0.54016  0.18198  0.92614  1.0000
  C   C3641     1.0  0.81367  0.16851  0.75599  1.0000
  C   C3642     1.0  0.92100  0.21501  0.74978  1.0000
  H   H2886     1.0  0.91308  0.18052  0.78341  1.0000
  H   H2887     1.0  0.94404  0.16296  0.68892  1.0000
  H   H2888     1.0  0.96087  0.16569  0.75109  1.0000
  C   C3643     1.0  0.83921  0.11526  0.70029  1.0000
  Fe  Fe268     1.0  0.87107  0.21572  0.74389  1.0000
  C   C3644     1.0  0.74827  0.21393  0.77508  1.0000
  S   S512      1.0  0.77436  0.17912  0.92792  1.0000
  C   C3645     1.0  0.63471  0.04557  0.70966  1.0000
  C   C3646     1.0  0.58456  0.03107  0.69778  1.0000
  H   H2889     1.0  0.67625  0.16404  0.90605  1.0000
  H   H2890     1.0  0.57881  0.98796  0.73966  1.0000
  H   H2891     1.0  0.49763  0.11760  0.71414  1.0000
  C   C3647     1.0  0.67249  0.98917  0.69948  1.0000
  H   H2892     1.0  0.98919  0.10794  0.67913  1.0000
  C   C3648     1.0  0.82391  0.19861  0.69242  1.0000
  C   C3649     1.0  0.59003  0.05580  0.94386  1.0000
  C   C3650     1.0  0.72644  0.15477  0.77467  1.0000
  H   H2893     1.0  0.64567  0.05840  0.72266  1.0000
  H   H2894     1.0  0.98506  0.15636  0.70089  1.0000
  H   H2895     1.0  0.88104  0.19010  0.68685  1.0000
  H   H2896     1.0  0.50246  0.14880  0.93959  1.0000
  C   C3651     1.0  0.73840  0.15819  0.93897  1.0000
  C   C3652     1.0  0.93452  0.18049  0.72158  1.0000
  C   C3653     1.0  0.70834  0.14663  0.87587  1.0000
  H   H2897     1.0  0.55655  0.03277  0.70196  1.0000
  H   H2898     1.0  0.73508  0.16918  0.92852  1.0000
  C   C3654     1.0  0.63726  0.06019  0.71369  1.0000
  H   H2899     1.0  0.80399  0.20914  0.67687  1.0000
  C   C3655     1.0  0.80783  0.16701  0.74186  1.0000
  H   H2900     1.0  0.86241  0.09545  0.69351  1.0000
  C   C3656     1.0  0.93772  0.18900  0.77415  1.0000
  C   C3657     1.0  0.83792  0.15888  0.79326  1.0000
  H   H2901     1.0  0.72720  0.14234  0.82137  1.0000
  C   C3658     1.0  0.99322  0.16296  0.68941  1.0000
  C   C3659     1.0  0.55073  0.98752  0.69372  1.0000
  C   C3660     1.0  0.68052  0.13732  0.95759  1.0000
  H   H2902     1.0  0.58044  0.09018  0.92114  1.0000
  C   C3661     1.0  0.72325  0.10020  0.82862  1.0000
  C   C3662     1.0  0.80400  0.20521  0.82226  1.0000
  S   S513      1.0  0.84967  0.18395  0.71219  1.0000
  H   H2903     1.0  0.79078  0.16300  0.83547  1.0000
  C   C3663     1.0  0.51184  0.14936  0.92709  1.0000
  C   C3664     1.0  0.61499  0.19760  0.97091  1.0000
  H   H2904     1.0  0.66780  0.16743  0.87849  1.0000
  S   S514      1.0  0.77158  0.17356  0.88410  1.0000
  H   H2905     1.0  0.76284  0.14699  0.92308  1.0000
  H   H2906     1.0  0.71531  0.12375  0.80998  1.0000
  C   C3665     1.0  0.61623  0.18979  0.95725  1.0000
  H   H2907     1.0  0.55569  0.04462  0.67074  1.0000
  H   H2908     1.0  0.63093  0.06595  0.92906  1.0000
  P   P121      1.0  0.62093  0.02887  0.69248  1.0000
  H   H2909     1.0  0.71816  0.18613  0.85421  1.0000
  C   C3666     1.0  0.65541  0.02834  0.67207  1.0000
  C   C3667     1.0  0.56125  0.04106  0.96810  1.0000
  C   C3668     1.0  0.66967  0.02362  0.65863  1.0000
  H   H2910     1.0  0.75992  0.05932  0.65574  1.0000
  C   C3669     1.0  0.75187  0.17456  0.82205  1.0000
  H   H2911     1.0  0.75126  0.15493  0.75581  1.0000
  C   C3670     1.0  0.95968  0.19252  0.65566  1.0000
  C   C3671     1.0  0.86544  0.22152  0.79967  1.0000
  C   C3672     1.0  0.65306  0.19401  0.87781  1.0000
  C   C3673     1.0  0.90053  0.16603  0.69082  1.0000
  C   C3674     1.0  0.74756  0.13032  0.96617  1.0000
  S   S515      1.0  0.65934  0.98490  0.79442  1.0000
  H   H2912     1.0  0.60308  0.07259  0.95030  1.0000
  S   S516      1.0  0.96274  0.11944  0.65204  1.0000
  H   H2913     1.0  0.70278  0.15722  0.79520  1.0000
  H   H2914     1.0  0.95167  0.18329  0.65707  1.0000
  C   C3675     1.0  0.69083  0.22367  0.81293  1.0000
  H   H2915     1.0  0.61058  0.09234  0.69002  1.0000
  C   C3676     1.0  0.71920  0.17446  0.79432  1.0000
  H   H2916     1.0  0.89108  0.15788  0.69337  1.0000
  C   C3677     1.0  0.85532  0.22213  0.81653  1.0000
  C   C3678     1.0  0.62500  0.99346  0.70903  1.0000
  H   H2917     1.0  0.94422  0.20353  0.80033  1.0000
  C   C3679     1.0  0.74654  0.17314  0.77225  1.0000
  C   C3680     1.0  0.95697  0.20180  0.66869  1.0000
  H   H2918     1.0  0.61140  0.04383  0.65831  1.0000
  H   H2919     1.0  0.91459  0.15463  0.65585  1.0000
  H   H2920     1.0  0.86225  0.14505  0.66731  1.0000
  C   C3681     1.0  0.50775  0.03069  0.88151  1.0000
  C   C3682     1.0  0.69635  0.22649  0.91502  1.0000
  H   H2921     1.0  0.54159  0.09389  0.96395  1.0000
  C   C3683     1.0  0.71499  0.16169  0.78865  1.0000
  H   H2922     1.0  0.67417  0.12846  0.96856  1.0000
  H   H2923     1.0  0.90176  0.20893  0.68270  1.0000
  C   C3684     1.0  0.65180  0.20607  0.90225  1.0000
  C   C3685     1.0  0.70981  0.22239  0.83184  1.0000
  H   H2924     1.0  0.56137  0.01401  0.64608  1.0000
  S   S517      1.0  0.49574  0.00288  0.76176  1.0000
  H   H2925     1.0  0.77908  0.19507  0.78701  1.0000
  H   H2926     1.0  0.52133  0.03128  0.88043  1.0000
  H   H2927     1.0  0.97504  0.19304  0.96343  1.0000
  P   P122      1.0  0.56872  0.06133  0.95851  1.0000
  C   C3686     1.0  0.87124  0.15390  0.66168  1.0000
  C   C3687     1.0  0.82068  0.21433  0.79278  1.0000
  H   H2928     1.0  0.67945  0.21846  0.90400  1.0000
  C   C3688     1.0  0.73934  0.21394  0.95470  1.0000
  H   H2929     1.0  0.65621  0.20580  0.96021  1.0000
  H   H2930     1.0  0.62606  0.00805  0.66658  1.0000
  C   C3689     1.0  0.96783  0.21354  0.66633  1.0000
  C   C3690     1.0  0.93896  0.21384  0.74964  1.0000
  H   H2931     1.0  0.83312  0.21353  0.78330  1.0000
  H   H2932     1.0  0.98887  0.18517  0.93483  1.0000
  Fe  Fe269     1.0  0.81048  0.15686  0.65128  1.0000
  H   H2933     1.0  0.91301  0.21909  0.80132  1.0000
  H   H2934     1.0  0.79388  0.98882  0.66472  1.0000
  H   H2935     1.0  0.86337  0.21322  0.79240  1.0000
  C   C3691     1.0  0.73997  0.20576  0.97209  1.0000
  C   C3692     1.0  0.62943  0.20346  0.97176  1.0000
  H   H2936     1.0  0.70764  0.20669  0.95418  1.0000
  C   C3693     1.0  0.73177  0.14297  0.96935  1.0000
  H   H2937     1.0  0.73948  0.20730  0.75534  1.0000
  C   C3694     1.0  0.50361  0.02448  0.86913  1.0000
  C   C3695     1.0  0.86428  0.21859  0.66173  1.0000
  H   H2938     1.0  0.77633  0.21786  0.82736  1.0000
  H   H2939     1.0  0.50462  0.08250  0.94335  1.0000
  S   S518      1.0  0.98618  0.22595  0.71454  1.0000
  H   H2940     1.0  0.63880  0.21999  0.88100  1.0000
  S   S519      1.0  0.86613  0.10913  0.65354  1.0000
  C   C3696     1.0  0.80449  0.00960  0.64541  1.0000
  H   H2941     1.0  0.64683  0.21680  0.90900  1.0000
  H   H2942     1.0  0.91434  0.22542  0.74082  1.0000
  C   C3697     1.0  0.90111  0.11087  0.64714  1.0000
  H   H2943     1.0  0.49741  0.04180  0.90435  1.0000
  H   H2944     1.0  0.65140  0.99989  0.64284  1.0000
  H   H2945     1.0  0.85018  0.23336  0.83889  1.0000
  H   H2946     1.0  0.85935  0.23032  0.68374  1.0000
  H   H2947     1.0  0.71162  0.22546  0.84326  1.0000
  C   C3698     1.0  0.86743  0.22920  0.67088  1.0000
  H   H2948     1.0  0.75697  0.22521  0.79144  1.0000
  H   H2949     1.0  0.69353  0.08707  0.64895  1.0000
  C   C3699     1.0  0.75246  0.22886  0.74445  1.0000
  C   C3700     1.0  0.89482  0.17627  0.64611  1.0000
  Fe  Fe270     1.0  0.98148  0.13723  0.64753  1.0000
  C   C3701     1.0  0.87425  0.21770  0.64479  1.0000
  C   C3702     1.0  0.80532  0.22572  0.78821  1.0000
  C   C3703     1.0  0.57483  0.08775  0.97039  1.0000
  H   H2950     1.0  0.99079  0.07612  0.68414  1.0000
  C   C3704     1.0  0.53925  0.02372  0.97366  1.0000
  H   H2951     1.0  0.52615  0.02297  0.97308  1.0000
  C   C3705     1.0  0.87712  0.18211  0.64437  1.0000
  S   S520      1.0  0.49716  0.05649  0.97466  1.0000
  H   H2952     1.0  0.71338  0.23107  0.92875  1.0000
  Fe  Fe271     1.0  0.83136  0.23088  0.74796  1.0000
  C   C3706     1.0  0.49601  0.07548  0.94139  1.0000
  C   C3707     1.0  0.99459  0.15976  0.67302  1.0000
  H   H2953     1.0  0.92797  0.11367  0.64359  1.0000
  C   C3708     1.0  0.57281  0.02602  0.97524  1.0000
  C   C3709     1.0  0.57108  0.07095  0.97507  1.0000
  H   H2954     1.0  0.58592  0.02672  0.97573  1.0000
  C   C3710     1.0  0.98862  0.43613  0.06589  1.0000
  Fe  Fe272     1.0  0.74436  0.32508  0.03056  1.0000
  S   S521      1.0  0.77301  0.31958  0.03139  1.0000
  S   S522      1.0  0.73439  0.30587  0.02247  1.0000
  Fe  Fe273     1.0  0.73819  0.36330  0.03332  1.0000
  S   S523      1.0  0.76646  0.36095  0.03372  1.0000
  S   S524      1.0  0.71609  0.38732  0.03526  1.0000
  Fe  Fe274     1.0  0.77311  0.34564  0.01286  1.0000
  H   H2955     1.0  0.79704  0.40334  0.14850  1.0000
  Fe  Fe275     1.0  0.76371  0.33509  0.05236  1.0000
  S   S525      1.0  0.77343  0.32465  0.07756  1.0000
  S   S526      1.0  0.74503  0.35040  0.01067  1.0000
  S   S527      1.0  0.73482  0.33828  0.05320  1.0000
  H   H2956     1.0  0.81122  0.33071  0.05134  1.0000
  C   C3711     1.0  0.94579  0.23627  0.98545  1.0000
  H   H2957     1.0  0.73650  0.28470  0.08349  1.0000
  C   C3712     1.0  0.70817  0.26957  0.99056  1.0000
  H   H2958     1.0  0.75976  0.38855  0.98697  1.0000
  S   S528      1.0  0.91784  0.45989  0.10936  1.0000
  C   C3713     1.0  0.86089  0.26434  0.02464  1.0000
  S   S529      1.0  0.83821  0.45268  0.15673  1.0000
  C   C3714     1.0  0.77997  0.24786  0.98959  1.0000
  H   H2959     1.0  0.79885  0.40517  0.00128  1.0000
  S   S530      1.0  0.86866  0.46056  0.10890  1.0000
  H   H2960     1.0  0.79126  0.23573  0.04604  1.0000
  H   H2961     1.0  0.82007  0.26996  0.98330  1.0000
  C   C3715     1.0  0.97122  0.24451  0.02460  1.0000
  C   C3716     1.0  0.99197  0.46672  0.02954  1.0000
  Fe  Fe276     1.0  0.85245  0.46967  0.13319  1.0000
  Fe  Fe277     1.0  0.84209  0.35900  0.14406  1.0000
  S   S531      1.0  0.85126  0.37134  0.11596  1.0000
  S   S532      1.0  0.83523  0.37320  0.16601  1.0000
  Fe  Fe278     1.0  0.84428  0.32354  0.13615  1.0000
  S   S533      1.0  0.85331  0.33344  0.10738  1.0000
  S   S534      1.0  0.84442  0.29464  0.14637  1.0000
  Fe  Fe279     1.0  0.87085  0.34572  0.11507  1.0000
  S   S535      1.0  0.89903  0.34307  0.10009  1.0000
  Fe  Fe280     1.0  0.83278  0.35774  0.11132  1.0000
  S   S536      1.0  0.81606  0.37203  0.09181  1.0000
  S   S537      1.0  0.86327  0.33430  0.14359  1.0000
  S   S538      1.0  0.82195  0.34708  0.13961  1.0000
  C   C3717     1.0  0.76476  0.39917  0.98805  1.0000
  H   H2962     1.0  0.86187  0.31470  0.18422  1.0000
  H   H2963     1.0  0.73651  0.25111  0.09584  1.0000
  Fe  Fe281     1.0  0.98116  0.34645  0.12184  1.0000
  H   H2964     1.0  0.85136  0.30212  0.98997  1.0000
  S   S539      1.0  0.95417  0.34759  0.13957  1.0000
  C   C3718     1.0  0.94595  0.38734  0.16758  1.0000
  C   C3719     1.0  0.71693  0.31808  0.12841  1.0000
  C   C3720     1.0  0.81936  0.30302  0.05204  1.0000
  C   C3721     1.0  0.77844  0.26411  0.97789  1.0000
  S   S540      1.0  0.99071  0.32862  0.10310  1.0000
  H   H2965     1.0  0.70477  0.42211  0.99698  1.0000
  H   H2966     1.0  0.76169  0.24279  0.06568  1.0000
  C   C3722     1.0  0.78879  0.39560  0.17622  1.0000
  H   H2967     1.0  0.96549  0.25733  0.12505  1.0000
  C   C3723     1.0  0.94138  0.25604  0.03932  1.0000
  H   H2968     1.0  0.81865  0.29939  0.06599  1.0000
  H   H2969     1.0  0.94766  0.24408  0.01729  1.0000
  H   H2970     1.0  0.87234  0.25715  0.16721  1.0000
  H   H2971     1.0  0.71186  0.23736  0.09927  1.0000
  H   H2972     1.0  0.90896  0.25280  0.14546  1.0000
  H   H2973     1.0  0.68422  0.27734  0.03033  1.0000
  C   C3724     1.0  0.73049  0.32554  0.12883  1.0000
  C   C3725     1.0  0.72006  0.37769  0.98264  1.0000
  C   C3726     1.0  0.70905  0.41000  0.99247  1.0000
  C   C3727     1.0  0.95415  0.47027  0.04829  1.0000
  C   C3728     1.0  0.95403  0.48311  0.11417  1.0000
  C   C3729     1.0  0.87622  0.31234  0.18164  1.0000
  H   H2974     1.0  0.68251  0.23920  0.00376  1.0000
  C   C3730     1.0  0.73556  0.43010  0.03188  1.0000
  S   S541      1.0  0.87380  0.47987  0.13748  1.0000
  H   H2975     1.0  0.74429  0.34586  0.09659  1.0000
  C   C3731     1.0  0.71285  0.45749  0.07969  1.0000
  C   C3732     1.0  0.84147  0.28573  0.13031  1.0000
  C   C3733     1.0  0.83266  0.29653  0.11736  1.0000
  C   C3734     1.0  0.83002  0.28951  0.10467  1.0000
  C   C3735     1.0  0.83613  0.27159  0.10486  1.0000
  C   C3736     1.0  0.84522  0.26073  0.11765  1.0000
  C   C3737     1.0  0.84788  0.26782  0.13034  1.0000
  H   H2976     1.0  0.82764  0.31029  0.11730  1.0000
  H   H2977     1.0  0.82305  0.29801  0.09479  1.0000
  H   H2978     1.0  0.85512  0.25949  0.13998  1.0000
  C   C3738     1.0  0.91404  0.34463  0.11122  1.0000
  C   C3739     1.0  0.90916  0.34433  0.12911  1.0000
  C   C3740     1.0  0.92161  0.34505  0.13781  1.0000
  C   C3741     1.0  0.93884  0.34636  0.12860  1.0000
  C   C3742     1.0  0.94356  0.34711  0.11063  1.0000
  C   C3743     1.0  0.93123  0.34607  0.10198  1.0000
  H   H2979     1.0  0.89590  0.34341  0.13630  1.0000
  H   H2980     1.0  0.91793  0.34455  0.15167  1.0000
  H   H2981     1.0  0.95660  0.34881  0.10330  1.0000
  H   H2982     1.0  0.93500  0.34654  0.08809  1.0000
  C   C3744     1.0  0.89406  0.26664  0.12595  1.0000
  H   H2983     1.0  0.94162  0.24246  0.12688  1.0000
  C   C3745     1.0  0.85420  0.24014  0.17295  1.0000
  C   C3746     1.0  0.89700  0.24143  0.08186  1.0000
  H   H2984     1.0  0.85956  0.27735  0.02652  1.0000
  H   H2985     1.0  0.97875  0.35104  0.19245  1.0000
  C   C3747     1.0  0.82408  0.29000  0.04241  1.0000
  H   H2986     1.0  0.98003  0.44724  0.02639  1.0000
  C   C3748     1.0  0.77083  0.43051  0.17536  1.0000
  C   C3749     1.0  0.68856  0.27160  0.01894  1.0000
  C   C3750     1.0  0.77896  0.42594  0.99055  1.0000
  C   C3751     1.0  0.71095  0.46584  0.99032  1.0000
  H   H2987     1.0  0.71614  0.45699  0.11619  1.0000
  H   H2988     1.0  0.78822  0.28129  0.04999  1.0000
  H   H2989     1.0  0.75559  0.28955  0.05393  1.0000
  C   C3752     1.0  0.70285  0.42080  0.03903  1.0000
  C   C3753     1.0  0.83827  0.43054  0.15828  1.0000
  C   C3754     1.0  0.82864  0.42177  0.17368  1.0000
  C   C3755     1.0  0.82794  0.40428  0.17572  1.0000
  C   C3756     1.0  0.83644  0.39539  0.16221  1.0000
  C   C3757     1.0  0.84614  0.40408  0.14670  1.0000
  C   C3758     1.0  0.84734  0.42157  0.14487  1.0000
  H   H2990     1.0  0.82173  0.42851  0.18418  1.0000
  H   H2991     1.0  0.82064  0.39764  0.18783  1.0000
  H   H2992     1.0  0.85284  0.39728  0.13624  1.0000
  H   H2993     1.0  0.85508  0.42813  0.13306  1.0000
  P   P123      1.0  0.97613  0.47074  0.04942  1.0000
  C   C3759     1.0  0.88531  0.45939  0.03044  1.0000
  C   C3760     1.0  0.90277  0.31984  0.18321  1.0000
  C   C3761     1.0  0.68157  0.25784  0.01850  1.0000
  C   C3762     1.0  0.87087  0.24365  0.17064  1.0000
  C   C3763     1.0  0.94211  0.46432  0.06349  1.0000
  C   C3764     1.0  0.68761  0.25013  0.00401  1.0000
  C   C3765     1.0  0.77992  0.27837  0.06289  1.0000
  C   C3766     1.0  0.99313  0.42288  0.08006  1.0000
  H   H2994     1.0  0.94592  0.45862  0.12528  1.0000
  C   C3767     1.0  0.84820  0.26063  0.01813  1.0000
  H   H2995     1.0  0.80191  0.26686  0.07547  1.0000
  C   C3768     1.0  0.73859  0.29170  0.12240  1.0000
  C   C3769     1.0  0.72863  0.28632  0.03589  1.0000
  C   C3770     1.0  0.73093  0.27243  0.02795  1.0000
  C   C3771     1.0  0.72451  0.25738  0.03730  1.0000
  C   C3772     1.0  0.71580  0.25596  0.05481  1.0000
  C   C3773     1.0  0.71383  0.26970  0.06301  1.0000
  C   C3774     1.0  0.72028  0.28488  0.05356  1.0000
  H   H2996     1.0  0.73723  0.27355  0.01428  1.0000
  H   H2997     1.0  0.72556  0.24729  0.03063  1.0000
  H   H2998     1.0  0.70683  0.26886  0.07648  1.0000
  H   H2999     1.0  0.71811  0.29574  0.05968  1.0000
  C   C3775     1.0  0.78477  0.33804  0.08198  1.0000
  C   C3776     1.0  0.79355  0.33178  0.09584  1.0000
  C   C3777     1.0  0.80315  0.34220  0.09905  1.0000
  C   C3778     1.0  0.80409  0.35877  0.08830  1.0000
  C   C3779     1.0  0.79504  0.36513  0.07474  1.0000
  C   C3780     1.0  0.78527  0.35487  0.07171  1.0000
  H   H3000     1.0  0.79312  0.31882  0.10395  1.0000
  H   H3001     1.0  0.80982  0.33746  0.10979  1.0000
  H   H3002     1.0  0.79563  0.37801  0.06654  1.0000
  H   H3003     1.0  0.77809  0.36011  0.06149  1.0000
  H   H3004     1.0  0.77196  0.45452  0.10492  1.0000
  H   H3005     1.0  0.72469  0.36496  0.97932  1.0000
  H   H3006     1.0  0.91556  0.46019  0.07465  1.0000
  C   C3781     1.0  0.91094  0.23837  0.19845  1.0000
  H   H3007     1.0  0.90905  0.32788  0.18713  1.0000
  C   C3782     1.0  0.80326  0.25787  0.13689  1.0000
  S   S542      1.0  0.71903  0.46461  0.03514  1.0000
  H   H3008     1.0  0.79259  0.24113  0.99306  1.0000
  H   H3009     1.0  0.77185  0.38482  0.15238  1.0000
  C   C3783     1.0  0.91280  0.24724  0.07756  1.0000
  H   H3010     1.0  0.75831  0.44360  0.97868  1.0000
  C   C3784     1.0  0.75074  0.28024  0.08190  1.0000
  C   C3785     1.0  0.71844  0.40828  0.03529  1.0000
  C   C3786     1.0  0.70936  0.42560  0.10299  1.0000
  C   C3787     1.0  0.85071  0.24379  0.01522  1.0000
  C   C3788     1.0  0.88427  0.32265  0.18685  1.0000
  C   C3789     1.0  0.71172  0.26102  0.13456  1.0000
  H   H3011     1.0  0.82928  0.47291  0.09643  1.0000
  H   H3012     1.0  0.91850  0.23394  0.99212  1.0000
  H   H3013     1.0  0.99221  0.24597  0.03543  1.0000
  P   P124      1.0  0.82942  0.27755  0.01248  1.0000
  C   C3790     1.0  0.81508  0.32068  0.04380  1.0000
  C   C3791     1.0  0.80929  0.26948  0.01899  1.0000
  C   C3792     1.0  0.79455  0.27934  0.01200  1.0000
  C   C3793     1.0  0.77881  0.27332  0.01695  1.0000
  C   C3794     1.0  0.77764  0.25747  0.02904  1.0000
  C   C3795     1.0  0.79208  0.24792  0.03651  1.0000
  C   C3796     1.0  0.80776  0.25400  0.03171  1.0000
  C   C3797     1.0  0.74247  0.40593  0.12620  1.0000
  C   C3798     1.0  0.72853  0.44674  0.13829  1.0000
  H   H3014     1.0  0.97371  0.23480  0.98017  1.0000
  H   H3015     1.0  0.70745  0.46951  0.00282  1.0000
  H   H3016     1.0  0.80112  0.41865  0.03237  1.0000
  C   C3799     1.0  0.82452  0.29458  0.02442  1.0000
  C   C3800     1.0  0.81968  0.31233  0.01634  1.0000
  C   C3801     1.0  0.81524  0.32533  0.02596  1.0000
  H   H3017     1.0  0.78619  0.38146  0.99920  1.0000
  C   C3802     1.0  0.98246  0.45366  0.06758  1.0000
  C   C3803     1.0  0.81075  0.46842  0.08430  1.0000
  C   C3804     1.0  0.72739  0.44324  0.07975  1.0000
  C   C3805     1.0  0.76398  0.43005  0.98348  1.0000
  C   C3806     1.0  0.87564  0.45496  0.04749  1.0000
  C   C3807     1.0  0.94864  0.47652  0.03236  1.0000
  H   H3018     1.0  0.71776  0.35248  0.08423  1.0000
  H   H3019     1.0  0.79525  0.29168  0.00270  1.0000
  H   H3020     1.0  0.76758  0.28091  0.01130  1.0000
  H   H3021     1.0  0.76554  0.25265  0.03264  1.0000
  H   H3022     1.0  0.96388  0.47979  0.12188  1.0000
  H   H3023     1.0  0.81855  0.24661  0.03806  1.0000
  C   C3808     1.0  0.74725  0.26527  0.98059  1.0000
  C   C3809     1.0  0.77984  0.39506  0.99501  1.0000
  C   C3810     1.0  0.75582  0.25417  0.13383  1.0000
  H   H3024     1.0  0.96471  0.38089  0.14419  1.0000
  C   C3811     1.0  0.93136  0.47672  0.03171  1.0000
  H   H3025     1.0  0.81880  0.31622  0.00276  1.0000
  H   H3026     1.0  0.81134  0.33899  0.01967  1.0000
  C   C3812     1.0  0.77690  0.38553  0.12495  1.0000
  C   C3813     1.0  0.98629  0.29487  0.03681  1.0000
  H   H3027     1.0  0.81843  0.44286  0.12924  1.0000
  C   C3814     1.0  0.79700  0.42247  0.11275  1.0000
  C   C3815     1.0  0.81137  0.41561  0.10054  1.0000
  C   C3816     1.0  0.82817  0.41846  0.09879  1.0000
  C   C3817     1.0  0.83060  0.42836  0.10911  1.0000
  C   C3818     1.0  0.81624  0.43526  0.12136  1.0000
  H   H3028     1.0  0.80946  0.40803  0.09245  1.0000
  H   H3029     1.0  0.83932  0.41289  0.08953  1.0000
  H   H3030     1.0  0.84363  0.43066  0.10762  1.0000
  C   C3819     1.0  0.92486  0.46455  0.06279  1.0000
  H   H3031     1.0  0.81335  0.25556  0.17524  1.0000
  C   C3820     1.0  0.76438  0.40422  0.05785  1.0000
  C   C3821     1.0  0.70350  0.43776  0.03920  1.0000
  C   C3822     1.0  0.75218  0.29959  0.12214  1.0000
  S   S543      1.0  0.77139  0.46317  0.02770  1.0000
  H   H3032     1.0  0.99463  0.41671  0.10695  1.0000
  C   C3823     1.0  0.70174  0.27751  0.00500  1.0000
  H   H3033     1.0  0.92526  0.23762  0.07754  1.0000
  C   C3824     1.0  0.72580  0.42720  0.09154  1.0000
  H   H3034     1.0  0.69126  0.44728  0.04199  1.0000
  H   H3035     1.0  0.94331  0.24645  0.15343  1.0000
  P   P125      1.0  0.78068  0.44107  0.13914  1.0000
  P   P126      1.0  0.74432  0.26999  0.11806  1.0000
  H   H3036     1.0  0.77941  0.39149  0.20411  1.0000
  C   C3825     1.0  0.96373  0.27313  0.09944  1.0000
  H   H3037     1.0  0.79028  0.37761  0.12437  1.0000
  C   C3826     1.0  0.94228  0.37597  0.03460  1.0000
  C   C3827     1.0  0.95537  0.37267  0.04405  1.0000
  C   C3828     1.0  0.95143  0.37900  0.05925  1.0000
  C   C3829     1.0  0.93443  0.38862  0.06502  1.0000
  C   C3830     1.0  0.92111  0.39178  0.05579  1.0000
  C   C3831     1.0  0.92518  0.38544  0.04047  1.0000
  P   P127      1.0  0.89885  0.40345  0.06376  1.0000
  C   C3832     1.0  0.88320  0.39144  0.06314  1.0000
  C   C3833     1.0  0.89651  0.40451  0.08616  1.0000
  C   C3834     1.0  0.89076  0.39118  0.09998  1.0000
  C   C3835     1.0  0.88939  0.39177  0.11726  1.0000
  C   C3836     1.0  0.89366  0.40572  0.12090  1.0000
  C   C3837     1.0  0.89974  0.41887  0.10723  1.0000
  C   C3838     1.0  0.90124  0.41826  0.08991  1.0000
  C   C3839     1.0  0.86579  0.40004  0.06149  1.0000
  C   C3840     1.0  0.85357  0.39041  0.06205  1.0000
  C   C3841     1.0  0.85863  0.37220  0.06416  1.0000
  C   C3842     1.0  0.87595  0.36358  0.06562  1.0000
  C   C3843     1.0  0.88818  0.37315  0.06507  1.0000
  C   C3844     1.0  0.89410  0.42549  0.05082  1.0000
  C   C3845     1.0  0.90394  0.43010  0.03372  1.0000
  C   C3846     1.0  0.89954  0.44700  0.02359  1.0000
  H   H3038     1.0  0.72917  0.41378  0.12706  1.0000
  C   C3847     1.0  0.77853  0.40668  0.04359  1.0000
  C   C3848     1.0  0.88002  0.43814  0.05768  1.0000
  H   H3039     1.0  0.94537  0.37102  0.02283  1.0000
  H   H3040     1.0  0.96856  0.36511  0.03971  1.0000
  H   H3041     1.0  0.96156  0.37619  0.06669  1.0000
  H   H3042     1.0  0.93162  0.39327  0.07684  1.0000
  H   H3043     1.0  0.91507  0.38765  0.03319  1.0000
  H   H3044     1.0  0.88744  0.38023  0.09748  1.0000
  H   H3045     1.0  0.88501  0.38138  0.12786  1.0000
  H   H3046     1.0  0.89242  0.40624  0.13430  1.0000
  H   H3047     1.0  0.90347  0.42946  0.11008  1.0000
  H   H3048     1.0  0.90622  0.42845  0.07951  1.0000
  H   H3049     1.0  0.86144  0.41408  0.06008  1.0000
  H   H3050     1.0  0.83999  0.39697  0.06126  1.0000
  H   H3051     1.0  0.84901  0.36473  0.06500  1.0000
  H   H3052     1.0  0.87976  0.34940  0.06774  1.0000
  H   H3053     1.0  0.90137  0.36616  0.06674  1.0000
  H   H3054     1.0  0.91489  0.42070  0.02809  1.0000
  H   H3055     1.0  0.90704  0.45043  0.01035  1.0000
  H   H3056     1.0  0.97164  0.31491  0.05118  1.0000
  H   H3057     1.0  0.77367  0.32283  0.99472  1.0000
  H   H3058     1.0  0.87219  0.43496  0.07083  1.0000
  H   H3059     1.0  0.77221  0.30382  0.97662  1.0000
  C   C3849     1.0  0.97330  0.36512  0.16734  1.0000
  C   C3850     1.0  0.91322  0.30684  0.17422  1.0000
  H   H3060     1.0  0.67175  0.25292  0.02952  1.0000
  H   H3061     1.0  0.74139  0.40319  0.15350  1.0000
  H   H3062     1.0  0.89087  0.25500  0.12474  1.0000
  C   C3851     1.0  0.93008  0.29572  0.05739  1.0000
  C   C3852     1.0  0.93346  0.30164  0.03914  1.0000
  C   C3853     1.0  0.93179  0.31957  0.03166  1.0000
  C   C3854     1.0  0.92677  0.33169  0.04232  1.0000
  C   C3855     1.0  0.92336  0.32590  0.06045  1.0000
  C   C3856     1.0  0.92481  0.30802  0.06801  1.0000
  H   H3063     1.0  0.96038  0.28606  0.07357  1.0000
  C   C3857     1.0  0.89624  0.27741  0.07292  1.0000
  H   H3064     1.0  0.69011  0.41738  0.04178  1.0000
  H   H3065     1.0  0.93750  0.29250  0.03062  1.0000
  H   H3066     1.0  0.93447  0.32404  0.01758  1.0000
  H   H3067     1.0  0.92550  0.34557  0.03656  1.0000
  H   H3068     1.0  0.91966  0.33528  0.06869  1.0000
  H   H3069     1.0  0.92199  0.30384  0.08213  1.0000
  C   C3858     1.0  0.70085  0.25597  0.99011  1.0000
  H   H3070     1.0  0.98128  0.27517  0.15686  1.0000
  C   C3859     1.0  0.98010  0.45752  0.08390  1.0000
  H   H3071     1.0  0.74416  0.43740  0.15775  1.0000
  C   C3860     1.0  0.72561  0.26097  0.11965  1.0000
  C   C3861     1.0  0.77044  0.41834  0.19132  1.0000
  H   H3072     1.0  0.70721  0.28795  0.00581  1.0000
  H   H3073     1.0  0.79797  0.26741  0.12634  1.0000
  H   H3074     1.0  0.80425  0.47692  0.16357  1.0000
  C   C3862     1.0  0.73001  0.30712  0.97936  1.0000
  H   H3075     1.0  0.76598  0.29289  0.11905  1.0000
  H   H3076     1.0  0.88171  0.47244  0.02259  1.0000
  C   C3863     1.0  0.78764  0.42429  0.05760  1.0000
  C   C3864     1.0  0.76562  0.24564  0.16120  1.0000
  H   H3077     1.0  0.75289  0.27183  0.15060  1.0000
  H   H3078     1.0  0.71629  0.44483  0.14760  1.0000
  C   C3865     1.0  0.77338  0.42200  0.07184  1.0000
  C   C3866     1.0  0.71175  0.24403  0.10912  1.0000
  H   H3079     1.0  0.70568  0.24947  0.97927  1.0000
  C   C3867     1.0  0.78761  0.27033  0.07730  1.0000
  C   C3868     1.0  0.94808  0.26046  0.05133  1.0000
  H   H3080     1.0  0.94662  0.42952  0.12713  1.0000
  H   H3081     1.0  0.89563  0.29139  0.06954  1.0000
  C   C3869     1.0  0.76026  0.44513  0.13199  1.0000
  H   H3082     1.0  0.71400  0.46971  0.07029  1.0000
  H   H3083     1.0  0.76333  0.42247  0.20337  1.0000
  C   C3870     1.0  0.96649  0.25669  0.04984  1.0000
  H   H3084     1.0  0.85014  0.24692  0.11781  1.0000
  C   C3871     1.0  0.76150  0.28316  0.06515  1.0000
  H   H3085     1.0  0.87951  0.28387  0.10692  1.0000
  C   C3872     1.0  0.95405  0.37024  0.19487  1.0000
  H   H3086     1.0  0.72740  0.33866  0.13115  1.0000
  H   H3087     1.0  0.87615  0.33292  0.19355  1.0000
  C   C3873     1.0  0.82503  0.47512  0.08440  1.0000
  H   H3088     1.0  0.95515  0.43169  0.09561  1.0000
  H   H3089     1.0  0.77828  0.38818  0.09781  1.0000
  H   H3090     1.0  0.97502  0.28918  0.03894  1.0000
  H   H3091     1.0  0.74820  0.43379  0.02881  1.0000
  C   C3874     1.0  0.76166  0.41191  0.07206  1.0000
  C   C3875     1.0  0.80477  0.47164  0.06895  1.0000
  H   H3092     1.0  0.84129  0.24067  0.00992  1.0000
  C   C3876     1.0  0.72096  0.30127  0.12505  1.0000
  H   H3093     1.0  0.86787  0.28080  0.07677  1.0000
  C   C3877     1.0  0.75274  0.40167  0.11035  1.0000
  C   C3878     1.0  0.95867  0.26074  0.11445  1.0000
  C   C3879     1.0  0.72842  0.45358  0.12060  1.0000
  H   H3094     1.0  0.80060  0.27703  0.15161  1.0000
  H   H3095     1.0  0.95760  0.48149  0.02053  1.0000
  H   H3096     1.0  0.90596  0.47126  0.04659  1.0000
  H   H3097     1.0  0.77941  0.23414  0.08826  1.0000
  C   C3880     1.0  0.75996  0.45203  0.11429  1.0000
  H   H3098     1.0  0.99005  0.43264  0.05368  1.0000
  S   S544      1.0  0.78600  0.46415  0.06975  1.0000
  C   C3881     1.0  0.69874  0.39735  0.99978  1.0000
  C   C3882     1.0  0.90411  0.26553  0.13787  1.0000
  H   H3099     1.0  0.79614  0.38216  0.17657  1.0000
  H   H3100     1.0  0.70763  0.41314  0.11169  1.0000
  C   C3883     1.0  0.77690  0.26723  0.09407  1.0000
  H   H3101     1.0  0.71180  0.26709  0.14478  1.0000
  H   H3102     1.0  0.94266  0.25038  0.98077  1.0000
  C   C3884     1.0  0.93684  0.25653  0.10154  1.0000
  C   C3885     1.0  0.75667  0.41677  0.98221  1.0000
  H   H3103     1.0  0.92725  0.25881  0.04012  1.0000
  H   H3104     1.0  0.75536  0.36966  0.10021  1.0000
  C   C3886     1.0  0.78032  0.42531  0.15970  1.0000
  H   H3105     1.0  0.73961  0.44473  0.07023  1.0000
  H   H3106     1.0  0.69672  0.37107  0.00126  1.0000
  C   C3887     1.0  0.88090  0.25352  0.08147  1.0000
  H   H3107     1.0  0.97468  0.47075  0.08581  1.0000
  C   C3888     1.0  0.88049  0.27150  0.07699  1.0000
  C   C3889     1.0  0.74813  0.31638  0.12548  1.0000
  H   H3108     1.0  0.75876  0.32247  0.12491  1.0000
  C   C3890     1.0  0.81236  0.25106  0.16434  1.0000
  H   H3109     1.0  0.74419  0.46162  0.09486  1.0000
  H   H3110     1.0  0.71034  0.29605  0.12414  1.0000
  C   C3891     1.0  0.72569  0.25206  0.10713  1.0000
  H   H3111     1.0  0.73884  0.29906  0.98778  1.0000
  C   C3892     1.0  0.74891  0.24887  0.99225  1.0000
  C   C3893     1.0  0.78335  0.46153  0.14173  1.0000
  C   C3894     1.0  0.79385  0.46142  0.15293  1.0000
  C   C3895     1.0  0.88662  0.29937  0.17259  1.0000
  H   H3112     1.0  0.98821  0.39772  0.05427  1.0000
  H   H3113     1.0  0.94585  0.45983  0.07600  1.0000
  H   H3114     1.0  0.72491  0.43986  0.00009  1.0000
  H   H3115     1.0  0.78416  0.41990  0.11402  1.0000
  H   H3116     1.0  0.98103  0.40712  0.15106  1.0000
  C   C3896     1.0  0.71976  0.44256  0.03563  1.0000
  P   P128      1.0  0.93313  0.27254  0.06718  1.0000
  C   C3897     1.0  0.69660  0.45582  0.09115  1.0000
  H   H3117     1.0  0.68215  0.43845  0.11147  1.0000
  C   C3898     1.0  0.74416  0.45618  0.10860  1.0000
  C   C3899     1.0  0.69485  0.43987  0.10283  1.0000
  C   C3900     1.0  0.97801  0.24888  0.03644  1.0000
  C   C3901     1.0  0.80477  0.26327  0.15113  1.0000
  C   C3902     1.0  0.74938  0.39995  0.14129  1.0000
  C   C3903     1.0  0.79017  0.41671  0.04344  1.0000
  C   C3904     1.0  0.79927  0.43251  0.12315  1.0000
  C   C3905     1.0  0.94379  0.47104  0.11610  1.0000
  H   H3118     1.0  0.71492  0.40747  0.07574  1.0000
  Fe  Fe282     1.0  0.88905  0.47275  0.11213  1.0000
  H   H3119     1.0  0.97430  0.27943  0.09850  1.0000
  S   S545      1.0  0.83217  0.26333  0.08890  1.0000
  P   P129      1.0  0.74386  0.40813  0.09085  1.0000
  C   C3906     1.0  0.94237  0.26845  0.08612  1.0000
  C   C3907     1.0  0.90521  0.29658  0.16873  1.0000
  H   H3120     1.0  0.98693  0.29573  0.12842  1.0000
  C   C3908     1.0  0.75835  0.27198  0.09645  1.0000
  C   C3909     1.0  0.94202  0.39299  0.10787  1.0000
  C   C3910     1.0  0.94896  0.40717  0.09692  1.0000
  C   C3911     1.0  0.69764  0.25319  0.13639  1.0000
  H   H3121     1.0  0.97207  0.25977  0.05893  1.0000
  C   C3912     1.0  0.93726  0.40548  0.13305  1.0000
  C   C3913     1.0  0.93594  0.39229  0.12576  1.0000
  P   P130      1.0  0.93036  0.40404  0.15640  1.0000
  C   C3914     1.0  0.90940  0.39711  0.16452  1.0000
  C   C3915     1.0  0.76655  0.38966  0.14068  1.0000
  C   C3916     1.0  0.89335  0.40875  0.16964  1.0000
  C   C3917     1.0  0.87735  0.40312  0.17513  1.0000
  C   C3918     1.0  0.87719  0.38583  0.17573  1.0000
  C   C3919     1.0  0.89309  0.37403  0.17116  1.0000
  C   C3920     1.0  0.90914  0.37954  0.16587  1.0000
  C   C3921     1.0  0.92933  0.42521  0.16036  1.0000
  C   C3922     1.0  0.94193  0.42736  0.16814  1.0000
  C   C3923     1.0  0.94226  0.44405  0.16950  1.0000
  C   C3924     1.0  0.92998  0.45872  0.16321  1.0000
  C   C3925     1.0  0.91748  0.45673  0.15538  1.0000
  C   C3926     1.0  0.91741  0.44013  0.15360  1.0000
  H   H3122     1.0  0.94133  0.38243  0.10264  1.0000
  H   H3123     1.0  0.95354  0.40781  0.08303  1.0000
  H   H3124     1.0  0.93047  0.38127  0.13380  1.0000
  H   H3125     1.0  0.73770  0.24265  0.99774  1.0000
  H   H3126     1.0  0.89290  0.42214  0.16956  1.0000
  H   H3127     1.0  0.86500  0.41224  0.17881  1.0000
  H   H3128     1.0  0.86475  0.38154  0.17977  1.0000
  H   H3129     1.0  0.89294  0.36062  0.17163  1.0000
  C   C3927     1.0  0.95571  0.27692  0.08531  1.0000
  H   H3130     1.0  0.95208  0.41638  0.17248  1.0000
  H   H3131     1.0  0.95256  0.44563  0.17478  1.0000
  H   H3132     1.0  0.93062  0.47168  0.16377  1.0000
  H   H3133     1.0  0.90844  0.46810  0.14981  1.0000
  H   H3134     1.0  0.90854  0.43909  0.14626  1.0000
  C   C3928     1.0  0.74439  0.44253  0.14400  1.0000
  H   H3135     1.0  0.73119  0.33074  0.98552  1.0000
  C   C3929     1.0  0.94223  0.38324  0.18591  1.0000
  C   C3930     1.0  0.91252  0.26529  0.07324  1.0000
  Fe  Fe283     1.0  0.74251  0.47602  0.03233  1.0000
  H   H3136     1.0  0.70333  0.32547  0.13035  1.0000
  C   C3931     1.0  0.94513  0.25254  0.11555  1.0000
  H   H3137     1.0  0.80072  0.44914  0.15982  1.0000
  C   C3932     1.0  0.75765  0.25856  0.14863  1.0000
  H   H3138     1.0  0.77158  0.42808  0.08264  1.0000
  C   C3933     1.0  0.95012  0.42048  0.10400  1.0000
  C   C3934     1.0  0.73489  0.41293  0.03161  1.0000
  H   H3139     1.0  0.92710  0.48168  0.01945  1.0000
  H   H3140     1.0  0.93018  0.39015  0.19324  1.0000
  H   H3141     1.0  0.92751  0.30510  0.17134  1.0000
  H   H3142     1.0  0.75573  0.39619  0.05770  1.0000
  C   C3935     1.0  0.81353  0.48109  0.05344  1.0000
  C   C3936     1.0  0.96157  0.37818  0.15833  1.0000
  H   H3143     1.0  0.92137  0.37006  0.16271  1.0000
  C   C3937     1.0  0.77484  0.47772  0.13281  1.0000
  H   H3144     1.0  0.79668  0.43207  0.05749  1.0000
  H   H3145     1.0  0.95116  0.36715  0.20901  1.0000
  C   C3938     1.0  0.92071  0.25832  0.17126  1.0000
  C   C3939     1.0  0.96959  0.36117  0.18557  1.0000
  C   C3940     1.0  0.70430  0.38114  0.99498  1.0000
  P   P131      1.0  0.91851  0.27987  0.15693  1.0000
  C   C3941     1.0  0.94029  0.28467  0.14753  1.0000
  C   C3942     1.0  0.88774  0.28289  0.11578  1.0000
  H   H3146     1.0  0.70349  0.38335  0.07335  1.0000
  C   C3943     1.0  0.95292  0.24795  0.02613  1.0000
  C   C3944     1.0  0.77007  0.39157  0.10986  1.0000
  H   H3147     1.0  0.74699  0.40341  0.02835  1.0000
  C   C3945     1.0  0.98463  0.44425  0.09803  1.0000
  C   C3946     1.0  0.95395  0.27713  0.15677  1.0000
  C   C3947     1.0  0.97074  0.28099  0.14978  1.0000
  C   C3948     1.0  0.97395  0.29266  0.13371  1.0000
  C   C3949     1.0  0.96036  0.30053  0.12464  1.0000
  C   C3950     1.0  0.94360  0.29662  0.13150  1.0000
  C   C3951     1.0  0.90749  0.28078  0.14006  1.0000
  C   C3952     1.0  0.90095  0.29705  0.12981  1.0000
  C   C3953     1.0  0.89151  0.29800  0.11747  1.0000
  H   H3148     1.0  0.76389  0.44401  0.17522  1.0000
  C   C3954     1.0  0.98435  0.30946  0.04358  1.0000
  C   C3955     1.0  0.90912  0.25521  0.18765  1.0000
  H   H3149     1.0  0.78319  0.26144  0.10507  1.0000
  H   H3150     1.0  0.78049  0.40062  0.03277  1.0000
  C   C3956     1.0  0.84591  0.29759  0.98173  1.0000
  C   C3957     1.0  0.94485  0.41937  0.12200  1.0000
  H   H3151     1.0  0.88010  0.29177  0.16833  1.0000
  C   C3958     1.0  0.77943  0.40089  0.19175  1.0000
  C   C3959     1.0  0.78931  0.40774  0.16026  1.0000
  C   C3960     1.0  0.99416  0.40721  0.14290  1.0000
  C   C3961     1.0  0.80898  0.24020  0.13607  1.0000
  C   C3962     1.0  0.83478  0.28559  0.98910  1.0000
  H   H3152     1.0  0.95163  0.26844  0.16949  1.0000
  H   H3153     1.0  0.68531  0.46680  0.09068  1.0000
  H   H3154     1.0  0.80376  0.46143  0.09628  1.0000
  H   H3155     1.0  0.96277  0.30971  0.11225  1.0000
  H   H3156     1.0  0.93343  0.30305  0.12416  1.0000
  H   H3157     1.0  0.90282  0.30912  0.13154  1.0000
  H   H3158     1.0  0.88671  0.31057  0.10952  1.0000
  S   S546      1.0  0.99039  0.36939  0.10224  1.0000
  H   H3159     1.0  0.92671  0.24969  0.10263  1.0000
  H   H3160     1.0  0.88473  0.25389  0.03467  1.0000
  H   H3161     1.0  0.89873  0.26571  0.19217  1.0000
  C   C3963     1.0  0.73733  0.35932  0.09300  1.0000
  C   C3964     1.0  0.72254  0.36305  0.08577  1.0000
  C   C3965     1.0  0.71439  0.38044  0.07981  1.0000
  C   C3966     1.0  0.72086  0.39411  0.08133  1.0000
  C   C3967     1.0  0.73515  0.39044  0.08949  1.0000
  C   C3968     1.0  0.74361  0.37292  0.09495  1.0000
  H   H3162     1.0  0.68692  0.39978  0.00989  1.0000
  C   C3969     1.0  0.87532  0.25112  0.02909  1.0000
  H   H3163     1.0  0.98525  0.35797  0.16014  1.0000
  H   H3164     1.0  0.98100  0.40006  0.02602  1.0000
  H   H3165     1.0  0.86462  0.46453  0.05281  1.0000
  H   H3166     1.0  0.76735  0.24912  0.17241  1.0000
  H   H3167     1.0  0.84315  0.25114  0.17141  1.0000
  H   H3168     1.0  0.82711  0.27636  0.04910  1.0000
  C   C3970     1.0  0.72089  0.44904  0.98874  1.0000
  S   S547      1.0  0.98948  0.43996  0.14872  1.0000
  C   C3971     1.0  0.93077  0.47510  0.10643  1.0000
  S   S548      1.0  0.79428  0.34876  0.98827  1.0000
  C   C3972     1.0  0.76525  0.24022  0.99669  1.0000
  C   C3973     1.0  0.93407  0.24435  0.16588  1.0000
  H   H3169     1.0  0.98278  0.44725  0.11066  1.0000
  C   C3974     1.0  0.82828  0.27956  0.97806  1.0000
  H   H3170     1.0  0.78448  0.43639  0.99130  1.0000
  S   S549      1.0  0.70680  0.23740  0.06628  1.0000
  C   C3975     1.0  0.78211  0.32340  0.98183  1.0000
  H   H3171     1.0  0.86876  0.24891  0.08460  1.0000
  C   C3976     1.0  0.72549  0.32522  0.97824  1.0000
  C   C3977     1.0  0.91946  0.47079  0.04694  1.0000
  C   C3978     1.0  0.79586  0.47718  0.15512  1.0000
  C   C3979     1.0  0.78700  0.40842  0.99617  1.0000
  H   H3172     1.0  0.68676  0.25362  0.14772  1.0000
  H   H3173     1.0  0.98010  0.23817  0.01443  1.0000
  Fe  Fe284     1.0  0.77268  0.47726  0.04725  1.0000
  C   C3980     1.0  0.72496  0.40657  0.98012  1.0000
  C   C3981     1.0  0.76174  0.23673  0.13201  1.0000
  C   C3982     1.0  0.99062  0.45434  0.02117  1.0000
  H   H3174     1.0  0.76676  0.47834  0.12397  1.0000
  H   H3175     1.0  0.80933  0.48320  0.04143  1.0000
  C   C3983     1.0  0.99130  0.42700  0.09602  1.0000
  H   H3176     1.0  0.68670  0.23880  0.12488  1.0000
  H   H3177     1.0  0.90204  0.23605  0.21113  1.0000
  C   C3984     1.0  0.69762  0.24477  0.12361  1.0000
  C   C3985     1.0  0.87736  0.23421  0.02675  1.0000
  H   H3178     1.0  0.75983  0.48104  0.98707  1.0000
  C   C3986     1.0  0.99393  0.40146  0.02628  1.0000
  Fe  Fe285     1.0  0.83841  0.23411  0.09128  1.0000
  H   H3179     1.0  0.80765  0.23598  0.12510  1.0000
  H   H3180     1.0  0.98397  0.41360  0.63109  1.0000
  C   C3987     1.0  0.97327  0.44005  0.63485  1.0000
  H   H3181     1.0  0.86412  0.23481  0.60494  1.0000
  H   H3182     1.0  0.97755  0.44605  0.62123  1.0000
  H   H3183     1.0  0.88047  0.24281  0.57449  1.0000
  C   C3988     1.0  0.97692  0.42180  0.64038  1.0000
  H   H3184     1.0  0.93251  0.43399  0.64031  1.0000
  H   H3185     1.0  0.80811  0.23992  0.64160  1.0000
  H   H3186     1.0  0.85599  0.47251  0.64097  1.0000
  H   H3187     1.0  0.90206  0.24409  0.64129  1.0000
  S   S550      1.0  0.87153  0.32745  0.75079  1.0000
  S   S551      1.0  0.86109  0.34183  0.70391  1.0000
  Fe  Fe286     1.0  0.84524  0.33281  0.76921  1.0000
  S   S552      1.0  0.83685  0.30842  0.78587  1.0000
  Fe  Fe287     1.0  0.87564  0.35104  0.75685  1.0000
  S   S553      1.0  0.90033  0.35236  0.76363  1.0000
  S   S554      1.0  0.95223  0.38447  0.69636  1.0000
  Fe  Fe288     1.0  0.82099  0.30208  0.87836  1.0000
  S   S555      1.0  0.84407  0.28485  0.86423  1.0000
  Fe  Fe289     1.0  0.79789  0.30894  0.91305  1.0000
  S   S556      1.0  0.79042  0.29961  0.94212  1.0000
  S   S557      1.0  0.75699  0.31761  0.87339  1.0000
  S   S558      1.0  0.79702  0.29236  0.89558  1.0000
  H   H3188     1.0  0.94570  0.33373  0.65991  1.0000
  S   S559      1.0  0.98393  0.40616  0.70982  1.0000
  S   S560      1.0  0.73028  0.24956  0.87672  1.0000
  C   C3989     1.0  0.93272  0.33943  0.66686  1.0000
  C   C3990     1.0  0.87090  0.24296  0.81830  1.0000
  H   H3189     1.0  0.96211  0.46470  0.64254  1.0000
  H   H3190     1.0  0.82811  0.44002  0.83847  1.0000
  H   H3191     1.0  0.96765  0.45804  0.70630  1.0000
  S   S561      1.0  0.88887  0.45523  0.80723  1.0000
  H   H3192     1.0  0.78747  0.41804  0.91816  1.0000
  C   C3991     1.0  0.72053  0.45638  0.95801  1.0000
  C   C3992     1.0  0.84278  0.29843  0.95281  1.0000
  H   H3193     1.0  0.95166  0.28229  0.71878  1.0000
  H   H3194     1.0  0.90967  0.40067  0.77529  1.0000
  C   C3993     1.0  0.89307  0.27418  0.80189  1.0000
  H   H3195     1.0  0.94734  0.40245  0.64489  1.0000
  C   C3994     1.0  0.95057  0.24508  0.78336  1.0000
  C   C3995     1.0  0.96397  0.32306  0.68784  1.0000
  C   C3996     1.0  0.86877  0.29982  0.68345  1.0000
  C   C3997     1.0  0.76681  0.33247  0.82706  1.0000
  S   S562      1.0  0.85459  0.24298  0.74360  1.0000
  H   H3196     1.0  0.80296  0.43119  0.82925  1.0000
  S   S563      1.0  0.98971  0.48270  0.76705  1.0000
  H   H3197     1.0  0.76621  0.35873  0.96318  1.0000
  C   C3998     1.0  0.89144  0.23707  0.64689  1.0000
  H   H3198     1.0  0.78989  0.27000  0.97216  1.0000
  S   S564      1.0  0.79341  0.45239  0.89166  1.0000
  H   H3199     1.0  0.82662  0.28183  0.95158  1.0000
  P   P132      1.0  0.72664  0.27593  0.97363  1.0000
  C   C3999     1.0  0.93411  0.40662  0.65234  1.0000
  C   C4000     1.0  0.79685  0.45539  0.81085  1.0000
  H   H3200     1.0  0.71797  0.31673  0.90227  1.0000
  H   H3201     1.0  0.84811  0.41775  0.71404  1.0000
  C   C4001     1.0  0.88667  0.29180  0.79429  1.0000
  C   C4002     1.0  0.95924  0.44292  0.66477  1.0000
  H   H3202     1.0  0.82853  0.47578  0.83971  1.0000
  C   C4003     1.0  0.74817  0.42127  0.94814  1.0000
  H   H3203     1.0  0.76568  0.25045  0.73715  1.0000
  H   H3204     1.0  0.93175  0.42860  0.70336  1.0000
  S   S565      1.0  0.83334  0.47512  0.87407  1.0000
  H   H3205     1.0  0.81414  0.26596  0.87052  1.0000
  C   C4004     1.0  0.93593  0.31673  0.72004  1.0000
  C   C4005     1.0  0.89960  0.35510  0.68445  1.0000
  C   C4006     1.0  0.78484  0.48188  0.96882  1.0000
  C   C4007     1.0  0.71044  0.31045  0.96033  1.0000
  C   C4008     1.0  0.96450  0.45057  0.64698  1.0000
  H   H3206     1.0  0.96717  0.44239  0.73681  1.0000
  C   C4009     1.0  0.94037  0.32166  0.74639  1.0000
  C   C4010     1.0  0.76642  0.42000  0.94107  1.0000
  H   H3207     1.0  0.77527  0.42014  0.94886  1.0000
  C   C4011     1.0  0.85243  0.43133  0.75218  1.0000
  C   C4012     1.0  0.82179  0.43287  0.74145  1.0000
  C   C4013     1.0  0.78834  0.38766  0.86706  1.0000
  Fe  Fe290     1.0  0.80468  0.47589  0.87653  1.0000
  C   C4014     1.0  0.73065  0.40213  0.87324  1.0000
  H   H3208     1.0  0.99135  0.43929  0.75553  1.0000
  C   C4015     1.0  0.85629  0.46804  0.65470  1.0000
  C   C4016     1.0  0.86642  0.45150  0.66073  1.0000
  H   H3209     1.0  0.90616  0.33745  0.70771  1.0000
  H   H3210     1.0  0.94119  0.27436  0.66472  1.0000
  C   C4017     1.0  0.82900  0.44775  0.73706  1.0000
  P   P133      1.0  0.87914  0.42404  0.68656  1.0000
  C   C4018     1.0  0.90660  0.24337  0.70518  1.0000
  H   H3211     1.0  0.72298  0.42265  0.94261  1.0000
  H   H3212     1.0  0.94998  0.41921  0.75050  1.0000
  C   C4019     1.0  0.96133  0.47387  0.67429  1.0000
  C   C4020     1.0  0.75064  0.29800  0.87453  1.0000
  C   C4021     1.0  0.76173  0.28127  0.87779  1.0000
  C   C4022     1.0  0.75596  0.26617  0.87819  1.0000
  C   C4023     1.0  0.73898  0.26779  0.87556  1.0000
  C   C4024     1.0  0.72800  0.28450  0.87243  1.0000
  C   C4025     1.0  0.73380  0.29945  0.87183  1.0000
  H   H3213     1.0  0.77477  0.27996  0.87986  1.0000
  H   H3214     1.0  0.76459  0.25335  0.88068  1.0000
  H   H3215     1.0  0.71488  0.28592  0.87042  1.0000
  H   H3216     1.0  0.72514  0.31225  0.86928  1.0000
  C   C4026     1.0  0.79162  0.31358  0.95453  1.0000
  H   H3217     1.0  0.95958  0.41825  0.68371  1.0000
  C   C4027     1.0  0.91552  0.25242  0.67380  1.0000
  H   H3218     1.0  0.95813  0.33787  0.77696  1.0000
  C   C4028     1.0  0.80459  0.33541  0.95866  1.0000
  C   C4029     1.0  0.80318  0.32513  0.94802  1.0000
  C   C4030     1.0  0.95972  0.44827  0.71207  1.0000
  P   P134      1.0  0.89660  0.25669  0.79074  1.0000
  H   H3219     1.0  0.81366  0.34421  0.95368  1.0000
  H   H3220     1.0  0.81126  0.32590  0.93491  1.0000
  C   C4031     1.0  0.86072  0.32094  0.70185  1.0000
  C   C4032     1.0  0.85250  0.30909  0.71561  1.0000
  C   C4033     1.0  0.85265  0.29244  0.71332  1.0000
  H   H3221     1.0  0.74103  0.32619  0.83663  1.0000
  H   H3222     1.0  0.88351  0.24647  0.67068  1.0000
  S   S566      1.0  0.79011  0.48266  0.85491  1.0000
  H   H3223     1.0  0.84584  0.31290  0.72790  1.0000
  H   H3224     1.0  0.84625  0.28332  0.72388  1.0000
  H   H3225     1.0  0.77155  0.27941  0.79026  1.0000
  C   C4034     1.0  0.90634  0.25644  0.68993  1.0000
  C   C4035     1.0  0.84352  0.29157  0.84205  1.0000
  C   C4036     1.0  0.84352  0.27925  0.83309  1.0000
  C   C4037     1.0  0.84182  0.28454  0.81571  1.0000
  C   C4038     1.0  0.84035  0.30218  0.80714  1.0000
  H   H3226     1.0  0.84412  0.26572  0.83986  1.0000
  H   H3227     1.0  0.84140  0.27499  0.80897  1.0000
  C   C4039     1.0  0.91476  0.36123  0.74497  1.0000
  C   C4040     1.0  0.92830  0.36793  0.74668  1.0000
  C   C4041     1.0  0.93989  0.37511  0.73177  1.0000
  C   C4042     1.0  0.93781  0.37569  0.71515  1.0000
  C   C4043     1.0  0.92422  0.36904  0.71349  1.0000
  C   C4044     1.0  0.91270  0.36182  0.72839  1.0000
  H   H3228     1.0  0.92967  0.36773  0.75952  1.0000
  H   H3229     1.0  0.95026  0.38038  0.73314  1.0000
  H   H3230     1.0  0.92287  0.36906  0.70072  1.0000
  H   H3231     1.0  0.90245  0.35637  0.72707  1.0000
  H   H3232     1.0  0.88327  0.29555  0.78171  1.0000
  Fe  Fe291     1.0  0.85741  0.34639  0.73078  1.0000
  Fe  Fe292     1.0  0.78183  0.31710  0.88158  1.0000
  H   H3233     1.0  0.74262  0.38741  0.96589  1.0000
  C   C4045     1.0  0.91069  0.34154  0.69375  1.0000
  H   H3234     1.0  0.88522  0.31105  0.82686  1.0000
  C   C4046     1.0  0.97922  0.31063  0.68256  1.0000
  C   C4047     1.0  0.96520  0.34050  0.68541  1.0000
  H   H3235     1.0  0.89879  0.24632  0.71759  1.0000
  P   P135      1.0  0.94266  0.31725  0.69690  1.0000
  C   C4048     1.0  0.70579  0.32852  0.95938  1.0000
  H   H3236     1.0  0.88676  0.28512  0.72121  1.0000
  C   C4049     1.0  0.94504  0.32337  0.72827  1.0000
  C   C4050     1.0  0.87469  0.28238  0.74864  1.0000
  C   C4051     1.0  0.92025  0.46893  0.66381  1.0000
  C   C4052     1.0  0.93952  0.43179  0.71051  1.0000
  C   C4053     1.0  0.95954  0.43935  0.72943  1.0000
  H   H3237     1.0  0.76138  0.28502  0.96382  1.0000
  C   C4054     1.0  0.91413  0.47298  0.69336  1.0000
  C   C4055     1.0  0.71055  0.47316  0.95962  1.0000
  C   C4056     1.0  0.74411  0.42058  0.91993  1.0000
  H   H3238     1.0  0.93258  0.38063  0.66767  1.0000
  S   S567      1.0  0.98977  0.27216  0.71760  1.0000
  H   H3239     1.0  0.85694  0.37892  0.67358  1.0000
  S   S568      1.0  0.98817  0.36328  0.72400  1.0000
  H   H3240     1.0  0.91832  0.47145  0.70532  1.0000
  H   H3241     1.0  0.91440  0.30391  0.72403  1.0000
  C   C4057     1.0  0.84237  0.47078  0.84011  1.0000
  H   H3242     1.0  0.96119  0.25215  0.77790  1.0000
  C   C4058     1.0  0.96300  0.42459  0.67015  1.0000
  H   H3243     1.0  0.80980  0.43364  0.73743  1.0000
  C   C4059     1.0  0.77862  0.40494  0.86253  1.0000
  S   S569      1.0  0.82063  0.39859  0.75543  1.0000
  C   C4060     1.0  0.91917  0.24483  0.79056  1.0000
  H   H3244     1.0  0.70953  0.34991  0.96766  1.0000
  C   C4061     1.0  0.90505  0.26894  0.73721  1.0000
  C   C4062     1.0  0.88706  0.40741  0.71913  1.0000
  H   H3245     1.0  0.69921  0.23696  0.90378  1.0000
  C   C4063     1.0  0.84098  0.38740  0.69683  1.0000
  C   C4064     1.0  0.88549  0.42301  0.70634  1.0000
  C   C4065     1.0  0.86595  0.46243  0.85584  1.0000
  C   C4066     1.0  0.79458  0.47969  0.95214  1.0000
  C   C4067     1.0  0.76653  0.37298  0.91371  1.0000
  C   C4068     1.0  0.87818  0.45760  0.84115  1.0000
  H   H3246     1.0  0.89864  0.26959  0.69060  1.0000
  C   C4069     1.0  0.85435  0.39889  0.84461  1.0000
  C   C4070     1.0  0.71331  0.33593  0.96831  1.0000
  H   H3247     1.0  0.91578  0.26635  0.72620  1.0000
  C   C4071     1.0  0.80348  0.38462  0.87366  1.0000
  C   C4072     1.0  0.72910  0.39333  0.89077  1.0000
  H   H3248     1.0  0.91480  0.26248  0.66196  1.0000
  H   H3249     1.0  0.85221  0.40380  0.76296  1.0000
  H   H3250     1.0  0.89672  0.28011  0.84043  1.0000
  C   C4073     1.0  0.88866  0.27939  0.73440  1.0000
  C   C4074     1.0  0.81313  0.38446  0.80281  1.0000
  H   H3251     1.0  0.81542  0.36043  0.84374  1.0000
  C   C4075     1.0  0.84429  0.44711  0.74242  1.0000
  H   H3252     1.0  0.69846  0.40440  0.95639  1.0000
  H   H3253     1.0  0.83447  0.43871  0.86657  1.0000
  C   C4076     1.0  0.92571  0.39427  0.66504  1.0000
  C   C4077     1.0  0.76206  0.23910  0.76469  1.0000
  C   C4078     1.0  0.94959  0.44467  0.70251  1.0000
  C   C4079     1.0  0.81721  0.37073  0.83211  1.0000
  C   C4080     1.0  0.86871  0.31627  0.68576  1.0000
  H   H3254     1.0  0.71591  0.34740  0.90248  1.0000
  H   H3255     1.0  0.83851  0.27466  0.75584  1.0000
  C   C4081     1.0  0.76103  0.30414  0.82911  1.0000
  C   C4082     1.0  0.89237  0.40668  0.73427  1.0000
  H   H3256     1.0  0.74034  0.39973  0.84641  1.0000
  Fe  Fe293     1.0  0.86909  0.47328  0.75003  1.0000
  C   C4083     1.0  0.89605  0.40355  0.78248  1.0000
  C   C4084     1.0  0.83135  0.44574  0.79161  1.0000
  C   C4085     1.0  0.92135  0.35262  0.65754  1.0000
  H   H3257     1.0  0.86012  0.38780  0.83849  1.0000
  H   H3258     1.0  0.98056  0.30484  0.72750  1.0000
  C   C4086     1.0  0.83045  0.26043  0.78214  1.0000
  C   C4087     1.0  0.80245  0.28953  0.78544  1.0000
  C   C4088     1.0  0.80402  0.27531  0.79981  1.0000
  C   C4089     1.0  0.81798  0.26062  0.79793  1.0000
  P   P136      1.0  0.78732  0.27548  0.81987  1.0000
  C   C4090     1.0  0.76935  0.26741  0.81780  1.0000
  C   C4091     1.0  0.79707  0.26231  0.83812  1.0000
  C   C4092     1.0  0.80214  0.27016  0.84876  1.0000
  H   H3259     1.0  0.80007  0.28425  0.84658  1.0000
  H   H3260     1.0  0.93765  0.30420  0.66859  1.0000
  C   C4093     1.0  0.90692  0.48110  0.84280  1.0000
  C   C4094     1.0  0.80022  0.24395  0.84146  1.0000
  C   C4095     1.0  0.76437  0.27175  0.80168  1.0000
  C   C4096     1.0  0.74998  0.26623  0.80013  1.0000
  C   C4097     1.0  0.74044  0.25632  0.81465  1.0000
  C   C4098     1.0  0.74523  0.25204  0.83074  1.0000
  C   C4099     1.0  0.75956  0.25762  0.83238  1.0000
  H   H3261     1.0  0.84124  0.24913  0.78080  1.0000
  H   H3262     1.0  0.79175  0.30096  0.78644  1.0000
  H   H3263     1.0  0.81939  0.24929  0.80852  1.0000
  H   H3264     1.0  0.88689  0.36137  0.69137  1.0000
  H   H3265     1.0  0.79452  0.47281  0.92839  1.0000
  C   C4100     1.0  0.84973  0.30412  0.96365  1.0000
  H   H3266     1.0  0.74625  0.26968  0.78764  1.0000
  H   H3267     1.0  0.72924  0.25212  0.81349  1.0000
  C   C4101     1.0  0.80795  0.43962  0.81703  1.0000
  C   C4102     1.0  0.76220  0.27269  0.97329  1.0000
  H   H3268     1.0  0.75170  0.29566  0.83296  1.0000
  H   H3269     1.0  0.95577  0.32981  0.72087  1.0000
  C   C4103     1.0  0.88101  0.23840  0.66348  1.0000
  C   C4104     1.0  0.90477  0.36044  0.66635  1.0000
  C   C4105     1.0  0.94412  0.29558  0.69410  1.0000
  H   H3270     1.0  0.90632  0.30099  0.75592  1.0000
  C   C4106     1.0  0.92179  0.30885  0.73015  1.0000
  C   C4107     1.0  0.81015  0.25978  0.86247  1.0000
  C   C4108     1.0  0.87275  0.46009  0.82566  1.0000
  H   H3271     1.0  0.73553  0.42113  0.91157  1.0000
  C   C4109     1.0  0.76922  0.47315  0.94652  1.0000
  Fe  Fe294     1.0  0.97774  0.38419  0.70268  1.0000
  H   H3272     1.0  0.73765  0.24464  0.84208  1.0000
  C   C4110     1.0  0.94450  0.47765  0.75799  1.0000
  H   H3273     1.0  0.72459  0.45333  0.94523  1.0000
  C   C4111     1.0  0.95041  0.26397  0.70498  1.0000
  C   C4112     1.0  0.97866  0.48074  0.73892  1.0000
  C   C4113     1.0  0.92570  0.42438  0.64975  1.0000
  C   C4114     1.0  0.94315  0.27618  0.67663  1.0000
  H   H3274     1.0  0.90276  0.44357  0.65811  1.0000
  H   H3275     1.0  0.77771  0.23627  0.79744  1.0000
  H   H3276     1.0  0.94727  0.32703  0.75263  1.0000
  H   H3277     1.0  0.84539  0.30375  0.93884  1.0000
  H   H3278     1.0  0.95361  0.35026  0.68945  1.0000
  C   C4115     1.0  0.94766  0.26161  0.68973  1.0000
  H   H3279     1.0  0.82473  0.46959  0.77275  1.0000
  C   C4116     1.0  0.85620  0.45612  0.69027  1.0000
  C   C4117     1.0  0.78683  0.47507  0.94105  1.0000
  C   C4118     1.0  0.86678  0.44562  0.67852  1.0000
  H   H3280     1.0  0.87033  0.46089  0.86767  1.0000
  C   C4119     1.0  0.85479  0.46644  0.82515  1.0000
  S   S570      1.0  0.85333  0.46604  0.73517  1.0000
  H   H3281     1.0  0.79423  0.47838  0.79004  1.0000
  Fe  Fe295     1.0  0.77722  0.46028  0.87120  1.0000
  S   S571      1.0  0.83183  0.23415  0.71963  1.0000
  C   C4120     1.0  0.78119  0.31267  0.97149  1.0000
  H   H3282     1.0  0.93274  0.41204  0.73349  1.0000
  C   C4121     1.0  0.83218  0.28607  0.96001  1.0000
  C   C4122     1.0  0.91721  0.30711  0.74825  1.0000
  H   H3283     1.0  0.89592  0.37065  0.65919  1.0000
  C   C4123     1.0  0.92650  0.31349  0.75639  1.0000
  H   H3284     1.0  0.84454  0.44223  0.78386  1.0000
  C   C4124     1.0  0.73678  0.30620  0.91874  1.0000
  C   C4125     1.0  0.74667  0.30997  0.92829  1.0000
  H   H3285     1.0  0.73868  0.29294  0.91733  1.0000
  H   H3286     1.0  0.75606  0.29950  0.93457  1.0000
  Fe  Fe296     1.0  0.83888  0.37211  0.75456  1.0000
  C   C4126     1.0  0.94886  0.28083  0.70708  1.0000
  C   C4127     1.0  0.88423  0.30503  0.80312  1.0000
  C   C4128     1.0  0.77341  0.41891  0.92360  1.0000
  C   C4129     1.0  0.86091  0.41055  0.80160  1.0000
  C   C4130     1.0  0.90763  0.26188  0.75423  1.0000
  C   C4131     1.0  0.71396  0.38678  0.93952  1.0000
  C   C4132     1.0  0.85497  0.38766  0.68216  1.0000
  C   C4133     1.0  0.89015  0.43753  0.70847  1.0000
  H   H3287     1.0  0.72284  0.40075  0.90084  1.0000
  C   C4134     1.0  0.89648  0.42142  0.73650  1.0000
  H   H3288     1.0  0.98690  0.45608  0.66912  1.0000
  H   H3289     1.0  0.87500  0.29639  0.67093  1.0000
  C   C4135     1.0  0.90007  0.41734  0.67222  1.0000
  P   P137      1.0  0.73422  0.36386  0.91776  1.0000
  S   S572      1.0  0.86180  0.26721  0.69338  1.0000
  C   C4136     1.0  0.88980  0.41813  0.79010  1.0000
  H   H3290     1.0  0.76766  0.41876  0.89944  1.0000
  C   C4137     1.0  0.89715  0.27016  0.81840  1.0000
  C   C4138     1.0  0.83637  0.42821  0.84445  1.0000
  C   C4139     1.0  0.75941  0.47595  0.96290  1.0000
  C   C4140     1.0  0.87707  0.27504  0.76563  1.0000
  H   H3291     1.0  0.91111  0.47242  0.85432  1.0000
  H   H3292     1.0  0.94909  0.24847  0.68811  1.0000
  H   H3293     1.0  0.84207  0.31879  0.84047  1.0000
  C   C4141     1.0  0.89372  0.26527  0.76858  1.0000
  C   C4142     1.0  0.80880  0.39879  0.87571  1.0000
  C   C4143     1.0  0.75277  0.36028  0.94320  1.0000
  C   C4144     1.0  0.85014  0.40943  0.70502  1.0000
  C   C4145     1.0  0.76226  0.41930  0.91303  1.0000
  C   C4146     1.0  0.89540  0.43682  0.72359  1.0000
  H   H3294     1.0  0.85553  0.45152  0.70417  1.0000
  H   H3295     1.0  0.87493  0.32542  0.67504  1.0000
  C   C4147     1.0  0.89427  0.28340  0.82739  1.0000
  H   H3296     1.0  0.79097  0.38063  0.91085  1.0000
  H   H3297     1.0  0.76829  0.24813  0.76722  1.0000
  H   H3298     1.0  0.92997  0.26817  0.77940  1.0000
  H   H3299     1.0  0.90222  0.25670  0.82449  1.0000
  C   C4148     1.0  0.94841  0.48003  0.73980  1.0000
  H   H3300     1.0  0.89851  0.44826  0.72533  1.0000
  C   C4149     1.0  0.73709  0.42147  0.93745  1.0000
  H   H3301     1.0  0.86404  0.43080  0.75666  1.0000
  H   H3302     1.0  0.83227  0.37841  0.69962  1.0000
  C   C4150     1.0  0.86654  0.39886  0.67885  1.0000
  H   H3303     1.0  0.78431  0.37678  0.86519  1.0000
  C   C4151     1.0  0.84014  0.42763  0.86035  1.0000
  H   H3304     1.0  0.88953  0.44944  0.69852  1.0000
  H   H3305     1.0  0.89197  0.45232  0.84165  1.0000
  C   C4152     1.0  0.72935  0.25944  0.92293  1.0000
  H   H3306     1.0  0.82745  0.39836  0.71939  1.0000
  H   H3307     1.0  0.70683  0.48257  0.94823  1.0000
  C   C4153     1.0  0.83023  0.41691  0.75055  1.0000
  H   H3308     1.0  0.76710  0.40740  0.85718  1.0000
  H   H3309     1.0  0.80340  0.42671  0.87276  1.0000
  C   C4154     1.0  0.92741  0.33368  0.68503  1.0000
  H   H3310     1.0  0.95396  0.25275  0.71518  1.0000
  H   H3311     1.0  0.72575  0.41620  0.86988  1.0000
  C   C4155     1.0  0.91414  0.39246  0.85774  1.0000
  C   C4156     1.0  0.90289  0.40757  0.85048  1.0000
  C   C4157     1.0  0.89573  0.40743  0.83680  1.0000
  C   C4158     1.0  0.89966  0.39216  0.83048  1.0000
  C   C4159     1.0  0.91105  0.37698  0.83756  1.0000
  C   C4160     1.0  0.91829  0.37722  0.85127  1.0000
  P   P138      1.0  0.91657  0.35784  0.82837  1.0000
  C   C4161     1.0  0.89590  0.35421  0.82688  1.0000
  C   C4162     1.0  0.93175  0.36111  0.80732  1.0000
  C   C4163     1.0  0.93707  0.37715  0.79976  1.0000
  C   C4164     1.0  0.94990  0.37891  0.78415  1.0000
  C   C4165     1.0  0.95750  0.36475  0.77599  1.0000
  C   C4166     1.0  0.95222  0.34881  0.78335  1.0000
  C   C4167     1.0  0.93945  0.34696  0.79898  1.0000
  C   C4168     1.0  0.88168  0.35375  0.84153  1.0000
  C   C4169     1.0  0.86553  0.35115  0.84049  1.0000
  C   C4170     1.0  0.86340  0.34929  0.82474  1.0000
  C   C4171     1.0  0.87740  0.34997  0.81011  1.0000
  C   C4172     1.0  0.89360  0.35236  0.81113  1.0000
  C   C4173     1.0  0.92799  0.33889  0.84189  1.0000
  C   C4174     1.0  0.94579  0.33761  0.84187  1.0000
  C   C4175     1.0  0.95506  0.32288  0.85186  1.0000
  C   C4176     1.0  0.94667  0.30927  0.86188  1.0000
  C   C4177     1.0  0.92902  0.31035  0.86187  1.0000
  C   C4178     1.0  0.91970  0.32506  0.85188  1.0000
  H   H3312     1.0  0.91972  0.39259  0.86833  1.0000
  H   H3313     1.0  0.89966  0.41939  0.85544  1.0000
  H   H3314     1.0  0.88697  0.41916  0.83120  1.0000
  H   H3315     1.0  0.89384  0.39214  0.82004  1.0000
  H   H3316     1.0  0.92709  0.36573  0.85704  1.0000
  H   H3317     1.0  0.93170  0.38822  0.80596  1.0000
  H   H3318     1.0  0.95432  0.39114  0.77849  1.0000
  H   H3319     1.0  0.96756  0.36613  0.76398  1.0000
  C   C4179     1.0  0.76059  0.24040  0.74772  1.0000
  H   H3320     1.0  0.93567  0.33443  0.80465  1.0000
  H   H3321     1.0  0.88307  0.35538  0.85378  1.0000
  H   H3322     1.0  0.85457  0.35074  0.85185  1.0000
  H   H3323     1.0  0.85090  0.34739  0.82383  1.0000
  H   H3324     1.0  0.87574  0.34876  0.79784  1.0000
  H   H3325     1.0  0.90409  0.35299  0.79948  1.0000
  H   H3326     1.0  0.95256  0.34798  0.83404  1.0000
  H   H3327     1.0  0.96881  0.32198  0.85174  1.0000
  H   H3328     1.0  0.95391  0.29782  0.86955  1.0000
  H   H3329     1.0  0.92256  0.29971  0.86951  1.0000
  H   H3330     1.0  0.90616  0.32537  0.85192  1.0000
  H   H3331     1.0  0.70432  0.30509  0.95340  1.0000
  H   H3332     1.0  0.92487  0.46515  0.82526  1.0000
  S   S573      1.0  0.80576  0.32579  0.86284  1.0000
  C   C4180     1.0  0.81328  0.24152  0.86563  1.0000
  H   H3333     1.0  0.98229  0.35879  0.67673  1.0000
  C   C4181     1.0  0.86453  0.40938  0.69060  1.0000
  Fe  Fe297     1.0  0.80666  0.33917  0.88312  1.0000
  C   C4182     1.0  0.85800  0.39830  0.86056  1.0000
  H   H3334     1.0  0.75624  0.25925  0.94840  1.0000
  C   C4183     1.0  0.75266  0.36557  0.92534  1.0000
  C   C4184     1.0  0.92606  0.46653  0.67920  1.0000
  H   H3335     1.0  0.88943  0.38154  0.77800  1.0000
  H   H3336     1.0  0.90269  0.39000  0.68523  1.0000
  C   C4185     1.0  0.80291  0.46626  0.79494  1.0000
  H   H3337     1.0  0.87896  0.31849  0.79722  1.0000
  S   S574      1.0  0.77112  0.44056  0.86007  1.0000
  C   C4186     1.0  0.71307  0.26722  0.93228  1.0000
  C   C4187     1.0  0.82010  0.46137  0.78527  1.0000
  H   H3338     1.0  0.86634  0.38669  0.86680  1.0000
  H   H3339     1.0  0.78351  0.45905  0.81841  1.0000
  Fe  Fe298     1.0  0.85641  0.24422  0.71542  1.0000
  H   H3340     1.0  0.95416  0.47666  0.78051  1.0000
  C   C4188     1.0  0.86090  0.28778  0.69721  1.0000
  C   C4189     1.0  0.78384  0.41908  0.86488  1.0000
  H   H3341     1.0  0.70110  0.26921  0.92767  1.0000
  C   C4190     1.0  0.74592  0.37484  0.86425  1.0000
  C   C4191     1.0  0.72262  0.29954  0.97031  1.0000
  H   H3342     1.0  0.86199  0.29055  0.74666  1.0000
  C   C4192     1.0  0.79901  0.41592  0.87137  1.0000
  H   H3343     1.0  0.69682  0.36194  0.92374  1.0000
  H   H3344     1.0  0.86767  0.43280  0.80575  1.0000
  C   C4193     1.0  0.72395  0.33709  0.91041  1.0000
  C   C4194     1.0  0.97172  0.41411  0.65800  1.0000
  S   S575      1.0  0.99265  0.38944  0.75626  1.0000
  C   C4195     1.0  0.94967  0.42643  0.73722  1.0000
  C   C4196     1.0  0.68211  0.39113  0.95004  1.0000
  C   C4197     1.0  0.93291  0.25407  0.78415  1.0000
  H   H3345     1.0  0.82057  0.39649  0.88068  1.0000
  P   P139      1.0  0.83916  0.41413  0.81574  1.0000
  C   C4198     1.0  0.90878  0.42976  0.65977  1.0000
  H   H3346     1.0  0.76699  0.37699  0.89984  1.0000
  Fe  Fe299     1.0  0.77199  0.47138  0.90516  1.0000
  H   H3347     1.0  0.87268  0.25118  0.82576  1.0000
  S   S576      1.0  0.83072  0.35032  0.74874  1.0000
  H   H3348     1.0  0.80465  0.36078  0.81795  1.0000
  C   C4199     1.0  0.78485  0.32618  0.82071  1.0000
  C   C4200     1.0  0.93985  0.42250  0.72768  1.0000
  C   C4201     1.0  0.84568  0.41609  0.75584  1.0000
  S   S577      1.0  0.81687  0.36358  0.87861  1.0000
  S   S578      1.0  0.75923  0.46656  0.93361  1.0000
  H   H3349     1.0  0.69941  0.27782  0.95492  1.0000
  H   H3350     1.0  0.89859  0.42659  0.78892  1.0000
  P   P140      1.0  0.94897  0.45682  0.68039  1.0000
  C   C4202     1.0  0.75491  0.32148  0.83117  1.0000
  C   C4203     1.0  0.81484  0.28921  0.76963  1.0000
  C   C4204     1.0  0.72512  0.31970  0.91016  1.0000
  C   C4205     1.0  0.88090  0.24271  0.80125  1.0000
  C   C4206     1.0  0.88467  0.39270  0.78408  1.0000
  H   H3351     1.0  0.82300  0.40795  0.79073  1.0000
  C   C4207     1.0  0.85094  0.41271  0.86841  1.0000
  H   H3352     1.0  0.66922  0.37637  0.94111  1.0000
  H   H3353     1.0  0.85786  0.31378  0.95805  1.0000
  C   C4208     1.0  0.69750  0.37094  0.93096  1.0000
  C   C4209     1.0  0.73893  0.39286  0.85999  1.0000
  H   H3354     1.0  0.75350  0.32976  0.93605  1.0000
  C   C4210     1.0  0.84323  0.41368  0.83658  1.0000
  H   H3355     1.0  0.76212  0.34570  0.82920  1.0000
  H   H3356     1.0  0.97878  0.29700  0.68460  1.0000
  C   C4211     1.0  0.90879  0.39961  0.67499  1.0000
  H   H3357     1.0  0.97453  0.39995  0.66238  1.0000
  H   H3358     1.0  0.79421  0.33450  0.81770  1.0000
  H   H3359     1.0  0.75741  0.25047  0.92164  1.0000
  C   C4212     1.0  0.73585  0.37518  0.89514  1.0000
  H   H3360     1.0  0.80495  0.30418  0.81375  1.0000
  S   S579      1.0  0.89434  0.45815  0.75848  1.0000
  S   S580      1.0  0.82360  0.31583  0.89741  1.0000
  C   C4213     1.0  0.74516  0.32732  0.92903  1.0000
  H   H3361     1.0  0.86598  0.27740  0.77650  1.0000
  C   C4214     1.0  0.84207  0.30926  0.83351  1.0000
  H   H3362     1.0  0.82260  0.45987  0.72955  1.0000
  C   C4215     1.0  0.82887  0.27473  0.76803  1.0000
  C   C4216     1.0  0.77912  0.29779  0.82264  1.0000
  C   C4217     1.0  0.94122  0.29313  0.67884  1.0000
  S   S581      1.0  0.85043  0.35487  0.77712  1.0000
  C   C4218     1.0  0.84054  0.31459  0.81599  1.0000
  H   H3363     1.0  0.76279  0.25450  0.84506  1.0000
  H   H3364     1.0  0.81383  0.30039  0.75875  1.0000
  H   H3365     1.0  0.88430  0.39582  0.71738  1.0000
  H   H3366     1.0  0.89311  0.39475  0.74431  1.0000
  C   C4219     1.0  0.73409  0.34113  0.91970  1.0000
  C   C4220     1.0  0.88781  0.30084  0.81975  1.0000
  S   S582      1.0  0.86444  0.36973  0.73473  1.0000
  S   S583      1.0  0.78106  0.33329  0.90026  1.0000
  H   H3367     1.0  0.83906  0.32827  0.80951  1.0000
  H   H3368     1.0  0.83003  0.38335  0.84317  1.0000
  H   H3369     1.0  0.79652  0.23765  0.83342  1.0000
  C   C4221     1.0  0.79095  0.30893  0.81850  1.0000
  H   H3370     1.0  0.80817  0.48123  0.94792  1.0000
  H   H3371     1.0  0.66991  0.39750  0.95765  1.0000
  C   C4222     1.0  0.82149  0.39761  0.80237  1.0000
  H   H3372     1.0  0.92041  0.25370  0.75603  1.0000
  C   C4223     1.0  0.71221  0.27221  0.94762  1.0000
  C   C4224     1.0  0.84806  0.46908  0.85536  1.0000
  C   C4225     1.0  0.69820  0.39501  0.94932  1.0000
  C   C4226     1.0  0.76626  0.36274  0.94937  1.0000
  C   C4227     1.0  0.74480  0.25664  0.92886  1.0000
  C   C4228     1.0  0.78016  0.37517  0.91991  1.0000
  H   H3373     1.0  0.87372  0.44320  0.65160  1.0000
  C   C4229     1.0  0.83838  0.39851  0.70807  1.0000
  H   H3374     1.0  0.73000  0.25538  0.91117  1.0000
  C   C4230     1.0  0.77990  0.37028  0.93775  1.0000
  C   C4231     1.0  0.74402  0.26169  0.94414  1.0000
  H   H3375     1.0  0.79043  0.37205  0.94256  1.0000
  H   H3376     1.0  0.74240  0.35429  0.95236  1.0000
  C   C4232     1.0  0.86722  0.39606  0.79369  1.0000
  H   H3377     1.0  0.85884  0.38719  0.79500  1.0000
  H   H3378     1.0  0.69626  0.33672  0.95178  1.0000
  H   H3379     1.0  0.75024  0.35212  0.88467  1.0000
  S   S584      1.0  0.80553  0.23786  0.76677  1.0000
  H   H3380     1.0  0.80827  0.38475  0.79160  1.0000
  H   H3381     1.0  0.87707  0.39915  0.66725  1.0000
  C   C4233     1.0  0.81107  0.37098  0.81764  1.0000
  H   H3382     1.0  0.75268  0.36765  0.85403  1.0000
  C   C4234     1.0  0.82560  0.38382  0.83172  1.0000
  C   C4235     1.0  0.98147  0.34540  0.67810  1.0000
  C   C4236     1.0  0.68174  0.37918  0.94077  1.0000
  H   H3383     1.0  0.90035  0.42104  0.74826  1.0000
  C   C4237     1.0  0.74449  0.36605  0.88173  1.0000
  C   C4238     1.0  0.71382  0.37433  0.93059  1.0000
  H   H3384     1.0  0.92260  0.31259  0.77036  1.0000
  C   C4239     1.0  0.82794  0.39730  0.81680  1.0000
  C   C4240     1.0  0.87230  0.42163  0.79962  1.0000
  C   C4241     1.0  0.72770  0.26962  0.95365  1.0000
  H   H3385     1.0  0.85367  0.41231  0.88078  1.0000
  C   C4242     1.0  0.82535  0.43480  0.80759  1.0000
  H   H3386     1.0  0.72622  0.39020  0.93894  1.0000
  Fe  Fe300     1.0  0.88291  0.47099  0.78145  1.0000
  H   H3387     1.0  0.85048  0.46796  0.81329  1.0000
  C   C4243     1.0  0.99399  0.30350  0.71983  1.0000
  C   C4244     1.0  0.92533  0.23541  0.67296  1.0000
  H   H3388     1.0  0.92912  0.46429  0.65263  1.0000
  C   C4245     1.0  0.98949  0.48285  0.66252  1.0000
  C   C4246     1.0  0.84612  0.47262  0.68424  1.0000
  C   C4247     1.0  0.97987  0.46962  0.66876  1.0000
  H   H3389     1.0  0.74579  0.47453  0.96714  1.0000
  H   H3390     1.0  0.68194  0.23439  0.83605  1.0000
  C   C4248     1.0  0.95743  0.47775  0.76653  1.0000
  H   H3391     1.0  0.89827  0.47908  0.65091  1.0000
  C   C4249     1.0  0.97434  0.47996  0.75688  1.0000
  C   C4250     1.0  0.90274  0.47739  0.66274  1.0000
  P   P141      1.0  0.73888  0.42239  0.97077  1.0000
  C   C4251     1.0  0.96572  0.48081  0.73042  1.0000
  H   H3392     1.0  0.99172  0.47971  0.83396  1.0000
  C   C4252     1.0  0.72576  0.44414  0.97259  1.0000
  H   H3393     1.0  0.83806  0.48057  0.69352  1.0000
  C   C4253     1.0  0.84621  0.47863  0.66645  1.0000
  H   H3394     1.0  0.92545  0.35686  0.64352  1.0000
  S   S585      1.0  0.75465  0.47749  0.88613  1.0000
  H   H3395     1.0  0.93142  0.47617  0.76544  1.0000
  C   C4254     1.0  0.89665  0.48141  0.69223  1.0000
  H   H3396     1.0  0.99196  0.48141  0.73154  1.0000
  C   C4255     1.0  0.91469  0.47699  0.82645  1.0000
  C   C4256     1.0  0.73029  0.39037  0.97518  1.0000
  C   C4257     1.0  0.76732  0.47985  0.97417  1.0000
  C   C4258     1.0  0.70577  0.47790  0.97575  1.0000
  Fe  Fe301     1.0  0.90470  0.48260  0.74575  1.0000
  H   H3397     1.0  0.96901  0.48190  0.71647  1.0000
  C   C4259     1.0  0.79388  0.33471  0.97552  1.0000
  C   C4260     1.0  0.99547  0.31563  0.67507  1.0000
  S   S586      1.0  0.93181  0.48301  0.72837  1.0000
  C   C4261     1.0  0.80841  0.23360  0.85504  1.0000
  H   H3398     1.0  0.81951  0.23353  0.87625  1.0000
  C   C4262     1.0  0.99086  0.59214  0.09261  1.0000
  H   H3399     1.0  0.86762  0.51322  0.21534  1.0000
  S   S587      1.0  0.74567  0.50051  0.01176  1.0000
  H   H3400     1.0  0.98629  0.54550  0.11964  1.0000
  H   H3401     1.0  0.96439  0.51939  0.18000  1.0000
  H   H3402     1.0  0.98649  0.62263  0.18604  1.0000
  C   C4263     1.0  0.73742  0.73169  0.03539  1.0000
  C   C4264     1.0  0.70285  0.52284  0.98816  1.0000
  Fe  Fe302     1.0  0.74898  0.51136  0.03272  1.0000
  S   S588      1.0  0.73348  0.53817  0.03711  1.0000
  C   C4265     1.0  0.55930  0.67984  0.01157  1.0000
  S   S589      1.0  0.77855  0.50163  0.02786  1.0000
  H   H3403     1.0  0.91573  0.58866  0.13966  1.0000
  S   S590      1.0  0.96467  0.51418  0.09981  1.0000
  H   H3404     1.0  0.86093  0.52838  0.16220  1.0000
  Fe  Fe303     1.0  0.51612  0.72229  0.06299  1.0000
  S   S591      1.0  0.53601  0.70438  0.07837  1.0000
  H   H3405     1.0  0.84093  0.72743  0.17292  1.0000
  Fe  Fe304     1.0  0.85747  0.48782  0.09523  1.0000
  H   H3406     1.0  0.79497  0.62435  0.17929  1.0000
  H   H3407     1.0  0.78289  0.63481  0.97775  1.0000
  H   H3408     1.0  0.69403  0.65608  0.98540  1.0000
  H   H3409     1.0  0.56130  0.69111  0.09978  1.0000
  H   H3410     1.0  0.90465  0.55591  0.18374  1.0000
  Fe  Fe305     1.0  0.76728  0.65958  0.99741  1.0000
  S   S592      1.0  0.74934  0.64172  0.00057  1.0000
  H   H3411     1.0  0.53799  0.72288  0.15267  1.0000
  Fe  Fe306     1.0  0.76465  0.65228  0.03667  1.0000
  S   S593      1.0  0.74682  0.63338  0.04241  1.0000
  S   S594      1.0  0.76840  0.65749  0.06110  1.0000
  Fe  Fe307     1.0  0.76531  0.62344  0.01937  1.0000
  S   S595      1.0  0.77886  0.59610  0.01573  1.0000
  Fe  Fe308     1.0  0.73269  0.65368  0.02298  1.0000
  S   S596      1.0  0.70290  0.66065  0.02550  1.0000
  S   S597      1.0  0.78430  0.64068  0.01509  1.0000
  S   S598      1.0  0.74946  0.67323  0.01840  1.0000
  H   H3412     1.0  0.77582  0.53035  0.98648  1.0000
  Fe  Fe309     1.0  0.83172  0.62306  0.14113  1.0000
  S   S599      1.0  0.85445  0.62454  0.11800  1.0000
  S   S600      1.0  0.81913  0.59934  0.15124  1.0000
  Fe  Fe310     1.0  0.83149  0.65940  0.14619  1.0000
  S   S601      1.0  0.85401  0.66357  0.12300  1.0000
  S   S602      1.0  0.81877  0.67807  0.16461  1.0000
  Fe  Fe311     1.0  0.83977  0.65232  0.10977  1.0000
  S   S603      1.0  0.83775  0.66190  0.08130  1.0000
  Fe  Fe312     1.0  0.86631  0.63548  0.13330  1.0000
  S   S604      1.0  0.89281  0.62360  0.14068  1.0000
  S   S605      1.0  0.81625  0.65030  0.13227  1.0000
  S   S606      1.0  0.84451  0.63198  0.15717  1.0000
  S   S607      1.0  0.96665  0.64096  0.09642  1.0000
  C   C4266     1.0  0.91272  0.62964  0.12810  1.0000
  C   C4267     1.0  0.91453  0.63854  0.11059  1.0000
  C   C4268     1.0  0.93112  0.64206  0.10086  1.0000
  C   C4269     1.0  0.94578  0.63700  0.10872  1.0000
  C   C4270     1.0  0.94374  0.62848  0.12627  1.0000
  C   C4271     1.0  0.92736  0.62464  0.13585  1.0000
  H   H3413     1.0  0.90328  0.64242  0.10450  1.0000
  H   H3414     1.0  0.93262  0.64870  0.08725  1.0000
  H   H3415     1.0  0.95487  0.62466  0.13240  1.0000
  H   H3416     1.0  0.92609  0.61769  0.14932  1.0000
  C   C4272     1.0  0.85848  0.58227  0.17540  1.0000
  C   C4273     1.0  0.56454  0.71732  0.98534  1.0000
  H   H3417     1.0  0.91678  0.68898  0.25841  1.0000
  C   C4274     1.0  0.82404  0.56628  0.14544  1.0000
  C   C4275     1.0  0.83192  0.58025  0.14383  1.0000
  C   C4276     1.0  0.96398  0.66379  0.20580  1.0000
  C   C4277     1.0  0.78831  0.65774  0.06616  1.0000
  C   C4278     1.0  0.78802  0.65732  0.08352  1.0000
  C   C4279     1.0  0.80315  0.65837  0.08823  1.0000
  C   C4280     1.0  0.81874  0.66003  0.07561  1.0000
  C   C4281     1.0  0.81912  0.66040  0.05819  1.0000
  C   C4282     1.0  0.80399  0.65909  0.05347  1.0000
  H   H3418     1.0  0.77593  0.65640  0.09338  1.0000
  H   H3419     1.0  0.80254  0.65834  0.10159  1.0000
  H   H3420     1.0  0.83113  0.66178  0.04833  1.0000
  H   H3421     1.0  0.80429  0.65959  0.04003  1.0000
  H   H3422     1.0  0.83488  0.51513  0.17127  1.0000
  H   H3423     1.0  0.63647  0.71393  0.09402  1.0000
  C   C4283     1.0  0.87007  0.70576  0.29733  1.0000
  C   C4284     1.0  0.93533  0.71435  0.27204  1.0000
  H   H3424     1.0  0.65847  0.71574  0.01730  1.0000
  H   H3425     1.0  0.82497  0.50087  0.20234  1.0000
  P   P142      1.0  0.88579  0.53104  0.18100  1.0000
  H   H3426     1.0  0.68142  0.72888  0.05575  1.0000
  C   C4285     1.0  0.53484  0.69502  0.97926  1.0000
  H   H3427     1.0  0.98615  0.65662  0.21822  1.0000
  C   C4286     1.0  0.70536  0.64756  0.97896  1.0000
  C   C4287     1.0  0.69770  0.71077  0.02819  1.0000
  C   C4288     1.0  0.70364  0.69261  0.03001  1.0000
  C   C4289     1.0  0.69391  0.68286  0.02622  1.0000
  C   C4290     1.0  0.67730  0.69115  0.02218  1.0000
  C   C4291     1.0  0.67096  0.70930  0.02106  1.0000
  H   H3428     1.0  0.71581  0.68619  0.03429  1.0000
  H   H3429     1.0  0.66969  0.68376  0.01915  1.0000
  S   S608      1.0  0.50641  0.72427  0.00432  1.0000
  C   C4292     1.0  0.55488  0.71168  0.07789  1.0000
  C   C4293     1.0  0.81508  0.72401  0.13716  1.0000
  C   C4294     1.0  0.74155  0.71349  0.04147  1.0000
  C   C4295     1.0  0.56505  0.70247  0.09031  1.0000
  H   H3430     1.0  0.89664  0.58824  0.18054  1.0000
  C   C4296     1.0  0.89153  0.56307  0.18189  1.0000
  S   S609      1.0  0.74337  0.48790  0.05374  1.0000
  C   C4297     1.0  0.90732  0.56799  0.05674  1.0000
  H   H3431     1.0  0.91807  0.54477  0.07435  1.0000
  C   C4298     1.0  0.92325  0.50348  0.21904  1.0000
  C   C4299     1.0  0.90057  0.52023  0.19579  1.0000
  H   H3432     1.0  0.95794  0.67527  0.21136  1.0000
  C   C4300     1.0  0.82790  0.48771  0.05346  1.0000
  C   C4301     1.0  0.91589  0.67079  0.16712  1.0000
  H   H3433     1.0  0.81003  0.56731  0.15119  1.0000
  C   C4302     1.0  0.74594  0.55439  0.03126  1.0000
  C   C4303     1.0  0.76361  0.55105  0.02228  1.0000
  C   C4304     1.0  0.77351  0.56395  0.01774  1.0000
  C   C4305     1.0  0.76586  0.58033  0.02200  1.0000
  C   C4306     1.0  0.74808  0.58387  0.03077  1.0000
  C   C4307     1.0  0.73813  0.57086  0.03542  1.0000
  H   H3434     1.0  0.76968  0.53856  0.01876  1.0000
  H   H3435     1.0  0.78710  0.56122  0.01074  1.0000
  H   H3436     1.0  0.74206  0.59654  0.03403  1.0000
  H   H3437     1.0  0.72440  0.57352  0.04231  1.0000
  C   C4308     1.0  0.92841  0.66862  0.13693  1.0000
  C   C4309     1.0  0.51142  0.73250  0.14819  1.0000
  H   H3438     1.0  0.86475  0.53636  0.08904  1.0000
  H   H3439     1.0  0.76975  0.71206  0.20779  1.0000
  C   C4310     1.0  0.96311  0.50682  0.04733  1.0000
  C   C4311     1.0  0.86015  0.56357  0.13077  1.0000
  C   C4312     1.0  0.92704  0.69398  0.26046  1.0000
  S   S610      1.0  0.98852  0.72758  0.27397  1.0000
  H   H3440     1.0  0.96681  0.54903  0.16291  1.0000
  H   H3441     1.0  0.81650  0.71031  0.13725  1.0000
  H   H3442     1.0  0.97466  0.59150  0.13925  1.0000
  C   C4313     1.0  0.89399  0.65529  0.23834  1.0000
  C   C4314     1.0  0.95174  0.49913  0.10213  1.0000
  H   H3443     1.0  0.50772  0.69471  0.98103  1.0000
  C   C4315     1.0  0.63904  0.61712  0.02767  1.0000
  C   C4316     1.0  0.65622  0.61566  0.01729  1.0000
  C   C4317     1.0  0.66439  0.62993  0.01210  1.0000
  C   C4318     1.0  0.65548  0.64562  0.01742  1.0000
  C   C4319     1.0  0.63833  0.64709  0.02817  1.0000
  C   C4320     1.0  0.63007  0.63279  0.03304  1.0000
  P   P143      1.0  0.62698  0.66755  0.03483  1.0000
  C   C4321     1.0  0.60468  0.66689  0.04739  1.0000
  C   C4322     1.0  0.63768  0.67199  0.04947  1.0000
  C   C4323     1.0  0.62813  0.68391  0.06019  1.0000
  C   C4324     1.0  0.63581  0.68692  0.07217  1.0000
  C   C4325     1.0  0.65316  0.67823  0.07349  1.0000
  C   C4326     1.0  0.66275  0.66635  0.06295  1.0000
  C   C4327     1.0  0.65501  0.66305  0.05116  1.0000
  C   C4328     1.0  0.60219  0.65537  0.06382  1.0000
  C   C4329     1.0  0.58523  0.65588  0.07458  1.0000
  C   C4330     1.0  0.57070  0.66813  0.06916  1.0000
  C   C4331     1.0  0.57310  0.67980  0.05297  1.0000
  C   C4332     1.0  0.58996  0.67911  0.04201  1.0000
  C   C4333     1.0  0.62607  0.68505  0.01555  1.0000
  C   C4334     1.0  0.62185  0.70261  0.01698  1.0000
  H   H3444     1.0  0.55081  0.66619  0.03802  1.0000
  S   S611      1.0  0.86619  0.53094  0.12487  1.0000
  C   C4335     1.0  0.62666  0.69492  0.98445  1.0000
  C   C4336     1.0  0.62828  0.68131  0.99916  1.0000
  H   H3445     1.0  0.63272  0.60603  0.03170  1.0000
  H   H3446     1.0  0.66326  0.60343  0.01336  1.0000
  H   H3447     1.0  0.67773  0.62876  0.00414  1.0000
  H   H3448     1.0  0.66204  0.65657  0.01331  1.0000
  H   H3449     1.0  0.61675  0.63361  0.04095  1.0000
  H   H3450     1.0  0.61462  0.69084  0.05954  1.0000
  H   H3451     1.0  0.62821  0.69607  0.08036  1.0000
  H   H3452     1.0  0.65920  0.68077  0.08260  1.0000
  H   H3453     1.0  0.67634  0.65981  0.06371  1.0000
  H   H3454     1.0  0.66286  0.65370  0.04334  1.0000
  H   H3455     1.0  0.61345  0.64632  0.06851  1.0000
  H   H3456     1.0  0.58339  0.64720  0.08736  1.0000
  H   H3457     1.0  0.55761  0.66896  0.07770  1.0000
  H   H3458     1.0  0.56186  0.68969  0.04908  1.0000
  H   H3459     1.0  0.59136  0.68847  0.02966  1.0000
  H   H3460     1.0  0.61963  0.70589  0.02947  1.0000
  Fe  Fe313     1.0  0.86781  0.71237  0.25559  1.0000
  H   H3461     1.0  0.75251  0.70539  0.03410  1.0000
  H   H3462     1.0  0.78919  0.50537  0.14772  1.0000
  H   H3463     1.0  0.63104  0.66794  0.99768  1.0000
  C   C4337     1.0  0.92225  0.70759  0.26935  1.0000
  H   H3464     1.0  0.80623  0.71935  0.23359  1.0000
  C   C4338     1.0  0.93323  0.72112  0.30521  1.0000
  C   C4339     1.0  0.56087  0.66591  0.02601  1.0000
  C   C4340     1.0  0.57486  0.73190  0.06601  1.0000
  S   S612      1.0  0.85084  0.49412  0.06890  1.0000
  H   H3465     1.0  0.83678  0.57600  0.08054  1.0000
  H   H3466     1.0  0.71568  0.52020  0.99132  1.0000
  C   C4341     1.0  0.93917  0.50297  0.09193  1.0000
  Fe  Fe314     1.0  0.98825  0.63572  0.11128  1.0000
  H   H3467     1.0  0.60028  0.64113  0.00924  1.0000
  C   C4342     1.0  0.53790  0.72781  0.12541  1.0000
  H   H3468     1.0  0.72159  0.55514  0.98524  1.0000
  Fe  Fe315     1.0  0.86441  0.71079  0.21993  1.0000
  C   C4343     1.0  0.93451  0.58618  0.17820  1.0000
  S   S613      1.0  0.87893  0.69632  0.27891  1.0000
  S   S614      1.0  0.99515  0.67660  0.14338  1.0000
  H   H3469     1.0  0.50538  0.73170  0.16191  1.0000
  H   H3470     1.0  0.72283  0.71254  0.99721  1.0000
  H   H3471     1.0  0.88739  0.53692  0.21428  1.0000
  C   C4344     1.0  0.91392  0.67478  0.22256  1.0000
  H   H3472     1.0  0.94583  0.60016  0.18976  1.0000
  C   C4345     1.0  0.90606  0.51023  0.13738  1.0000
  S   S615      1.0  0.83929  0.49631  0.11928  1.0000
  H   H3473     1.0  0.95238  0.50562  0.04249  1.0000
  P   P144      1.0  0.56943  0.69767  0.97719  1.0000
  C   C4346     1.0  0.85346  0.71727  0.29909  1.0000
  H   H3474     1.0  0.82019  0.68233  0.24965  1.0000
  H   H3475     1.0  0.79834  0.65201  0.18397  1.0000
  C   C4347     1.0  0.85870  0.57097  0.24249  1.0000
  H   H3476     1.0  0.96516  0.60128  0.10783  1.0000
  C   C4348     1.0  0.88184  0.63902  0.17659  1.0000
  H   H3477     1.0  0.88140  0.60719  0.22176  1.0000
  H   H3478     1.0  0.99026  0.70520  0.15911  1.0000
  H   H3479     1.0  0.95767  0.72946  0.30141  1.0000
  H   H3480     1.0  0.65582  0.71513  0.06420  1.0000
  C   C4349     1.0  0.86630  0.52178  0.18803  1.0000
  H   H3481     1.0  0.86613  0.55888  0.23850  1.0000
  H   H3482     1.0  0.69825  0.49096  0.97689  1.0000
  H   H3483     1.0  0.81285  0.62406  0.11260  1.0000
  C   C4350     1.0  0.97727  0.52532  0.05525  1.0000
  C   C4351     1.0  0.81292  0.66071  0.24486  1.0000
  C   C4352     1.0  0.72485  0.71407  0.98324  1.0000
  H   H3484     1.0  0.83880  0.62561  0.08817  1.0000
  C   C4353     1.0  0.87930  0.55428  0.18058  1.0000
  C   C4354     1.0  0.93618  0.57957  0.16359  1.0000
  C   C4355     1.0  0.93633  0.57759  0.11969  1.0000
  H   H3485     1.0  0.94403  0.54126  0.12433  1.0000
  C   C4356     1.0  0.82676  0.69023  0.18924  1.0000
  C   C4357     1.0  0.90949  0.51773  0.22268  1.0000
  H   H3486     1.0  0.65703  0.52966  0.97738  1.0000
  H   H3487     1.0  0.81262  0.59594  0.19201  1.0000
  H   H3488     1.0  0.83161  0.62714  0.04884  1.0000
  C   C4358     1.0  0.77682  0.49347  0.13509  1.0000
  C   C4359     1.0  0.83342  0.48502  0.06900  1.0000
  C   C4360     1.0  0.90945  0.58700  0.10085  1.0000
  C   C4361     1.0  0.94692  0.59514  0.17844  1.0000
  C   C4362     1.0  0.99038  0.51073  0.06004  1.0000
  C   C4363     1.0  0.97566  0.58992  0.10567  1.0000
  H   H3489     1.0  0.90441  0.67202  0.17779  1.0000
  C   C4364     1.0  0.71453  0.63305  0.98925  1.0000
  C   C4365     1.0  0.67331  0.51708  0.99626  1.0000
  C   C4366     1.0  0.86275  0.56406  0.17720  1.0000
  H   H3490     1.0  0.83466  0.49502  0.04145  1.0000
  C   C4367     1.0  0.97623  0.49206  0.05217  1.0000
  H   H3491     1.0  0.85638  0.58912  0.13574  1.0000
  C   C4368     1.0  0.84154  0.58644  0.26528  1.0000
  P   P145      1.0  0.95379  0.57054  0.13176  1.0000
  H   H3492     1.0  0.95829  0.64104  0.17908  1.0000
  C   C4369     1.0  0.95030  0.58183  0.14907  1.0000
  P   P146      1.0  0.93549  0.67343  0.18946  1.0000
  H   H3493     1.0  0.58564  0.70779  0.99955  1.0000
  H   H3494     1.0  0.92691  0.57204  0.16385  1.0000
  H   H3495     1.0  0.99202  0.60520  0.08500  1.0000
  H   H3496     1.0  0.96184  0.72521  0.17557  1.0000
  C   C4370     1.0  0.95620  0.65982  0.19437  1.0000
  C   C4371     1.0  0.83839  0.69399  0.19715  1.0000
  H   H3497     1.0  0.55220  0.72389  0.12129  1.0000
  C   C4372     1.0  0.92666  0.57914  0.09344  1.0000
  H   H3498     1.0  0.78063  0.73319  0.18138  1.0000
  H   H3499     1.0  0.83367  0.59486  0.20929  1.0000
  H   H3500     1.0  0.91024  0.63200  0.17279  1.0000
  C   C4373     1.0  0.68670  0.70432  0.97882  1.0000
  H   H3501     1.0  0.88201  0.64804  0.16401  1.0000
  H   H3502     1.0  0.89982  0.55513  0.14872  1.0000
  C   C4374     1.0  0.85230  0.54973  0.13204  1.0000
  H   H3503     1.0  0.95615  0.66902  0.12767  1.0000
  H   H3504     1.0  0.87712  0.68101  0.16961  1.0000
  H   H3505     1.0  0.84591  0.58984  0.17229  1.0000
  H   H3506     1.0  0.95322  0.56798  0.09698  1.0000
  C   C4375     1.0  0.61981  0.71617  0.00231  1.0000
  H   H3507     1.0  0.69231  0.70660  0.98838  1.0000
  C   C4376     1.0  0.90668  0.55538  0.07240  1.0000
  S   S616      1.0  0.84671  0.70610  0.24667  1.0000
  H   H3508     1.0  0.86914  0.53578  0.05798  1.0000
  C   C4377     1.0  0.81884  0.64604  0.23731  1.0000
  H   H3509     1.0  0.54820  0.69095  0.01287  1.0000
  H   H3510     1.0  0.83572  0.58636  0.27897  1.0000
  C   C4378     1.0  0.95911  0.52455  0.16829  1.0000
  C   C4379     1.0  0.84695  0.60245  0.23504  1.0000
  H   H3511     1.0  0.90765  0.52234  0.23444  1.0000
  H   H3512     1.0  0.76398  0.49794  0.08696  1.0000
  H   H3513     1.0  0.97104  0.60365  0.16470  1.0000
  C   C4380     1.0  0.89812  0.52602  0.21117  1.0000
  C   C4381     1.0  0.88716  0.58128  0.18008  1.0000
  H   H3514     1.0  0.81267  0.69275  0.19479  1.0000
  H   H3515     1.0  0.85678  0.67448  0.15563  1.0000
  C   C4382     1.0  0.96305  0.59034  0.14971  1.0000
  C   C4383     1.0  0.72907  0.62165  0.98137  1.0000
  C   C4384     1.0  0.96420  0.64465  0.18761  1.0000
  C   C4385     1.0  0.92847  0.49109  0.09429  1.0000
  H   H3516     1.0  0.87157  0.72894  0.17119  1.0000
  H   H3517     1.0  0.90830  0.71270  0.27419  1.0000
  C   C4386     1.0  0.78024  0.71813  0.20759  1.0000
  H   H3518     1.0  0.93622  0.48631  0.20120  1.0000
  C   C4387     1.0  0.85339  0.53872  0.08342  1.0000
  H   H3519     1.0  0.90755  0.49795  0.13380  1.0000
  H   H3520     1.0  0.66422  0.72581  0.98172  1.0000
  C   C4388     1.0  0.85680  0.52228  0.17578  1.0000
  C   C4389     1.0  0.90854  0.54055  0.12873  1.0000
  C   C4390     1.0  0.76459  0.53324  0.98048  1.0000
  C   C4391     1.0  0.55059  0.73139  0.98115  1.0000
  C   C4392     1.0  0.68987  0.51451  0.00008  1.0000
  H   H3521     1.0  0.82911  0.54907  0.98725  1.0000
  C   C4393     1.0  0.95152  0.51421  0.16266  1.0000
  H   H3522     1.0  0.81892  0.73227  0.10921  1.0000
  C   C4394     1.0  0.91901  0.58564  0.12694  1.0000
  C   C4395     1.0  0.64796  0.71970  0.09035  1.0000
  H   H3523     1.0  0.66333  0.51049  0.00547  1.0000
  C   C4396     1.0  0.84251  0.66634  0.23550  1.0000
  H   H3524     1.0  0.73486  0.69153  0.06186  1.0000
  C   C4397     1.0  0.85661  0.58669  0.22999  1.0000
  H   H3525     1.0  0.96350  0.71174  0.26848  1.0000
  H   H3526     1.0  0.81805  0.62840  0.02487  1.0000
  H   H3527     1.0  0.92684  0.66758  0.12452  1.0000
  C   C4398     1.0  0.80393  0.62397  0.18722  1.0000
  C   C4399     1.0  0.89776  0.62987  0.18152  1.0000
  H   H3528     1.0  0.82808  0.54032  0.14076  1.0000
  C   C4400     1.0  0.89751  0.61825  0.19775  1.0000
  C   C4401     1.0  0.82823  0.62307  0.20664  1.0000
  H   H3529     1.0  0.74728  0.54913  0.99825  1.0000
  H   H3530     1.0  0.91212  0.55156  0.11863  1.0000
  H   H3531     1.0  0.91927  0.56722  0.04652  1.0000
  C   C4402     1.0  0.62227  0.71237  0.98605  1.0000
  C   C4403     1.0  0.94003  0.57438  0.10283  1.0000
  H   H3532     1.0  0.87417  0.56259  0.12527  1.0000
  C   C4404     1.0  0.98791  0.63827  0.20284  1.0000
  C   C4405     1.0  0.96365  0.52338  0.04889  1.0000
  H   H3533     1.0  0.96312  0.69378  0.17903  1.0000
  H   H3534     1.0  0.89090  0.54687  0.09784  1.0000
  H   H3535     1.0  0.90109  0.66913  0.14941  1.0000
  C   C4406     1.0  0.91390  0.66940  0.15108  1.0000
  H   H3536     1.0  0.92966  0.57664  0.08047  1.0000
  H   H3537     1.0  0.89909  0.59049  0.09365  1.0000
  C   C4407     1.0  0.85157  0.67981  0.16725  1.0000
  C   C4408     1.0  0.91079  0.52451  0.12447  1.0000
  C   C4409     1.0  0.58698  0.66558  0.99518  1.0000
  C   C4410     1.0  0.90562  0.59023  0.11757  1.0000
  H   H3538     1.0  0.82757  0.60406  0.00926  1.0000
  C   C4411     1.0  0.93468  0.69647  0.18635  1.0000
  C   C4412     1.0  0.57488  0.71853  0.99611  1.0000
  H   H3539     1.0  0.90599  0.70393  0.19193  1.0000
  C   C4413     1.0  0.58475  0.72285  0.07876  1.0000
  C   C4414     1.0  0.95447  0.54789  0.14285  1.0000
  Fe  Fe316     1.0  0.50250  0.73073  0.03025  1.0000
  H   H3540     1.0  0.79913  0.66431  0.25132  1.0000
  H   H3541     1.0  0.58741  0.70106  0.10068  1.0000
  H   H3542     1.0  0.85348  0.64404  0.18380  1.0000
  C   C4415     1.0  0.98985  0.49418  0.05857  1.0000
  H   H3543     1.0  0.61608  0.72969  0.00359  1.0000
  C   C4416     1.0  0.52746  0.73340  0.11299  1.0000
  C   C4417     1.0  0.76630  0.52286  0.06945  1.0000
  C   C4418     1.0  0.77125  0.50836  0.08238  1.0000
  C   C4419     1.0  0.78600  0.50701  0.08892  1.0000
  C   C4420     1.0  0.79606  0.51989  0.08232  1.0000
  C   C4421     1.0  0.79105  0.53464  0.06944  1.0000
  C   C4422     1.0  0.77617  0.53590  0.06301  1.0000
  P   P147      1.0  0.80471  0.55068  0.05941  1.0000
  C   C4423     1.0  0.79330  0.57251  0.06277  1.0000
  C   C4424     1.0  0.82391  0.54504  0.06883  1.0000
  C   C4425     1.0  0.82159  0.54494  0.08654  1.0000
  C   C4426     1.0  0.83631  0.54155  0.09384  1.0000
  P   P148      1.0  0.84420  0.62268  0.21871  1.0000
  C   C4427     1.0  0.84117  0.54172  0.05854  1.0000
  C   C4428     1.0  0.80324  0.58472  0.06168  1.0000
  C   C4429     1.0  0.79474  0.60134  0.06506  1.0000
  C   C4430     1.0  0.77626  0.60603  0.06931  1.0000
  C   C4431     1.0  0.76625  0.59413  0.07017  1.0000
  C   C4432     1.0  0.77468  0.57743  0.06699  1.0000
  C   C4433     1.0  0.81199  0.55043  0.03647  1.0000
  C   C4434     1.0  0.81553  0.56556  0.02404  1.0000
  C   C4435     1.0  0.82183  0.56505  0.00635  1.0000
  C   C4436     1.0  0.82459  0.54941  0.00097  1.0000
  C   C4437     1.0  0.82104  0.53428  0.01329  1.0000
  C   C4438     1.0  0.81482  0.53477  0.03097  1.0000
  H   H3544     1.0  0.75504  0.52384  0.06411  1.0000
  H   H3545     1.0  0.89446  0.50111  0.16432  1.0000
  H   H3546     1.0  0.70977  0.70972  0.07890  1.0000
  H   H3547     1.0  0.80803  0.51781  0.08688  1.0000
  H   H3548     1.0  0.77243  0.54682  0.05272  1.0000
  H   H3549     1.0  0.80838  0.54749  0.09467  1.0000
  H   H3550     1.0  0.83452  0.54132  0.10753  1.0000
  H   H3551     1.0  0.84341  0.54132  0.04496  1.0000
  H   H3552     1.0  0.81757  0.58141  0.05826  1.0000
  H   H3553     1.0  0.80240  0.61066  0.06444  1.0000
  H   H3554     1.0  0.76971  0.61897  0.07183  1.0000
  H   H3555     1.0  0.75190  0.59791  0.07322  1.0000
  H   H3556     1.0  0.76652  0.56857  0.06786  1.0000
  H   H3557     1.0  0.81289  0.57787  0.02792  1.0000
  H   H3558     1.0  0.82395  0.57697  0.99681  1.0000
  H   H3559     1.0  0.79874  0.59863  0.12133  1.0000
  H   H3560     1.0  0.82287  0.52218  0.00920  1.0000
  H   H3561     1.0  0.81210  0.52295  0.04034  1.0000
  C   C4439     1.0  0.77075  0.58220  0.97579  1.0000
  S   S617      1.0  0.88654  0.71472  0.22935  1.0000
  H   H3562     1.0  0.71063  0.63087  0.00339  1.0000
  S   S618      1.0  0.79421  0.48783  0.98280  1.0000
  C   C4440     1.0  0.94967  0.72056  0.17894  1.0000
  H   H3563     1.0  0.97745  0.53802  0.05695  1.0000
  H   H3564     1.0  0.93756  0.51521  0.08242  1.0000
  H   H3565     1.0  0.69281  0.50582  0.01217  1.0000
  C   C4441     1.0  0.91192  0.65210  0.20967  1.0000
  S   S619      1.0  0.87209  0.69367  0.20015  1.0000
  C   C4442     1.0  0.66977  0.52790  0.98045  1.0000
  H   H3566     1.0  0.85169  0.67437  0.23440  1.0000
  C   C4443     1.0  0.94611  0.52033  0.14679  1.0000
  C   C4444     1.0  0.85584  0.53864  0.06583  1.0000
  C   C4445     1.0  0.89873  0.51211  0.15459  1.0000
  H   H3567     1.0  0.94130  0.51187  0.14183  1.0000
  C   C4446     1.0  0.90138  0.66925  0.23742  1.0000
  C   C4447     1.0  0.98009  0.63403  0.19170  1.0000
  C   C4448     1.0  0.86525  0.62464  0.20389  1.0000
  H   H3568     1.0  0.86763  0.60498  0.17501  1.0000
  C   C4449     1.0  0.82476  0.67086  0.24396  1.0000
  C   C4450     1.0  0.81216  0.72916  0.15288  1.0000
  H   H3569     1.0  0.94862  0.67631  0.24747  1.0000
  Fe  Fe317     1.0  0.77486  0.48852  0.00865  1.0000
  H   H3570     1.0  0.89382  0.63565  0.22546  1.0000
  S   S620      1.0  0.87955  0.49899  0.09623  1.0000
  H   H3571     1.0  0.97191  0.68762  0.25275  1.0000
  C   C4451     1.0  0.86059  0.51381  0.20560  1.0000
  C   C4452     1.0  0.96068  0.54129  0.15840  1.0000
  H   H3572     1.0  0.91962  0.68554  0.22215  1.0000
  H   H3573     1.0  0.81984  0.65148  0.20054  1.0000
  C   C4453     1.0  0.96115  0.59717  0.16424  1.0000
  C   C4454     1.0  0.78746  0.71413  0.22231  1.0000
  C   C4455     1.0  0.89635  0.52829  0.15900  1.0000
  C   C4456     1.0  0.84844  0.65180  0.22785  1.0000
  C   C4457     1.0  0.98751  0.55859  0.11232  1.0000
  C   C4458     1.0  0.93262  0.67089  0.16920  1.0000
  H   H3574     1.0  0.89725  0.67590  0.24819  1.0000
  C   C4459     1.0  0.83940  0.60219  0.25280  1.0000
  H   H3575     1.0  0.85111  0.57823  0.01782  1.0000
  C   C4460     1.0  0.98848  0.68423  0.29310  1.0000
  H   H3576     1.0  0.88412  0.65122  0.24979  1.0000
  Fe  Fe318     1.0  0.98738  0.49973  0.11286  1.0000
  C   C4461     1.0  0.58874  0.65186  0.00981  1.0000
  H   H3577     1.0  0.86507  0.57103  0.09396  1.0000
  C   C4462     1.0  0.97985  0.65312  0.20991  1.0000
  C   C4463     1.0  0.83336  0.68300  0.17432  1.0000
  H   H3578     1.0  0.91580  0.52332  0.11108  1.0000
  H   H3579     1.0  0.83194  0.61408  0.25714  1.0000
  C   C4464     1.0  0.81396  0.60794  0.19439  1.0000
  H   H3580     1.0  0.95337  0.53466  0.04542  1.0000
  H   H3581     1.0  0.97500  0.68506  0.29238  1.0000
  H   H3582     1.0  0.53270  0.69323  0.99321  1.0000
  C   C4465     1.0  0.83668  0.64145  0.22875  1.0000
  H   H3583     1.0  0.95980  0.67163  0.15580  1.0000
  C   C4466     1.0  0.91430  0.50576  0.19236  1.0000
  H   H3584     1.0  0.89230  0.59653  0.12326  1.0000
  S   S621      1.0  0.98193  0.48907  0.14162  1.0000
  H   H3585     1.0  0.74018  0.68774  0.98333  1.0000
  C   C4467     1.0  0.57560  0.65193  0.02517  1.0000
  S   S622      1.0  0.49809  0.71050  0.05509  1.0000
  C   C4468     1.0  0.68154  0.71919  0.02339  1.0000
  C   C4469     1.0  0.83642  0.50678  0.19840  1.0000
  C   C4470     1.0  0.74854  0.54370  0.98719  1.0000
  H   H3586     1.0  0.81169  0.71921  0.16485  1.0000
  C   C4471     1.0  0.57203  0.67956  0.99581  1.0000
  C   C4472     1.0  0.80589  0.63954  0.18982  1.0000
  H   H3587     1.0  0.80949  0.63836  0.23800  1.0000
  H   H3588     1.0  0.83329  0.69935  0.20874  1.0000
  C   C4473     1.0  0.91827  0.70844  0.18836  1.0000
  H   H3589     1.0  0.95097  0.50099  0.16998  1.0000
  C   C4474     1.0  0.85667  0.69041  0.19023  1.0000
  H   H3590     1.0  0.92386  0.58400  0.18949  1.0000
  C   C4475     1.0  0.82601  0.60745  0.20410  1.0000
  C   C4476     1.0  0.94780  0.53702  0.13680  1.0000
  H   H3591     1.0  0.86500  0.57687  0.04170  1.0000
  C   C4477     1.0  0.85003  0.57875  0.13655  1.0000
  H   H3592     1.0  0.91616  0.64514  0.19919  1.0000
  C   C4478     1.0  0.95037  0.70270  0.18124  1.0000
  H   H3593     1.0  0.57691  0.64132  0.03652  1.0000
  C   C4479     1.0  0.94493  0.68682  0.25441  1.0000
  H   H3594     1.0  0.70574  0.71833  0.03035  1.0000
  H   H3595     1.0  0.91873  0.49414  0.08645  1.0000
  H   H3596     1.0  0.86215  0.64903  0.22098  1.0000
  H   H3597     1.0  0.93211  0.49707  0.22792  1.0000
  C   C4480     1.0  0.86311  0.68348  0.17520  1.0000
  C   C4481     1.0  0.95325  0.70686  0.26627  1.0000
  C   C4482     1.0  0.97401  0.57316  0.11578  1.0000
  C   C4483     1.0  0.89136  0.55657  0.08566  1.0000
  C   C4484     1.0  0.83419  0.55104  0.13947  1.0000
  S   S623      1.0  0.98284  0.63387  0.14012  1.0000
  C   C4485     1.0  0.94493  0.66939  0.13872  1.0000
  C   C4486     1.0  0.81810  0.63915  0.19931  1.0000
  C   C4487     1.0  0.89940  0.64660  0.22457  1.0000
  H   H3598     1.0  0.90985  0.61155  0.20177  1.0000
  C   C4488     1.0  0.94698  0.67071  0.15473  1.0000
  C   C4489     1.0  0.87067  0.59085  0.17685  1.0000
  Fe  Fe319     1.0  0.86237  0.50561  0.12138  1.0000
  H   H3599     1.0  0.85332  0.55783  0.17535  1.0000
  H   H3600     1.0  0.81056  0.57460  0.10522  1.0000
  C   C4490     1.0  0.86566  0.63649  0.18773  1.0000
  C   C4491     1.0  0.95803  0.69317  0.25743  1.0000
  C   C4492     1.0  0.91891  0.66655  0.20836  1.0000
  C   C4493     1.0  0.55981  0.72641  0.06568  1.0000
  C   C4494     1.0  0.90153  0.54245  0.14593  1.0000
  C   C4495     1.0  0.73156  0.70566  0.05716  1.0000
  C   C4496     1.0  0.84569  0.50633  0.21074  1.0000
  H   H3601     1.0  0.77028  0.50590  0.12811  1.0000
  C   C4497     1.0  0.88240  0.63612  0.07288  1.0000
  C   C4498     1.0  0.88266  0.64919  0.05759  1.0000
  C   C4499     1.0  0.87584  0.64779  0.04416  1.0000
  C   C4500     1.0  0.86860  0.63338  0.04607  1.0000
  C   C4501     1.0  0.86789  0.62042  0.06160  1.0000
  C   C4502     1.0  0.87507  0.62180  0.07484  1.0000
  P   P149      1.0  0.85886  0.60148  0.06468  1.0000
  C   C4503     1.0  0.84991  0.60235  0.04646  1.0000
  C   C4504     1.0  0.87710  0.58288  0.06759  1.0000
  C   C4505     1.0  0.89261  0.58174  0.05436  1.0000
  C   C4506     1.0  0.88131  0.61571  0.20898  1.0000
  H   H3602     1.0  0.86256  0.58658  0.21636  1.0000
  C   C4507     1.0  0.57982  0.70811  0.09084  1.0000
  C   C4508     1.0  0.87663  0.57027  0.08334  1.0000
  C   C4509     1.0  0.85512  0.58839  0.03785  1.0000
  C   C4510     1.0  0.84719  0.58906  0.02436  1.0000
  C   C4511     1.0  0.83394  0.60356  0.01954  1.0000
  C   C4512     1.0  0.82852  0.61730  0.02831  1.0000
  C   C4513     1.0  0.83632  0.61661  0.04182  1.0000
  C   C4514     1.0  0.84016  0.60051  0.08300  1.0000
  C   C4515     1.0  0.83303  0.61426  0.09185  1.0000
  C   C4516     1.0  0.81813  0.61354  0.10560  1.0000
  C   C4517     1.0  0.81009  0.59923  0.11045  1.0000
  C   C4518     1.0  0.81687  0.58565  0.10144  1.0000
  C   C4519     1.0  0.83177  0.58637  0.08766  1.0000
  H   H3603     1.0  0.88741  0.63736  0.08341  1.0000
  H   H3604     1.0  0.88784  0.66057  0.05631  1.0000
  H   H3605     1.0  0.87586  0.65807  0.03243  1.0000
  H   H3606     1.0  0.86351  0.63259  0.03546  1.0000
  H   H3607     1.0  0.87458  0.61196  0.08688  1.0000
  H   H3608     1.0  0.89338  0.59163  0.04230  1.0000
  C   C4520     1.0  0.85117  0.57085  0.26014  1.0000
  C   C4521     1.0  0.93330  0.73238  0.18117  1.0000
  H   H3609     1.0  0.59742  0.66522  0.98357  1.0000
  C   C4522     1.0  0.92558  0.49743  0.20396  1.0000
  S   S624      1.0  0.60316  0.72969  0.08019  1.0000
  H   H3610     1.0  0.73635  0.61063  0.98942  1.0000
  C   C4523     1.0  0.71739  0.71601  0.06676  1.0000
  H   H3611     1.0  0.84594  0.72043  0.28910  1.0000
  S   S625      1.0  0.98342  0.72134  0.22941  1.0000
  H   H3612     1.0  0.79015  0.49558  0.09859  1.0000
  H   H3613     1.0  0.91646  0.50087  0.18075  1.0000
  C   C4524     1.0  0.78741  0.49319  0.14616  1.0000
  C   C4525     1.0  0.80085  0.72214  0.22208  1.0000
  C   C4526     1.0  0.67325  0.72842  0.06878  1.0000
  C   C4527     1.0  0.91759  0.72632  0.18592  1.0000
  H   H3614     1.0  0.76325  0.58821  0.98668  1.0000
  C   C4528     1.0  0.73396  0.54708  0.97975  1.0000
  H   H3615     1.0  0.64333  0.72616  0.11527  1.0000
  H   H3616     1.0  0.85278  0.55867  0.26985  1.0000
  H   H3617     1.0  0.78257  0.70501  0.23396  1.0000
  C   C4529     1.0  0.84197  0.51479  0.18092  1.0000
  H   H3618     1.0  0.79586  0.58009  0.98145  1.0000
  H   H3619     1.0  0.81402  0.66571  0.97883  1.0000
  C   C4530     1.0  0.65882  0.72037  0.07364  1.0000
  C   C4531     1.0  0.65173  0.72681  0.10228  1.0000
  P   P150      1.0  0.92927  0.73184  0.28362  1.0000
  H   H3620     1.0  0.72581  0.73068  0.08980  1.0000
  C   C4532     1.0  0.78652  0.73002  0.19260  1.0000
  H   H3621     1.0  0.84139  0.50008  0.22428  1.0000
  C   C4533     1.0  0.52988  0.72729  0.14304  1.0000
  C   C4534     1.0  0.99200  0.68495  0.30867  1.0000
  C   C4535     1.0  0.90597  0.71644  0.55771  1.0000
  H   H3622     1.0  0.92826  0.70572  0.50940  1.0000
  C   C4536     1.0  0.97365  0.69574  0.39231  1.0000
  H   H3623     1.0  0.89620  0.71947  0.54989  1.0000
  H   H3624     1.0  0.97464  0.69064  0.38107  1.0000
  H   H3625     1.0  0.90940  0.70059  0.60011  1.0000
  H   H3626     1.0  0.99195  0.66251  0.49149  1.0000
  H   H3627     1.0  0.98513  0.71772  0.37706  1.0000
  H   H3628     1.0  0.94903  0.70311  0.47526  1.0000
  C   C4537     1.0  0.90143  0.70880  0.57549  1.0000
  H   H3629     1.0  0.98278  0.68540  0.52247  1.0000
  C   C4538     1.0  0.84626  0.72421  0.31412  1.0000
  C   C4539     1.0  0.96714  0.67277  0.62949  1.0000
  H   H3630     1.0  0.88831  0.70611  0.58111  1.0000
  C   C4540     1.0  0.95048  0.71451  0.32732  1.0000
  C   C4541     1.0  0.91177  0.73150  0.44664  1.0000
  C   C4542     1.0  0.98698  0.67347  0.48175  1.0000
  C   C4543     1.0  0.92406  0.70307  0.33390  1.0000
  C   C4544     1.0  0.91619  0.71569  0.50873  1.0000
  C   C4545     1.0  0.97536  0.72356  0.49254  1.0000
  C   C4546     1.0  0.96623  0.68725  0.40906  1.0000
  H   H3631     1.0  0.90680  0.70286  0.49428  1.0000
  C   C4547     1.0  0.97433  0.70219  0.45661  1.0000
  H   H3632     1.0  0.96030  0.67802  0.49717  1.0000
  C   C4548     1.0  0.93831  0.70514  0.33919  1.0000
  C   C4549     1.0  0.97964  0.71096  0.39004  1.0000
  H   H3633     1.0  0.98020  0.71100  0.62200  1.0000
  C   C4550     1.0  0.99210  0.69311  0.45337  1.0000
  C   C4551     1.0  0.90401  0.71393  0.50029  1.0000
  H   H3634     1.0  0.89224  0.69233  0.30932  1.0000
  C   C4552     1.0  0.96918  0.68223  0.48495  1.0000
  C   C4553     1.0  0.98418  0.70716  0.50040  1.0000
  C   C4554     1.0  0.95887  0.70566  0.52477  1.0000
  H   H3635     1.0  0.94719  0.72128  0.55616  1.0000
  H   H3636     1.0  0.95257  0.69820  0.53694  1.0000
  C   C4555     1.0  0.94811  0.72224  0.31031  1.0000
  C   C4556     1.0  0.91330  0.70575  0.58621  1.0000
  H   H3637     1.0  0.83330  0.73279  0.31560  1.0000
  C   C4557     1.0  0.96287  0.69659  0.47248  1.0000
  C   C4558     1.0  0.92259  0.72086  0.55046  1.0000
  H   H3638     1.0  0.91061  0.70916  0.31297  1.0000
  H   H3639     1.0  0.95292  0.69940  0.63049  1.0000
  C   C4559     1.0  0.97593  0.69819  0.51648  1.0000
  C   C4560     1.0  0.93454  0.71751  0.56132  1.0000
  C   C4561     1.0  0.88827  0.72662  0.49936  1.0000
  C   C4562     1.0  0.95018  0.72252  0.51732  1.0000
  H   H3640     1.0  0.90185  0.72905  0.44145  1.0000
  C   C4563     1.0  0.87259  0.70896  0.32532  1.0000
  H   H3641     1.0  0.98764  0.72609  0.30974  1.0000
  H   H3642     1.0  0.93978  0.69972  0.35254  1.0000
  H   H3643     1.0  0.98123  0.68624  0.31997  1.0000
  H   H3644     1.0  0.87991  0.70562  0.33550  1.0000
  C   C4564     1.0  0.96582  0.69057  0.62821  1.0000
  C   C4565     1.0  0.92988  0.71007  0.57912  1.0000
  H   H3645     1.0  0.93888  0.70823  0.58751  1.0000
  H   H3646     1.0  0.91458  0.69582  0.34306  1.0000
  H   H3647     1.0  0.87892  0.72547  0.49260  1.0000
  C   C4566     1.0  0.96998  0.70982  0.42118  1.0000
  C   C4567     1.0  0.95848  0.73125  0.50095  1.0000
  C   C4568     1.0  0.85581  0.72020  0.32720  1.0000
  S   S626      1.0  0.88767  0.72841  0.36507  1.0000
  H   H3648     1.0  0.96138  0.71640  0.33145  1.0000
  C   C4569     1.0  0.98118  0.69717  0.62347  1.0000
  S   S627      1.0  0.84597  0.72869  0.34613  1.0000
  H   H3649     1.0  0.95519  0.66772  0.63291  1.0000
  C   C4570     1.0  0.96445  0.69422  0.42347  1.0000
  C   C4571     1.0  0.97810  0.71782  0.40444  1.0000
  H   H3650     1.0  0.95831  0.68775  0.43633  1.0000
  H   H3651     1.0  0.98182  0.73042  0.48003  1.0000
  P   P151      1.0  0.96605  0.71953  0.43965  1.0000
  C   C4572     1.0  0.87954  0.70147  0.31054  1.0000
  H   H3652     1.0  0.98451  0.64810  0.62613  1.0000
  C   C4573     1.0  0.92169  0.71082  0.31690  1.0000
  C   C4574     1.0  0.94265  0.72795  0.44717  1.0000
  H   H3653     1.0  0.85855  0.72499  0.44982  1.0000
  C   C4575     1.0  0.98383  0.66167  0.62582  1.0000
  H   H3654     1.0  0.96153  0.67547  0.41083  1.0000
  P   P152      1.0  0.92798  0.73217  0.52783  1.0000
  C   C4576     1.0  0.92976  0.72461  0.44064  1.0000
  H   H3655     1.0  0.98300  0.72952  0.40240  1.0000
  H   H3656     1.0  0.93340  0.71706  0.43069  1.0000
  S   S628      1.0  0.87656  0.73154  0.41427  1.0000
  C   C4577     1.0  0.91270  0.73021  0.51626  1.0000
  S   S629      1.0  0.90830  0.73298  0.62170  1.0000
  H   H3657     1.0  0.97506  0.57604  0.77885  1.0000
  H   H3658     1.0  0.98976  0.72645  0.86528  1.0000
  C   C4578     1.0  0.98136  0.55041  0.79533  1.0000
  Fe  Fe320     1.0  0.87014  0.50678  0.75949  1.0000
  S   S630      1.0  0.89513  0.49442  0.76923  1.0000
  S   S631      1.0  0.85628  0.53540  0.75573  1.0000
  H   H3659     1.0  0.98339  0.50316  0.69633  1.0000
  C   C4579     1.0  0.96237  0.50464  0.66794  1.0000
  H   H3660     1.0  0.97628  0.50678  0.85437  1.0000
  H   H3661     1.0  0.85913  0.53052  0.89270  1.0000
  S   S632      1.0  0.88063  0.49665  0.73502  1.0000
  C   C4580     1.0  0.96906  0.51226  0.82944  1.0000
  C   C4581     1.0  0.94982  0.50360  0.85763  1.0000
  H   H3662     1.0  0.90602  0.62251  0.69605  1.0000
  C   C4582     1.0  0.68771  0.65415  0.92692  1.0000
  C   C4583     1.0  0.89745  0.54743  0.71830  1.0000
  C   C4584     1.0  0.93699  0.62101  0.78702  1.0000
  C   C4585     1.0  0.91952  0.52964  0.69963  1.0000
  C   C4586     1.0  0.52046  0.69594  0.97234  1.0000
  H   H3663     1.0  0.91439  0.48409  0.79915  1.0000
  C   C4587     1.0  0.72024  0.73207  0.95494  1.0000
  C   C4588     1.0  0.59563  0.68307  0.95151  1.0000
  H   H3664     1.0  0.83735  0.70224  0.67289  1.0000
  C   C4589     1.0  0.79981  0.71911  0.74297  1.0000
  C   C4590     1.0  0.73014  0.71786  0.94722  1.0000
  Fe  Fe321     1.0  0.76903  0.49912  0.87194  1.0000
  S   S633      1.0  0.75328  0.52650  0.86382  1.0000
  C   C4591     1.0  0.79031  0.56690  0.94742  1.0000
  S   S634      1.0  0.78472  0.49416  0.89217  1.0000
  C   C4592     1.0  0.84057  0.68367  0.93277  1.0000
  H   H3665     1.0  0.89722  0.67610  0.66480  1.0000
  C   C4593     1.0  0.95979  0.62304  0.66443  1.0000
  H   H3666     1.0  0.80094  0.52000  0.93166  1.0000
  C   C4594     1.0  0.97820  0.56198  0.77973  1.0000
  H   H3667     1.0  0.82939  0.57722  0.86735  1.0000
  H   H3668     1.0  0.91047  0.62773  0.78260  1.0000
  C   C4595     1.0  0.91137  0.60859  0.69983  1.0000
  P   P153      1.0  0.93217  0.54888  0.71565  1.0000
  H   H3669     1.0  0.54222  0.73076  0.97310  1.0000
  C   C4596     1.0  0.91566  0.58223  0.72239  1.0000
  S   S635      1.0  0.75342  0.61307  0.89466  1.0000
  Fe  Fe322     1.0  0.77717  0.64918  0.86367  1.0000
  S   S636      1.0  0.76135  0.63633  0.85424  1.0000
  S   S637      1.0  0.79422  0.66785  0.84646  1.0000
  Fe  Fe323     1.0  0.74182  0.63950  0.87956  1.0000
  Fe  Fe324     1.0  0.77437  0.61127  0.87020  1.0000
  S   S638      1.0  0.79022  0.58633  0.86185  1.0000
  H   H3670     1.0  0.67692  0.66924  0.88889  1.0000
  S   S639      1.0  0.79171  0.62396  0.87760  1.0000
  Fe  Fe325     1.0  0.88277  0.61706  0.76024  1.0000
  S   S640      1.0  0.86913  0.63301  0.78057  1.0000
  S   S641      1.0  0.89423  0.58820  0.76810  1.0000
  Fe  Fe326     1.0  0.88107  0.64893  0.72980  1.0000
  S   S642      1.0  0.86713  0.66739  0.74770  1.0000
  Fe  Fe327     1.0  0.88638  0.65172  0.76434  1.0000
  Fe  Fe328     1.0  0.85113  0.64720  0.76202  1.0000
  S   S643      1.0  0.82150  0.65498  0.76965  1.0000
  S   S644      1.0  0.90161  0.63465  0.74550  1.0000
  S   S645      1.0  0.86345  0.62975  0.74284  1.0000
  C   C4597     1.0  0.80175  0.66423  0.82512  1.0000
  C   C4598     1.0  0.81930  0.66477  0.81629  1.0000
  C   C4599     1.0  0.82554  0.66161  0.79935  1.0000
  C   C4600     1.0  0.81408  0.65844  0.79101  1.0000
  C   C4601     1.0  0.79645  0.65824  0.79971  1.0000
  C   C4602     1.0  0.79036  0.66087  0.81683  1.0000
  H   H3671     1.0  0.82814  0.66738  0.82265  1.0000
  H   H3672     1.0  0.83913  0.66184  0.79267  1.0000
  H   H3673     1.0  0.78753  0.65596  0.79323  1.0000
  H   H3674     1.0  0.77672  0.66074  0.82344  1.0000
  H   H3675     1.0  0.84174  0.54567  0.91597  1.0000
  H   H3676     1.0  0.73228  0.49590  0.92563  1.0000
  H   H3677     1.0  0.93426  0.62513  0.71446  1.0000
  H   H3678     1.0  0.72112  0.54756  0.89371  1.0000
  Fe  Fe329     1.0  0.99336  0.62663  0.78379  1.0000
  C   C4603     1.0  0.69927  0.53405  0.97240  1.0000
  H   H3679     1.0  0.90342  0.66713  0.87006  1.0000
  C   C4604     1.0  0.93478  0.65719  0.77940  1.0000
  C   C4605     1.0  0.66649  0.66031  0.95327  1.0000
  C   C4606     1.0  0.70987  0.56803  0.95171  1.0000
  C   C4607     1.0  0.76301  0.54296  0.86487  1.0000
  C   C4608     1.0  0.75321  0.56029  0.86371  1.0000
  C   C4609     1.0  0.76119  0.57369  0.86361  1.0000
  C   C4610     1.0  0.77913  0.56979  0.86414  1.0000
  C   C4611     1.0  0.78878  0.55243  0.86571  1.0000
  C   C4612     1.0  0.78069  0.53901  0.86627  1.0000
  H   H3680     1.0  0.73952  0.56339  0.86261  1.0000
  H   H3681     1.0  0.75365  0.58707  0.86255  1.0000
  H   H3682     1.0  0.80266  0.54941  0.86610  1.0000
  H   H3683     1.0  0.78845  0.52578  0.86680  1.0000
  C   C4613     1.0  0.93658  0.50416  0.84931  1.0000
  C   C4614     1.0  0.70626  0.68952  0.91352  1.0000
  C   C4615     1.0  0.82979  0.59451  0.88298  1.0000
  C   C4616     1.0  0.92038  0.70093  0.69642  1.0000
  H   H3684     1.0  0.93440  0.60103  0.74062  1.0000
  H   H3685     1.0  0.95476  0.59701  0.75997  1.0000
  C   C4617     1.0  0.95532  0.63462  0.71827  1.0000
  P   P154      1.0  0.71610  0.54436  0.95649  1.0000
  C   C4618     1.0  0.65434  0.65342  0.94924  1.0000
  H   H3686     1.0  0.83057  0.52067  0.90175  1.0000
  S   S646      1.0  0.71210  0.64770  0.88314  1.0000
  H   H3687     1.0  0.92505  0.50683  0.77257  1.0000
  S   S647      1.0  0.75670  0.65431  0.88790  1.0000
  C   C4619     1.0  0.92666  0.58080  0.69194  1.0000
  C   C4620     1.0  0.86680  0.54994  0.75944  1.0000
  C   C4621     1.0  0.88203  0.54381  0.76631  1.0000
  C   C4622     1.0  0.89015  0.55569  0.76913  1.0000
  C   C4623     1.0  0.88310  0.57375  0.76516  1.0000
  C   C4624     1.0  0.86770  0.57990  0.75855  1.0000
  C   C4625     1.0  0.85962  0.56802  0.75564  1.0000
  H   H3688     1.0  0.88754  0.52996  0.76948  1.0000
  H   H3689     1.0  0.90197  0.55089  0.77429  1.0000
  H   H3690     1.0  0.86199  0.59376  0.75566  1.0000
  H   H3691     1.0  0.84780  0.57281  0.75041  1.0000
  C   C4626     1.0  0.70233  0.60476  0.94644  1.0000
  C   C4627     1.0  0.78052  0.63964  0.96469  1.0000
  C   C4628     1.0  0.93242  0.64483  0.66312  1.0000
  H   H3692     1.0  0.78865  0.70275  0.89833  1.0000
  C   C4629     1.0  0.88016  0.71525  0.67704  1.0000
  C   C4630     1.0  0.95587  0.51229  0.82117  1.0000
  H   H3693     1.0  0.86868  0.71800  0.70349  1.0000
  C   C4631     1.0  0.98673  0.52574  0.78199  1.0000
  C   C4632     1.0  0.84844  0.70079  0.76766  1.0000
  H   H3694     1.0  0.66712  0.69723  0.94363  1.0000
  H   H3695     1.0  0.72832  0.60329  0.92952  1.0000
  H   H3696     1.0  0.51101  0.70042  0.94890  1.0000
  C   C4633     1.0  0.94060  0.54378  0.76419  1.0000
  H   H3697     1.0  0.94527  0.55106  0.77060  1.0000
  H   H3698     1.0  0.50109  0.71324  0.89945  1.0000
  C   C4634     1.0  0.83804  0.53684  0.92831  1.0000
  C   C4635     1.0  0.73451  0.69743  0.89903  1.0000
  H   H3699     1.0  0.98403  0.53227  0.75527  1.0000
  C   C4636     1.0  0.94465  0.71219  0.72409  1.0000
  H   H3700     1.0  0.85656  0.50024  0.95516  1.0000
  C   C4637     1.0  0.98812  0.71835  0.67209  1.0000
  H   H3701     1.0  0.67994  0.54440  0.95618  1.0000
  C   C4638     1.0  0.55008  0.71991  0.89490  1.0000
  C   C4639     1.0  0.85899  0.66057  0.90291  1.0000
  H   H3702     1.0  0.62142  0.72036  0.93816  1.0000
  H   H3703     1.0  0.81297  0.60510  0.94809  1.0000
  H   H3704     1.0  0.82502  0.69790  0.76214  1.0000
  C   C4640     1.0  0.81308  0.57165  0.91133  1.0000
  C   C4641     1.0  0.72214  0.53914  0.90643  1.0000
  C   C4642     1.0  0.76600  0.52621  0.96624  1.0000
  C   C4643     1.0  0.92038  0.65083  0.77912  1.0000
  H   H3705     1.0  0.76454  0.56947  0.94225  1.0000
  H   H3706     1.0  0.69256  0.69066  0.91331  1.0000
  H   H3707     1.0  0.73263  0.71914  0.93324  1.0000
  C   C4644     1.0  0.72545  0.51714  0.93897  1.0000
  C   C4645     1.0  0.65892  0.64682  0.93411  1.0000
  H   H3708     1.0  0.93394  0.67114  0.77669  1.0000
  H   H3709     1.0  0.94242  0.68788  0.67940  1.0000
  H   H3710     1.0  0.94528  0.68709  0.74220  1.0000
  H   H3711     1.0  0.73659  0.67118  0.93914  1.0000
  H   H3712     1.0  0.94251  0.62530  0.64753  1.0000
  C   C4646     1.0  0.77542  0.65153  0.93048  1.0000
  H   H3713     1.0  0.87714  0.66836  0.85915  1.0000
  H   H3714     1.0  0.89864  0.71054  0.71617  1.0000
  C   C4647     1.0  0.93964  0.50842  0.83109  1.0000
  H   H3715     1.0  0.96914  0.61176  0.66022  1.0000
  P   P155      1.0  0.95418  0.65275  0.69946  1.0000
  H   H3716     1.0  0.53985  0.70430  0.92919  1.0000
  H   H3717     1.0  0.94756  0.49999  0.87175  1.0000
  H   H3718     1.0  0.76575  0.69958  0.74769  1.0000
  S   S648      1.0  0.77608  0.61823  0.92764  1.0000
  C   C4648     1.0  0.91188  0.68411  0.72570  1.0000
  C   C4649     1.0  0.92551  0.66985  0.72177  1.0000
  C   C4650     1.0  0.72676  0.52095  0.90818  1.0000
  C   C4651     1.0  0.99432  0.67599  0.69640  1.0000
  H   H3719     1.0  0.81163  0.63659  0.93557  1.0000
  C   C4652     1.0  0.84659  0.51125  0.95045  1.0000
  H   H3720     1.0  0.90142  0.66168  0.90193  1.0000
  H   H3721     1.0  0.84756  0.69066  0.77954  1.0000
  H   H3722     1.0  0.74521  0.69115  0.95151  1.0000
  H   H3723     1.0  0.80131  0.65498  0.88040  1.0000
  C   C4653     1.0  0.72534  0.63930  0.95284  1.0000
  H   H3724     1.0  0.54294  0.71024  0.89535  1.0000
  H   H3725     1.0  0.82503  0.69280  0.97329  1.0000
  C   C4654     1.0  0.76764  0.53379  0.90992  1.0000
  C   C4655     1.0  0.92766  0.52539  0.74791  1.0000
  C   C4656     1.0  0.83470  0.66808  0.93593  1.0000
  C   C4657     1.0  0.93975  0.55003  0.74660  1.0000
  H   H3726     1.0  0.84685  0.67093  0.68692  1.0000
  H   H3727     1.0  0.70064  0.65418  0.91821  1.0000
  S   S649      1.0  0.88949  0.65634  0.70034  1.0000
  H   H3728     1.0  0.97091  0.67034  0.71520  1.0000
  C   C4658     1.0  0.93519  0.65171  0.67582  1.0000
  C   C4659     1.0  0.68585  0.67755  0.88077  1.0000
  C   C4660     1.0  0.71910  0.54639  0.92095  1.0000
  C   C4661     1.0  0.77548  0.55270  0.81605  1.0000
  C   C4662     1.0  0.78784  0.54039  0.82482  1.0000
  C   C4663     1.0  0.80226  0.54538  0.82696  1.0000
  C   C4664     1.0  0.80442  0.56265  0.82026  1.0000
  C   C4665     1.0  0.79246  0.57490  0.81083  1.0000
  C   C4666     1.0  0.77782  0.56988  0.80897  1.0000
  P   P156      1.0  0.79610  0.59668  0.80033  1.0000
  C   C4667     1.0  0.77546  0.61223  0.80539  1.0000
  C   C4668     1.0  0.81283  0.60148  0.80809  1.0000
  C   C4669     1.0  0.80807  0.61168  0.82069  1.0000
  C   C4670     1.0  0.82111  0.61672  0.82532  1.0000
  C   C4671     1.0  0.83896  0.61164  0.81741  1.0000
  C   C4672     1.0  0.84386  0.60107  0.80520  1.0000
  C   C4673     1.0  0.83087  0.59592  0.80063  1.0000
  C   C4674     1.0  0.77110  0.62814  0.79357  1.0000
  C   C4675     1.0  0.75533  0.64026  0.79802  1.0000
  C   C4676     1.0  0.74380  0.63655  0.81423  1.0000
  C   C4677     1.0  0.74802  0.62072  0.82602  1.0000
  C   C4678     1.0  0.76385  0.60867  0.82168  1.0000
  C   C4679     1.0  0.80411  0.59855  0.77702  1.0000
  C   C4680     1.0  0.80382  0.58553  0.76888  1.0000
  C   C4681     1.0  0.81083  0.58690  0.75096  1.0000
  C   C4682     1.0  0.81828  0.60118  0.74106  1.0000
  C   C4683     1.0  0.81877  0.61409  0.74909  1.0000
  C   C4684     1.0  0.81178  0.61275  0.76698  1.0000
  H   H3729     1.0  0.76401  0.54891  0.81493  1.0000
  H   H3730     1.0  0.78589  0.52713  0.83051  1.0000
  H   H3731     1.0  0.81157  0.53591  0.83414  1.0000
  H   H3732     1.0  0.81546  0.56632  0.82240  1.0000
  H   H3733     1.0  0.76825  0.57923  0.80201  1.0000
  H   H3734     1.0  0.79432  0.61606  0.82679  1.0000
  H   H3735     1.0  0.81723  0.62499  0.83473  1.0000
  H   H3736     1.0  0.84893  0.61617  0.82051  1.0000
  H   H3737     1.0  0.85768  0.59723  0.79887  1.0000
  H   H3738     1.0  0.83489  0.58808  0.79085  1.0000
  H   H3739     1.0  0.77990  0.63143  0.78107  1.0000
  H   H3740     1.0  0.75216  0.65264  0.78897  1.0000
  H   H3741     1.0  0.73169  0.64603  0.81778  1.0000
  H   H3742     1.0  0.73923  0.61794  0.83871  1.0000
  H   H3743     1.0  0.76721  0.59672  0.83116  1.0000
  H   H3744     1.0  0.79850  0.57415  0.77626  1.0000
  H   H3745     1.0  0.81081  0.57667  0.74481  1.0000
  H   H3746     1.0  0.82390  0.60211  0.72722  1.0000
  H   H3747     1.0  0.82472  0.62510  0.74155  1.0000
  H   H3748     1.0  0.81255  0.62270  0.77306  1.0000
  C   C4685     1.0  0.90903  0.60025  0.71747  1.0000
  C   C4686     1.0  0.88401  0.54278  0.71396  1.0000
  C   C4687     1.0  0.88826  0.53141  0.70264  1.0000
  C   C4688     1.0  0.90601  0.52473  0.69559  1.0000
  H   H3749     1.0  0.91300  0.57597  0.73609  1.0000
  H   H3750     1.0  0.90166  0.60764  0.72739  1.0000
  H   H3751     1.0  0.87024  0.54777  0.71963  1.0000
  H   H3752     1.0  0.87778  0.52749  0.69969  1.0000
  H   H3753     1.0  0.90928  0.51563  0.68711  1.0000
  C   C4689     1.0  0.90940  0.69965  0.71310  1.0000
  C   C4690     1.0  0.96536  0.55299  0.69421  1.0000
  C   C4691     1.0  0.87772  0.69098  0.70203  1.0000
  H   H3754     1.0  0.57432  0.70083  0.89756  1.0000
  S   S650      1.0  0.90100  0.66554  0.77410  1.0000
  C   C4692     1.0  0.95145  0.62739  0.78710  1.0000
  H   H3755     1.0  0.72930  0.51535  0.89688  1.0000
  H   H3756     1.0  0.74766  0.58291  0.96697  1.0000
  H   H3757     1.0  0.61530  0.67213  0.93108  1.0000
  H   H3758     1.0  0.75523  0.68672  0.91334  1.0000
  C   C4693     1.0  0.93657  0.67098  0.70501  1.0000
  H   H3759     1.0  0.84367  0.66202  0.71901  1.0000
  C   C4694     1.0  0.81616  0.52762  0.95400  1.0000
  C   C4695     1.0  0.69048  0.70645  0.86455  1.0000
  H   H3760     1.0  0.92729  0.65805  0.73188  1.0000
  H   H3761     1.0  0.72688  0.50837  0.95145  1.0000
  C   C4696     1.0  0.95518  0.60721  0.74815  1.0000
  H   H3762     1.0  0.92950  0.50855  0.82461  1.0000
  H   H3763     1.0  0.77553  0.57280  0.90967  1.0000
  H   H3764     1.0  0.98915  0.71638  0.89701  1.0000
  H   H3765     1.0  0.93847  0.49498  0.67891  1.0000
  C   C4697     1.0  0.91534  0.54102  0.71108  1.0000
  C   C4698     1.0  0.88586  0.67902  0.69132  1.0000
  Fe  Fe330     1.0  0.76991  0.62767  0.90093  1.0000
  C   C4699     1.0  0.72085  0.53542  0.93733  1.0000
  C   C4700     1.0  0.82043  0.66575  0.90721  1.0000
  C   C4701     1.0  0.96707  0.63195  0.72917  1.0000
  C   C4702     1.0  0.71328  0.67938  0.92801  1.0000
  C   C4703     1.0  0.61440  0.70976  0.94214  1.0000
  H   H3766     1.0  0.93281  0.57328  0.68192  1.0000
  H   H3767     1.0  0.62065  0.72301  0.97477  1.0000
  C   C4704     1.0  0.96110  0.52321  0.70475  1.0000
  C   C4705     1.0  0.68982  0.59531  0.95749  1.0000
  S   S651      1.0  0.77764  0.67226  0.96949  1.0000
  H   H3768     1.0  0.91799  0.71278  0.68648  1.0000
  C   C4706     1.0  0.95199  0.72927  0.67183  1.0000
  H   H3769     1.0  0.93639  0.52309  0.78702  1.0000
  C   C4707     1.0  0.94374  0.60949  0.73723  1.0000
  P   P157      1.0  0.80315  0.55641  0.92962  1.0000
  H   H3770     1.0  0.72926  0.67557  0.86052  1.0000
  C   C4708     1.0  0.52228  0.69923  0.95429  1.0000
  C   C4709     1.0  0.93543  0.52813  0.77351  1.0000
  H   H3771     1.0  0.86460  0.52100  0.92705  1.0000
  C   C4710     1.0  0.71107  0.65112  0.96068  1.0000
  C   C4711     1.0  0.93403  0.68671  0.69241  1.0000
  H   H3772     1.0  0.90316  0.68308  0.73853  1.0000
  H   H3773     1.0  0.64956  0.64151  0.93089  1.0000
  C   C4712     1.0  0.71529  0.68109  0.86467  1.0000
  H   H3774     1.0  0.69951  0.61891  0.94446  1.0000
  C   C4713     1.0  0.95039  0.64438  0.68281  1.0000
  C   C4714     1.0  0.81627  0.58683  0.91375  1.0000
  H   H3775     1.0  0.92523  0.66245  0.68039  1.0000
  C   C4715     1.0  0.82470  0.59815  0.89965  1.0000
  C   C4716     1.0  0.98242  0.54685  0.68490  1.0000
  C   C4717     1.0  0.77171  0.57168  0.95052  1.0000
  C   C4718     1.0  0.87397  0.65986  0.90898  1.0000
  H   H3776     1.0  0.75278  0.52339  0.94815  1.0000
  H   H3777     1.0  0.95877  0.71861  0.64896  1.0000
  C   C4719     1.0  0.74155  0.68752  0.91346  1.0000
  H   H3778     1.0  0.91704  0.69730  0.76211  1.0000
  H   H3779     1.0  0.80270  0.52916  0.96166  1.0000
  H   H3780     1.0  0.93778  0.60702  0.79008  1.0000
  C   C4720     1.0  0.67566  0.64703  0.92307  1.0000
  C   C4721     1.0  0.78941  0.54738  0.92187  1.0000
  C   C4722     1.0  0.66398  0.71263  0.96218  1.0000
  H   H3781     1.0  0.58817  0.67294  0.95461  1.0000
  H   H3782     1.0  0.98555  0.55815  0.85335  1.0000
  C   C4723     1.0  0.95040  0.64548  0.78311  1.0000
  H   H3783     1.0  0.92124  0.60525  0.67340  1.0000
  C   C4724     1.0  0.97897  0.66928  0.70231  1.0000
  C   C4725     1.0  0.95432  0.54124  0.70370  1.0000
  H   H3784     1.0  0.83819  0.49134  0.66184  1.0000
  C   C4726     1.0  0.84133  0.68072  0.69480  1.0000
  C   C4727     1.0  0.83609  0.69837  0.68691  1.0000
  C   C4728     1.0  0.96368  0.72049  0.65923  1.0000
  H   H3785     1.0  0.67727  0.60220  0.96407  1.0000
  C   C4729     1.0  0.93812  0.70061  0.73924  1.0000
  H   H3786     1.0  0.65215  0.72149  0.95858  1.0000
  C   C4730     1.0  0.72846  0.50999  0.92441  1.0000
  C   C4731     1.0  0.92156  0.63272  0.78277  1.0000
  C   C4732     1.0  0.90881  0.48774  0.81167  1.0000
  C   C4733     1.0  0.82439  0.62754  0.93482  1.0000
  H   H3787     1.0  0.67936  0.64177  0.91139  1.0000
  H   H3788     1.0  0.87362  0.68648  0.71581  1.0000
  C   C4734     1.0  0.82634  0.57959  0.88040  1.0000
  H   H3789     1.0  0.82492  0.64266  0.89688  1.0000
  C   C4735     1.0  0.88991  0.66225  0.89717  1.0000
  H   H3790     1.0  0.81978  0.65014  0.95543  1.0000
  S   S652      1.0  0.85670  0.48438  0.77405  1.0000
  C   C4736     1.0  0.89521  0.50267  0.81317  1.0000
  C   C4737     1.0  0.88732  0.50693  0.82956  1.0000
  C   C4738     1.0  0.89328  0.49601  0.84438  1.0000
  P   P158      1.0  0.86991  0.52642  0.83126  1.0000
  C   C4739     1.0  0.85718  0.52476  0.85354  1.0000
  C   C4740     1.0  0.87932  0.54564  0.82468  1.0000
  C   C4741     1.0  0.86999  0.56077  0.83108  1.0000
  C   C4742     1.0  0.87716  0.57573  0.82594  1.0000
  C   C4743     1.0  0.89339  0.57590  0.81396  1.0000
  C   C4744     1.0  0.90263  0.56099  0.80738  1.0000
  C   C4745     1.0  0.89567  0.54589  0.81273  1.0000
  C   C4746     1.0  0.84108  0.51915  0.85881  1.0000
  C   C4747     1.0  0.83150  0.51788  0.87610  1.0000
  C   C4748     1.0  0.83795  0.52200  0.88832  1.0000
  C   C4749     1.0  0.85398  0.52751  0.88324  1.0000
  C   C4750     1.0  0.86356  0.52890  0.86594  1.0000
  C   C4751     1.0  0.85567  0.52791  0.81708  1.0000
  C   C4752     1.0  0.85080  0.51274  0.81675  1.0000
  C   C4753     1.0  0.83937  0.51362  0.80627  1.0000
  C   C4754     1.0  0.83298  0.52963  0.79579  1.0000
  C   C4755     1.0  0.83809  0.54475  0.79574  1.0000
  C   C4756     1.0  0.84939  0.54395  0.80636  1.0000
  H   H3791     1.0  0.99100  0.70923  0.64895  1.0000
  C   C4757     1.0  0.77940  0.62789  0.95560  1.0000
  C   C4758     1.0  0.79394  0.72533  0.75849  1.0000
  H   H3792     1.0  0.89062  0.51071  0.80159  1.0000
  H   H3793     1.0  0.88716  0.49866  0.85722  1.0000
  H   H3794     1.0  0.85705  0.56113  0.83982  1.0000
  H   H3795     1.0  0.86991  0.58736  0.83086  1.0000
  H   H3796     1.0  0.89860  0.58774  0.80936  1.0000
  H   H3797     1.0  0.91487  0.56141  0.79759  1.0000
  H   H3798     1.0  0.90286  0.53470  0.80709  1.0000
  H   H3799     1.0  0.83591  0.51539  0.84984  1.0000
  H   H3800     1.0  0.81924  0.51324  0.88008  1.0000
  C   C4759     1.0  0.70850  0.69910  0.85891  1.0000
  C   C4760     1.0  0.98401  0.66157  0.67447  1.0000
  H   H3801     1.0  0.87604  0.53302  0.86224  1.0000
  H   H3802     1.0  0.85579  0.50027  0.82474  1.0000
  H   H3803     1.0  0.83561  0.50185  0.80613  1.0000
  H   H3804     1.0  0.82445  0.53027  0.78733  1.0000
  H   H3805     1.0  0.83345  0.55703  0.78723  1.0000
  H   H3806     1.0  0.85326  0.55580  0.80598  1.0000
  C   C4761     1.0  0.68313  0.66104  0.94193  1.0000
  C   C4762     1.0  0.68273  0.53628  0.96851  1.0000
  C   C4763     1.0  0.89113  0.68525  0.67325  1.0000
  H   H3807     1.0  0.68395  0.56990  0.96926  1.0000
  C   C4764     1.0  0.79353  0.67963  0.88825  1.0000
  C   C4765     1.0  0.96685  0.61839  0.74411  1.0000
  H   H3808     1.0  0.77380  0.72669  0.78217  1.0000
  C   C4766     1.0  0.83997  0.63378  0.92687  1.0000
  C   C4767     1.0  0.81806  0.56817  0.89451  1.0000
  H   H3809     1.0  0.82666  0.61008  0.90157  1.0000
  H   H3810     1.0  0.75957  0.52848  0.90493  1.0000
  C   C4768     1.0  0.92006  0.59885  0.68705  1.0000
  C   C4769     1.0  0.93276  0.54115  0.73848  1.0000
  C   C4770     1.0  0.83965  0.67570  0.71287  1.0000
  H   H3811     1.0  0.93304  0.52446  0.69378  1.0000
  C   C4771     1.0  0.92896  0.51898  0.76538  1.0000
  C   C4772     1.0  0.67916  0.69560  0.87542  1.0000
  H   H3812     1.0  0.95316  0.51388  0.71285  1.0000
  C   C4773     1.0  0.78034  0.52247  0.91887  1.0000
  H   H3813     1.0  0.94437  0.56187  0.73941  1.0000
  H   H3814     1.0  0.97709  0.56433  0.75307  1.0000
  H   H3815     1.0  0.88735  0.48588  0.70336  1.0000
  C   C4774     1.0  0.98868  0.52893  0.68529  1.0000
  H   H3816     1.0  0.92280  0.51792  0.74181  1.0000
  C   C4775     1.0  0.76571  0.55190  0.90697  1.0000
  C   C4776     1.0  0.79124  0.52917  0.92480  1.0000
  H   H3817     1.0  0.96105  0.56681  0.69428  1.0000
  H   H3818     1.0  0.78166  0.50845  0.92132  1.0000
  C   C4777     1.0  0.92491  0.57242  0.70967  1.0000
  H   H3819     1.0  0.89385  0.55616  0.72723  1.0000
  C   C4778     1.0  0.70396  0.67028  0.87564  1.0000
  H   H3820     1.0  0.75598  0.56065  0.89984  1.0000
  H   H3821     1.0  0.81518  0.55689  0.89213  1.0000
  H   H3822     1.0  0.97985  0.65684  0.66547  1.0000
  C   C4779     1.0  0.77681  0.63374  0.93853  1.0000
  C   C4780     1.0  0.77678  0.55871  0.91261  1.0000
  H   H3823     1.0  0.83193  0.68413  0.73702  1.0000
  C   C4781     1.0  0.94373  0.62317  0.72240  1.0000
  H   H3824     1.0  0.83567  0.60364  0.87192  1.0000
  C   C4782     1.0  0.72237  0.57766  0.94064  1.0000
  C   C4783     1.0  0.71751  0.72996  0.97311  1.0000
  H   H3825     1.0  0.97552  0.61671  0.75280  1.0000
  H   H3826     1.0  0.71533  0.56050  0.91925  1.0000
  H   H3827     1.0  0.66518  0.70106  0.87945  1.0000
  C   C4784     1.0  0.96252  0.62980  0.67724  1.0000
  S   S653      1.0  0.59903  0.71885  0.89924  1.0000
  C   C4785     1.0  0.76200  0.57931  0.96464  1.0000
  C   C4786     1.0  0.97409  0.66134  0.69165  1.0000
  C   C4787     1.0  0.83320  0.68836  0.72303  1.0000
  C   C4788     1.0  0.62045  0.69576  0.93366  1.0000
  C   C4789     1.0  0.97812  0.51712  0.69540  1.0000
  H   H3828     1.0  0.72969  0.64141  0.93874  1.0000
  C   C4790     1.0  0.95266  0.49145  0.67420  1.0000
  C   C4791     1.0  0.80370  0.66269  0.88804  1.0000
  C   C4792     1.0  0.97641  0.72666  0.68502  1.0000
  H   H3829     1.0  0.99093  0.55593  0.67776  1.0000
  C   C4793     1.0  0.71859  0.59594  0.93802  1.0000
  H   H3830     1.0  0.77361  0.65604  0.91722  1.0000
  H   H3831     1.0  0.73515  0.57098  0.93421  1.0000
  H   H3832     1.0  0.81180  0.59022  0.92636  1.0000
  C   C4794     1.0  0.81002  0.68274  0.90756  1.0000
  C   C4795     1.0  0.81706  0.65574  0.89746  1.0000
  H   H3833     1.0  0.74573  0.61600  0.95702  1.0000
  C   C4796     1.0  0.82515  0.66167  0.95267  1.0000
  C   C4797     1.0  0.82042  0.53914  0.93788  1.0000
  C   C4798     1.0  0.73097  0.67859  0.92797  1.0000
  C   C4799     1.0  0.82515  0.60968  0.94191  1.0000
  C   C4800     1.0  0.94478  0.63063  0.65731  1.0000
  C   C4801     1.0  0.87482  0.70897  0.69495  1.0000
  C   C4802     1.0  0.98340  0.53734  0.76645  1.0000
  H   H3834     1.0  0.95694  0.70740  0.71552  1.0000
  C   C4803     1.0  0.86027  0.66365  0.88484  1.0000
  C   C4804     1.0  0.71686  0.69852  0.89915  1.0000
  H   H3835     1.0  0.92047  0.65039  0.65805  1.0000
  C   C4805     1.0  0.87624  0.66602  0.87308  1.0000
  C   C4806     1.0  0.77359  0.70685  0.75065  1.0000
  C   C4807     1.0  0.88839  0.70340  0.66611  1.0000
  C   C4808     1.0  0.77635  0.66342  0.93972  1.0000
  H   H3836     1.0  0.77507  0.67721  0.93367  1.0000
  H   H3837     1.0  0.63208  0.69548  0.92305  1.0000
  P   P159      1.0  0.69897  0.66949  0.94727  1.0000
  C   C4809     1.0  0.89105  0.66533  0.87923  1.0000
  C   C4810     1.0  0.83560  0.70504  0.75772  1.0000
  C   C4811     1.0  0.82915  0.51366  0.96018  1.0000
  C   C4812     1.0  0.97940  0.55544  0.76524  1.0000
  H   H3838     1.0  0.74271  0.70422  0.88770  1.0000
  C   C4813     1.0  0.92224  0.70637  0.75053  1.0000
  H   H3839     1.0  0.71730  0.70741  0.85040  1.0000
  C   C4814     1.0  0.82849  0.70620  0.71517  1.0000
  H   H3840     1.0  0.84175  0.70450  0.94374  1.0000
  C   C4815     1.0  0.98076  0.50035  0.66198  1.0000
  C   C4816     1.0  0.67251  0.69878  0.95375  1.0000
  C   C4817     1.0  0.95830  0.73257  0.68474  1.0000
  H   H3841     1.0  0.84747  0.68921  0.91985  1.0000
  H   H3842     1.0  0.71131  0.70645  0.88810  1.0000
  C   C4818     1.0  0.91300  0.72378  0.74685  1.0000
  C   C4819     1.0  0.56787  0.71458  0.89612  1.0000
  H   H3843     1.0  0.98975  0.51174  0.78266  1.0000
  H   H3844     1.0  0.96154  0.65046  0.78314  1.0000
  C   C4820     1.0  0.68794  0.68726  0.95825  1.0000
  P   P160      1.0  0.99011  0.51708  0.81664  1.0000
  H   H3845     1.0  0.81221  0.69070  0.91507  1.0000
  H   H3846     1.0  0.97403  0.62367  0.68292  1.0000
  H   H3847     1.0  0.97349  0.54342  0.83802  1.0000
  H   H3848     1.0  0.63190  0.72460  0.83346  1.0000
  H   H3849     1.0  0.78332  0.68493  0.88070  1.0000
  C   C4821     1.0  0.85107  0.52291  0.93458  1.0000
  H   H3850     1.0  0.89235  0.70820  0.65219  1.0000
  H   H3851     1.0  0.60320  0.72310  0.85477  1.0000
  C   C4822     1.0  0.79662  0.68963  0.89810  1.0000
  H   H3852     1.0  0.81331  0.56636  0.95660  1.0000
  H   H3853     1.0  0.86985  0.59465  0.93216  1.0000
  C   C4823     1.0  0.79900  0.56990  0.95872  1.0000
  H   H3854     1.0  0.95567  0.51820  0.66779  1.0000
  C   C4824     1.0  0.99435  0.54830  0.84645  1.0000
  H   H3855     1.0  0.84904  0.66422  0.87969  1.0000
  H   H3856     1.0  0.87334  0.65733  0.92286  1.0000
  S   S654      1.0  0.97084  0.61271  0.79204  1.0000
  H   H3857     1.0  0.86869  0.62614  0.92001  1.0000
  P   P161      1.0  0.83857  0.65707  0.91834  1.0000
  C   C4825     1.0  0.98610  0.53218  0.79648  1.0000
  C   C4826     1.0  0.73437  0.62471  0.96318  1.0000
  C   C4827     1.0  0.77812  0.72215  0.77007  1.0000
  H   H3858     1.0  0.97627  0.64029  0.72654  1.0000
  C   C4828     1.0  0.96605  0.50753  0.84774  1.0000
  C   C4829     1.0  0.82945  0.71105  0.69706  1.0000
  H   H3859     1.0  0.64139  0.65320  0.95782  1.0000
  C   C4830     1.0  0.58963  0.69689  0.96038  1.0000
  C   C4831     1.0  0.98178  0.71526  0.65920  1.0000
  C   C4832     1.0  0.73729  0.70198  0.95746  1.0000
  H   H3860     1.0  0.56525  0.70283  0.94102  1.0000
  C   C4833     1.0  0.55300  0.70050  0.95006  1.0000
  C   C4834     1.0  0.61101  0.68250  0.93826  1.0000
  C   C4835     1.0  0.53855  0.70146  0.94319  1.0000
  P   P162      1.0  0.82082  0.72234  0.72860  1.0000
  H   H3861     1.0  0.79359  0.70508  0.72718  1.0000
  C   C4836     1.0  0.75139  0.52932  0.95890  1.0000
  C   C4837     1.0  0.83727  0.69245  0.94625  1.0000
  C   C4838     1.0  0.85714  0.60385  0.93295  1.0000
  C   C4839     1.0  0.59902  0.71038  0.95541  1.0000
  H   H3862     1.0  0.87730  0.48990  0.67628  1.0000
  C   C4840     1.0  0.98758  0.53994  0.83771  1.0000
  C   C4841     1.0  0.69359  0.57698  0.96024  1.0000
  H   H3863     1.0  0.84205  0.58393  0.94627  1.0000
  C   C4842     1.0  0.69531  0.69048  0.97043  1.0000
  C   C4843     1.0  0.86282  0.70896  0.76190  1.0000
  H   H3864     1.0  0.95811  0.51518  0.80708  1.0000
  H   H3865     1.0  0.98833  0.51051  0.65722  1.0000
  C   C4844     1.0  0.84151  0.59780  0.94091  1.0000
  C   C4845     1.0  0.77850  0.65750  0.95699  1.0000
  H   H3866     1.0  0.98018  0.55588  0.80632  1.0000
  H   H3867     1.0  0.92403  0.50108  0.85697  1.0000
  C   C4846     1.0  0.89094  0.48358  0.67696  1.0000
  C   C4847     1.0  0.85641  0.62179  0.92604  1.0000
  H   H3868     1.0  0.99423  0.58742  0.73987  1.0000
  S   S655      1.0  0.64386  0.72672  0.90043  1.0000
  H   H3869     1.0  0.50159  0.73151  0.96915  1.0000
  C   C4848     1.0  0.57730  0.72683  0.89571  1.0000
  H   H3870     1.0  0.82518  0.72452  0.69065  1.0000
  H   H3871     1.0  0.66291  0.66509  0.96519  1.0000
  H   H3872     1.0  0.75581  0.71024  0.77526  1.0000
  H   H3873     1.0  0.59442  0.72157  0.96147  1.0000
  H   H3874     1.0  0.87309  0.70508  0.76933  1.0000
  C   C4849     1.0  0.83673  0.71797  0.74211  1.0000
  S   S656      1.0  0.68253  0.72926  0.85836  1.0000
  H   H3875     1.0  0.77833  0.51798  0.96109  1.0000
  C   C4850     1.0  0.86408  0.72181  0.74643  1.0000
  C   C4851     1.0  0.78942  0.70998  0.73905  1.0000
  H   H3876     1.0  0.85371  0.72966  0.64377  1.0000
  C   C4852     1.0  0.76798  0.71286  0.76618  1.0000
  C   C4853     1.0  0.85106  0.72638  0.73664  1.0000
  C   C4854     1.0  0.73526  0.53979  0.96563  1.0000
  C   C4855     1.0  0.55131  0.69722  0.96823  1.0000
  H   H3877     1.0  0.78061  0.61419  0.96184  1.0000
  H   H3878     1.0  0.69053  0.73115  0.94016  1.0000
  H   H3879     1.0  0.68100  0.72588  0.91616  1.0000
  H   H3880     1.0  0.98162  0.72889  0.69492  1.0000
  C   C4856     1.0  0.93530  0.72968  0.72016  1.0000
  H   H3881     1.0  0.90080  0.72821  0.75576  1.0000
  H   H3882     1.0  0.87525  0.72812  0.74190  1.0000
  C   C4857     1.0  0.82183  0.67051  0.96608  1.0000
  C   C4858     1.0  0.78923  0.57755  0.97282  1.0000
  C   C4859     1.0  0.67090  0.71523  0.97495  1.0000
  H   H3883     1.0  0.82555  0.50448  0.97238  1.0000
  H   H3884     1.0  0.70768  0.68233  0.97353  1.0000
  H   H3885     1.0  0.62868  0.69194  0.97184  1.0000
  C   C4860     1.0  0.82790  0.68586  0.96290  1.0000
  H   H3886     1.0  0.80173  0.73242  0.76176  1.0000
  C   C4861     1.0  0.73463  0.70008  0.97545  1.0000
  H   H3887     1.0  0.55443  0.88012  0.17012  1.0000
  H   H3888     1.0  0.85462  0.78419  0.17004  1.0000
  C   C4862     1.0  0.82762  0.93508  0.23948  1.0000
  H   H3889     1.0  0.80743  0.97753  0.30657  1.0000
  C   C4863     1.0  0.55467  0.81165  0.04945  1.0000
  C   C4864     1.0  0.51355  0.77820  0.09026  1.0000
  H   H3890     1.0  0.60472  0.88052  0.20455  1.0000
  C   C4865     1.0  0.54243  0.80834  0.06525  1.0000
  S   S657      1.0  0.59747  0.77451  0.04473  1.0000
  C   C4866     1.0  0.59028  0.94515  0.17399  1.0000
  S   S658      1.0  0.63684  0.75976  0.05435  1.0000
  S   S659      1.0  0.63341  0.77889  0.01386  1.0000
  Fe  Fe331     1.0  0.62196  0.78488  0.04045  1.0000
  S   S660      1.0  0.62191  0.81193  0.04288  1.0000
  Fe  Fe332     1.0  0.61042  0.76614  0.01938  1.0000
  S   S661      1.0  0.59477  0.76816  0.99972  1.0000
  H   H3891     1.0  0.53713  0.80470  0.09309  1.0000
  H   H3892     1.0  0.66846  0.74068  0.10680  1.0000
  H   H3893     1.0  0.94577  0.74330  0.24685  1.0000
  Fe  Fe333     1.0  0.60692  0.87152  0.12802  1.0000
  S   S662      1.0  0.62506  0.87068  0.10167  1.0000
  S   S663      1.0  0.57773  0.88240  0.12865  1.0000
  Fe  Fe334     1.0  0.63751  0.85875  0.14711  1.0000
  S   S664      1.0  0.65791  0.85686  0.12222  1.0000
  S   S665      1.0  0.64373  0.85341  0.17389  1.0000
  Fe  Fe335     1.0  0.64175  0.88275  0.11088  1.0000
  S   S666      1.0  0.65530  0.90463  0.09451  1.0000
  Fe  Fe336     1.0  0.63932  0.84489  0.11537  1.0000
  S   S667      1.0  0.64956  0.81971  0.10545  1.0000
  S   S668      1.0  0.62264  0.88564  0.13617  1.0000
  S   S669      1.0  0.61991  0.84483  0.14126  1.0000
  C   C4867     1.0  0.50395  0.79247  0.09773  1.0000
  C   C4868     1.0  0.64295  0.92615  0.09488  1.0000
  C   C4869     1.0  0.62470  0.92950  0.10197  1.0000
  C   C4870     1.0  0.61513  0.94684  0.10188  1.0000
  C   C4871     1.0  0.62383  0.96085  0.09520  1.0000
  C   C4872     1.0  0.64212  0.95746  0.08831  1.0000
  C   C4873     1.0  0.65161  0.94017  0.08795  1.0000
  H   H3894     1.0  0.61787  0.91878  0.10707  1.0000
  H   H3895     1.0  0.60095  0.94935  0.10672  1.0000
  C   C4874     1.0  0.81232  0.75911  0.13697  1.0000
  H   H3896     1.0  0.66572  0.93763  0.08245  1.0000
  C   C4875     1.0  0.69760  0.84528  0.16098  1.0000
  C   C4876     1.0  0.67992  0.84657  0.16058  1.0000
  C   C4877     1.0  0.88391  0.75733  0.26625  1.0000
  H   H3897     1.0  0.70811  0.84184  0.15015  1.0000
  H   H3898     1.0  0.67699  0.84411  0.14949  1.0000
  C   C4878     1.0  0.71080  0.86930  0.30573  1.0000
  Fe  Fe337     1.0  0.83653  0.73534  0.24090  1.0000
  C   C4879     1.0  0.62930  0.81394  0.06053  1.0000
  C   C4880     1.0  0.63764  0.79924  0.07131  1.0000
  C   C4881     1.0  0.64399  0.80124  0.08485  1.0000
  C   C4882     1.0  0.64160  0.81788  0.08810  1.0000
  C   C4883     1.0  0.63319  0.83262  0.07738  1.0000
  C   C4884     1.0  0.62716  0.83065  0.06356  1.0000
  H   H3899     1.0  0.63947  0.78634  0.06909  1.0000
  H   H3900     1.0  0.65055  0.78983  0.09300  1.0000
  H   H3901     1.0  0.63149  0.84553  0.07959  1.0000
  H   H3902     1.0  0.62075  0.84210  0.05526  1.0000
  H   H3903     1.0  0.59472  0.80505  0.12217  1.0000
  H   H3904     1.0  0.82493  0.87432  0.25742  1.0000
  C   C4885     1.0  0.78037  0.96380  0.19680  1.0000
  C   C4886     1.0  0.99062  0.74266  0.15315  1.0000
  C   C4887     1.0  0.60928  0.76358  0.98040  1.0000
  C   C4888     1.0  0.69177  0.90589  0.28048  1.0000
  C   C4889     1.0  0.78909  0.77515  0.30056  1.0000
  C   C4890     1.0  0.81831  0.87183  0.28528  1.0000
  H   H3905     1.0  0.63265  0.75821  0.99064  1.0000
  C   C4891     1.0  0.72693  0.86370  0.29454  1.0000
  H   H3906     1.0  0.80224  0.87800  0.23691  1.0000
  C   C4892     1.0  0.68312  0.92882  0.29680  1.0000
  C   C4893     1.0  0.59761  0.88659  0.19413  1.0000
  H   H3907     1.0  0.69995  0.78313  0.07063  1.0000
  H   H3908     1.0  0.53360  0.73390  0.09931  1.0000
  H   H3909     1.0  0.82406  0.78311  0.17104  1.0000
  H   H3910     1.0  0.74052  0.94577  0.18942  1.0000
  C   C4894     1.0  0.73420  0.94118  0.20286  1.0000
  C   C4895     1.0  0.50062  0.74397  0.98958  1.0000
  C   C4896     1.0  0.57607  0.81170  0.06521  1.0000
  H   H3911     1.0  0.55745  0.83131  0.17010  1.0000
  C   C4897     1.0  0.67156  0.78712  0.03780  1.0000
  H   H3912     1.0  0.97680  0.86295  0.30641  1.0000
  H   H3913     1.0  0.93277  0.74622  0.17940  1.0000
  C   C4898     1.0  0.68067  0.94592  0.16457  1.0000
  C   C4899     1.0  0.83416  0.77113  0.17134  1.0000
  H   H3914     1.0  0.52932  0.80721  0.06525  1.0000
  H   H3915     1.0  0.85083  0.78770  0.22808  1.0000
  S   S670      1.0  0.88608  0.76609  0.21233  1.0000
  S   S671      1.0  0.50224  0.93396  0.12735  1.0000
  H   H3916     1.0  0.50999  0.94315  0.17205  1.0000
  C   C4900     1.0  0.71154  0.94483  0.29815  1.0000
  H   H3917     1.0  0.69230  0.90638  0.24581  1.0000
  H   H3918     1.0  0.90631  0.78094  0.28569  1.0000
  H   H3919     1.0  0.51195  0.89405  0.21241  1.0000
  C   C4901     1.0  0.49977  0.95026  0.18086  1.0000
  C   C4902     1.0  0.68808  0.85244  0.18944  1.0000
  H   H3920     1.0  0.87862  0.79118  0.27541  1.0000
  H   H3921     1.0  0.49843  0.87620  0.12432  1.0000
  C   C4903     1.0  0.95621  0.76539  0.24522  1.0000
  H   H3922     1.0  0.68730  0.87395  0.08932  1.0000
  C   C4904     1.0  0.67557  0.90616  0.21196  1.0000
  C   C4905     1.0  0.94575  0.76373  0.20101  1.0000
  H   H3923     1.0  0.67868  0.98047  0.17649  1.0000
  H   H3924     1.0  0.77852  0.85531  0.28802  1.0000
  H   H3925     1.0  0.62284  0.97415  0.25699  1.0000
  H   H3926     1.0  0.71924  0.81517  0.30065  1.0000
  C   C4906     1.0  0.83437  0.83611  0.28715  1.0000
  H   H3927     1.0  0.80545  0.85562  0.22032  1.0000
  C   C4907     1.0  0.56723  0.85287  0.15111  1.0000
  H   H3928     1.0  0.61833  0.75574  0.09158  1.0000
  H   H3929     1.0  0.64682  0.94737  0.25708  1.0000
  H   H3930     1.0  0.93866  0.75844  0.29533  1.0000
  H   H3931     1.0  0.62835  0.90117  0.16951  1.0000
  C   C4908     1.0  0.71124  0.85442  0.27827  1.0000
  C   C4909     1.0  0.62239  0.76878  0.10938  1.0000
  C   C4910     1.0  0.54497  0.92818  0.20198  1.0000
  C   C4911     1.0  0.66068  0.91712  0.29175  1.0000
  H   H3932     1.0  0.79349  0.90928  0.26652  1.0000
  C   C4912     1.0  0.58535  0.83590  0.09605  1.0000
  H   H3933     1.0  0.53730  0.76173  0.13593  1.0000
  C   C4913     1.0  0.79153  0.77366  0.17463  1.0000
  H   H3934     1.0  0.60315  0.86266  0.18514  1.0000
  H   H3935     1.0  0.52685  0.77455  0.16225  1.0000
  Fe  Fe338     1.0  0.98854  0.74570  0.20973  1.0000
  C   C4914     1.0  0.67136  0.97134  0.28513  1.0000
  H   H3936     1.0  0.88025  0.76239  0.25367  1.0000
  C   C4915     1.0  0.53942  0.79647  0.15018  1.0000
  H   H3937     1.0  0.76985  0.80676  0.23514  1.0000
  C   C4916     1.0  0.98074  0.74352  0.14119  1.0000
  C   C4917     1.0  0.61337  0.76675  0.09794  1.0000
  C   C4918     1.0  0.59785  0.77889  0.09472  1.0000
  C   C4919     1.0  0.81724  0.77787  0.22579  1.0000
  H   H3938     1.0  0.65977  0.85679  0.20004  1.0000
  C   C4920     1.0  0.55271  0.79483  0.99735  1.0000
  C   C4921     1.0  0.55523  0.79791  0.11999  1.0000
  C   C4922     1.0  0.49724  0.75996  0.99447  1.0000
  H   H3939     1.0  0.82482  0.80150  0.20921  1.0000
  C   C4923     1.0  0.61571  0.78270  0.11793  1.0000
  P   P163      1.0  0.66847  0.92101  0.19314  1.0000
  C   C4924     1.0  0.71628  0.95904  0.28492  1.0000
  H   H3940     1.0  0.68595  0.78871  0.98594  1.0000
  H   H3941     1.0  0.66336  0.78836  0.02881  1.0000
  H   H3942     1.0  0.59815  0.82698  0.09426  1.0000
  C   C4925     1.0  0.63513  0.93087  0.21418  1.0000
  C   C4926     1.0  0.76601  0.79519  0.16573  1.0000
  C   C4927     1.0  0.91588  0.77876  0.19755  1.0000
  S   S672      1.0  0.70940  0.96184  0.24536  1.0000
  H   H3943     1.0  0.81666  0.76345  0.10898  1.0000
  C   C4928     1.0  0.92068  0.74983  0.21629  1.0000
  C   C4929     1.0  0.60583  0.97254  0.03550  1.0000
  H   H3944     1.0  0.57858  0.74332  0.05663  1.0000
  H   H3945     1.0  0.85711  0.76306  0.28117  1.0000
  C   C4930     1.0  0.67008  0.97694  0.22923  1.0000
  C   C4931     1.0  0.83355  0.79572  0.26888  1.0000
  H   H3946     1.0  0.78594  0.89587  0.17931  1.0000
  C   C4932     1.0  0.65153  0.95384  0.20077  1.0000
  H   H3947     1.0  0.51157  0.89716  0.13102  1.0000
  H   H3948     1.0  0.58093  0.81637  0.03724  1.0000
  C   C4933     1.0  0.54163  0.88807  0.17474  1.0000
  H   H3949     1.0  0.71281  0.92482  0.25134  1.0000
  S   S673      1.0  0.72423  0.84717  0.17460  1.0000
  S   S674      1.0  0.85260  0.73953  0.21350  1.0000
  C   C4934     1.0  0.53575  0.79266  0.00672  1.0000
  H   H3950     1.0  0.56803  0.87943  0.09431  1.0000
  H   H3951     1.0  0.98151  0.73826  0.11653  1.0000
  C   C4935     1.0  0.74163  0.80525  0.27208  1.0000
  C   C4936     1.0  0.65582  0.89220  0.15837  1.0000
  C   C4937     1.0  0.54079  0.93784  0.09250  1.0000
  C   C4938     1.0  0.79036  0.82748  0.26035  1.0000
  P   P164      1.0  0.80796  0.75349  0.17298  1.0000
  C   C4939     1.0  0.62158  0.94592  0.16518  1.0000
  C   C4940     1.0  0.81152  0.93276  0.23808  1.0000
  C   C4941     1.0  0.57141  0.81357  0.04943  1.0000
  H   H3952     1.0  0.72032  0.75617  0.04010  1.0000
  C   C4942     1.0  0.67033  0.85351  0.18915  1.0000
  H   H3953     1.0  0.72570  0.96691  0.20837  1.0000
  C   C4943     1.0  0.56847  0.86570  0.09550  1.0000
  C   C4944     1.0  0.78628  0.78079  0.24037  1.0000
  C   C4945     1.0  0.50003  0.79062  0.06527  1.0000
  C   C4946     1.0  0.79650  0.87442  0.19852  1.0000
  C   C4947     1.0  0.73434  0.79976  0.26137  1.0000
  C   C4948     1.0  0.64541  0.90959  0.18041  1.0000
  C   C4949     1.0  0.58474  0.85368  0.09417  1.0000
  H   H3954     1.0  0.64740  0.95829  0.12725  1.0000
  C   C4950     1.0  0.65008  0.93655  0.20273  1.0000
  H   H3955     1.0  0.59690  0.85814  0.09164  1.0000
  C   C4951     1.0  0.56309  0.86806  0.13845  1.0000
  C   C4952     1.0  0.51556  0.90995  0.16861  1.0000
  H   H3956     1.0  0.54939  0.96931  0.17896  1.0000
  C   C4953     1.0  0.55829  0.93978  0.08866  1.0000
  H   H3957     1.0  0.69116  0.85477  0.20057  1.0000
  H   H3958     1.0  0.77966  0.97987  0.24798  1.0000
  H   H3959     1.0  0.55586  0.77604  0.10937  1.0000
  C   C4954     1.0  0.83006  0.75505  0.17255  1.0000
  C   C4955     1.0  0.55335  0.84215  0.10084  1.0000
  C   C4956     1.0  0.54701  0.80668  0.08105  1.0000
  H   H3960     1.0  0.77557  0.77504  0.24915  1.0000
  C   C4957     1.0  0.90161  0.74976  0.26699  1.0000
  C   C4958     1.0  0.55204  0.96048  0.12256  1.0000
  H   H3961     1.0  0.79143  0.94767  0.27895  1.0000
  C   C4959     1.0  0.84894  0.79309  0.23939  1.0000
  C   C4960     1.0  0.69318  0.95535  0.15353  1.0000
  H   H3962     1.0  0.72901  0.93289  0.17066  1.0000
  C   C4961     1.0  0.56409  0.80787  0.08112  1.0000
  H   H3963     1.0  0.58004  0.84920  0.15447  1.0000
  H   H3964     1.0  0.74967  0.93725  0.04298  1.0000
  C   C4962     1.0  0.55441  0.84278  0.15999  1.0000
  C   C4963     1.0  0.84374  0.73993  0.17223  1.0000
  C   C4964     1.0  0.52344  0.79183  0.99799  1.0000
  H   H3965     1.0  0.62277  0.78443  0.12667  1.0000
  H   H3966     1.0  0.65484  0.93717  0.30622  1.0000
  C   C4965     1.0  0.54943  0.80505  0.13493  1.0000
  C   C4966     1.0  0.55122  0.78195  0.12065  1.0000
  C   C4967     1.0  0.66617  0.85078  0.17461  1.0000
  H   H3967     1.0  0.52103  0.86591  0.13948  1.0000
  H   H3968     1.0  0.77430  0.89822  0.29448  1.0000
  C   C4968     1.0  0.81037  0.74683  0.15295  1.0000
  C   C4969     1.0  0.78824  0.90485  0.20089  1.0000
  H   H3969     1.0  0.55280  0.81707  0.13495  1.0000
  H   H3970     1.0  0.59093  0.77700  0.08597  1.0000
  Fe  Fe339     1.0  0.64663  0.75297  0.02809  1.0000
  C   C4970     1.0  0.74729  0.94706  0.28565  1.0000
  Fe  Fe340     1.0  0.87319  0.74305  0.22522  1.0000
  H   H3971     1.0  0.67714  0.94916  0.23949  1.0000
  C   C4971     1.0  0.59672  0.87648  0.18322  1.0000
  C   C4972     1.0  0.90909  0.76454  0.20871  1.0000
  C   C4973     1.0  0.84279  0.90799  0.23010  1.0000
  C   C4974     1.0  0.79694  0.80622  0.22118  1.0000
  S   S675      1.0  0.79349  0.82859  0.21110  1.0000
  H   H3972     1.0  0.54013  0.86927  0.09972  1.0000
  C   C4975     1.0  0.53769  0.84752  0.15577  1.0000
  C   C4976     1.0  0.52096  0.95037  0.21362  1.0000
  H   H3973     1.0  0.74108  0.81910  0.27022  1.0000
  H   H3974     1.0  0.50950  0.97391  0.16948  1.0000
  H   H3975     1.0  0.83499  0.97053  0.27577  1.0000
  S   S676      1.0  0.50623  0.83922  0.12314  1.0000
  H   H3976     1.0  0.54152  0.87655  0.20183  1.0000
  C   C4977     1.0  0.52915  0.93271  0.21397  1.0000
  H   H3977     1.0  0.51047  0.78961  0.00539  1.0000
  C   C4978     1.0  0.81094  0.91808  0.23249  1.0000
  H   H3978     1.0  0.79991  0.93966  0.19658  1.0000
  C   C4979     1.0  0.62265  0.96002  0.21988  1.0000
  H   H3979     1.0  0.50848  0.91914  0.15921  1.0000
  H   H3980     1.0  0.98411  0.74730  0.16508  1.0000
  C   C4980     1.0  0.73413  0.95991  0.27845  1.0000
  C   C4981     1.0  0.82951  0.95919  0.27771  1.0000
  H   H3981     1.0  0.60974  0.93823  0.23109  1.0000
  C   C4982     1.0  0.59119  0.79304  0.10312  1.0000
  H   H3982     1.0  0.50130  0.74303  0.10815  1.0000
  H   H3983     1.0  0.64690  0.91676  0.29364  1.0000
  C   C4983     1.0  0.70103  0.75010  0.09215  1.0000
  C   C4984     1.0  0.68986  0.76232  0.10193  1.0000
  C   C4985     1.0  0.69452  0.76463  0.11628  1.0000
  C   C4986     1.0  0.71030  0.75467  0.12109  1.0000
  H   H3984     1.0  0.91140  0.74890  0.25492  1.0000
  H   H3985     1.0  0.63461  0.75970  0.11157  1.0000
  C   C4987     1.0  0.68790  0.76885  0.05985  1.0000
  C   C4988     1.0  0.67812  0.77059  0.04743  1.0000
  C   C4989     1.0  0.69512  0.86674  0.30356  1.0000
  C   C4990     1.0  0.67486  0.80211  0.04035  1.0000
  C   C4991     1.0  0.68520  0.80051  0.05215  1.0000
  C   C4992     1.0  0.69193  0.78395  0.06167  1.0000
  H   H3986     1.0  0.67759  0.77020  0.09838  1.0000
  H   H3987     1.0  0.68587  0.77426  0.12360  1.0000
  H   H3988     1.0  0.71389  0.75648  0.13222  1.0000
  C   C4993     1.0  0.63609  0.97516  0.24955  1.0000
  H   H3989     1.0  0.50863  0.95391  0.22277  1.0000
  H   H3990     1.0  0.82713  0.78090  0.25426  1.0000
  C   C4994     1.0  0.71840  0.94729  0.23119  1.0000
  C   C4995     1.0  0.70176  0.84836  0.17528  1.0000
  H   H3991     1.0  0.68756  0.81218  0.05428  1.0000
  H   H3992     1.0  0.61315  0.96113  0.03018  1.0000
  C   C4996     1.0  0.74719  0.91586  0.13717  1.0000
  C   C4997     1.0  0.74480  0.90320  0.15269  1.0000
  C   C4998     1.0  0.73230  0.89307  0.15595  1.0000
  C   C4999     1.0  0.72261  0.89513  0.14346  1.0000
  C   C5000     1.0  0.72550  0.90722  0.12747  1.0000
  C   C5001     1.0  0.73742  0.91803  0.12468  1.0000
  P   P165      1.0  0.71295  0.90984  0.11133  1.0000
  C   C5002     1.0  0.69206  0.92483  0.11712  1.0000
  C   C5003     1.0  0.72459  0.91901  0.08987  1.0000
  C   C5004     1.0  0.74289  0.91262  0.08447  1.0000
  C   C5005     1.0  0.75192  0.91928  0.06765  1.0000
  C   C5006     1.0  0.74269  0.93217  0.05605  1.0000
  C   C5007     1.0  0.72440  0.93829  0.06121  1.0000
  C   C5008     1.0  0.71533  0.93167  0.07801  1.0000
  C   C5009     1.0  0.67589  0.91945  0.12204  1.0000
  H   H3993     1.0  0.94805  0.73796  0.21794  1.0000
  H   H3994     1.0  0.75688  0.90462  0.23903  1.0000
  C   C5010     1.0  0.67586  0.95436  0.12003  1.0000
  C   C5011     1.0  0.69194  0.94234  0.11642  1.0000
  C   C5012     1.0  0.71047  0.88922  0.10898  1.0000
  C   C5013     1.0  0.72077  0.87308  0.11599  1.0000
  C   C5014     1.0  0.71859  0.85737  0.11383  1.0000
  C   C5015     1.0  0.70636  0.85764  0.10444  1.0000
  C   C5016     1.0  0.69675  0.87365  0.09671  1.0000
  C   C5017     1.0  0.69901  0.88936  0.09873  1.0000
  H   H3995     1.0  0.75659  0.92399  0.13490  1.0000
  H   H3996     1.0  0.75246  0.90138  0.16232  1.0000
  H   H3997     1.0  0.73017  0.88348  0.16813  1.0000
  H   H3998     1.0  0.71316  0.88697  0.14623  1.0000
  H   H3999     1.0  0.73926  0.92808  0.11286  1.0000
  H   H4000     1.0  0.75012  0.90238  0.09322  1.0000
  H   H4001     1.0  0.76605  0.91433  0.06357  1.0000
  H   H4002     1.0  0.93909  0.78934  0.18475  1.0000
  H   H4003     1.0  0.71716  0.94804  0.05212  1.0000
  H   H4004     1.0  0.70108  0.93624  0.08158  1.0000
  H   H4005     1.0  0.67543  0.90613  0.12260  1.0000
  H   H4006     1.0  0.82800  0.94657  0.24354  1.0000
  H   H4007     1.0  0.51882  0.76589  0.06866  1.0000
  S   S677      1.0  0.61152  0.98262  0.09349  1.0000
  H   H4008     1.0  0.70425  0.94678  0.11276  1.0000
  H   H4009     1.0  0.73058  0.87244  0.12303  1.0000
  H   H4010     1.0  0.72627  0.84496  0.11960  1.0000
  H   H4011     1.0  0.70434  0.84547  0.10311  1.0000
  H   H4012     1.0  0.59080  0.91222  0.19972  1.0000
  H   H4013     1.0  0.69161  0.90167  0.09244  1.0000
  P   P166      1.0  0.57002  0.80739  0.10097  1.0000
  C   C5018     1.0  0.66659  0.96087  0.23945  1.0000
  C   C5019     1.0  0.76391  0.94696  0.22970  1.0000
  C   C5020     1.0  0.56959  0.82996  0.09985  1.0000
  C   C5021     1.0  0.81651  0.73638  0.12136  1.0000
  C   C5022     1.0  0.80095  0.86942  0.21482  1.0000
  S   S678      1.0  0.96856  0.76404  0.19468  1.0000
  C   C5023     1.0  0.67175  0.88937  0.21773  1.0000
  C   C5024     1.0  0.67691  0.89961  0.16969  1.0000
  S   S679      1.0  0.74584  0.90857  0.19590  1.0000
  H   H4014     1.0  0.72670  0.90356  0.23202  1.0000
  C   C5025     1.0  0.76519  0.80431  0.17823  1.0000
  H   H4015     1.0  0.75523  0.76532  0.29770  1.0000
  C   C5026     1.0  0.72585  0.95319  0.21362  1.0000
  H   H4016     1.0  0.66328  0.95843  0.19301  1.0000
  H   H4017     1.0  0.53229  0.79111  0.02082  1.0000
  S   S680      1.0  0.80758  0.74809  0.24759  1.0000
  H   H4018     1.0  0.58895  0.81347  0.06509  1.0000
  H   H4019     1.0  0.54309  0.88450  0.12462  1.0000
  H   H4020     1.0  0.75640  0.79997  0.15752  1.0000
  H   H4021     1.0  0.64887  0.96822  0.08284  1.0000
  Fe  Fe341     1.0  0.49860  0.75958  0.04856  1.0000
  H   H4022     1.0  0.85395  0.94082  0.28155  1.0000
  H   H4023     1.0  0.67524  0.75927  0.04531  1.0000
  H   H4024     1.0  0.73949  0.85266  0.27166  1.0000
  H   H4025     1.0  0.56247  0.79485  0.00423  1.0000
  H   H4026     1.0  0.55112  0.81285  0.03725  1.0000
  H   H4027     1.0  0.76102  0.94801  0.28092  1.0000
  C   C5027     1.0  0.60000  0.79461  0.11506  1.0000
  S   S681      1.0  0.75793  0.86209  0.18904  1.0000
  C   C5028     1.0  0.62135  0.94264  0.22251  1.0000
  C   C5029     1.0  0.70293  0.92726  0.18038  1.0000
  C   C5030     1.0  0.72641  0.91740  0.22686  1.0000
  C   C5031     1.0  0.76944  0.83139  0.29327  1.0000
  C   C5032     1.0  0.71058  0.95071  0.15579  1.0000
  H   H4028     1.0  0.64746  0.92717  0.12946  1.0000
  H   H4029     1.0  0.73771  0.97072  0.26803  1.0000
  C   C5033     1.0  0.73458  0.92328  0.20950  1.0000
  C   C5034     1.0  0.71851  0.92941  0.23775  1.0000
  C   C5035     1.0  0.58981  0.90451  0.19127  1.0000
  C   C5036     1.0  0.80007  0.75992  0.30797  1.0000
  H   H4030     1.0  0.96204  0.97184  0.21433  1.0000
  C   C5037     1.0  0.77902  0.77986  0.16400  1.0000
  H   H4031     1.0  0.85569  0.92441  0.23682  1.0000
  C   C5038     1.0  0.86510  0.75674  0.17028  1.0000
  C   C5039     1.0  0.79304  0.89997  0.21712  1.0000
  C   C5040     1.0  0.71546  0.93658  0.16909  1.0000
  C   C5041     1.0  0.55748  0.74760  0.99832  1.0000
  H   H4032     1.0  0.75720  0.94083  0.24245  1.0000
  H   H4033     1.0  0.70715  0.91625  0.19047  1.0000
  H   H4034     1.0  0.78119  0.80384  0.26522  1.0000
  H   H4035     1.0  0.75509  0.81619  0.17958  1.0000
  C   C5042     1.0  0.60734  0.93990  0.16404  1.0000
  C   C5043     1.0  0.82556  0.86547  0.26997  1.0000
  C   C5044     1.0  0.58769  0.97432  0.04296  1.0000
  C   C5045     1.0  0.89361  0.74456  0.29857  1.0000
  H   H4036     1.0  0.69055  0.89855  0.16998  1.0000
  H   H4037     1.0  0.77637  0.80498  0.19897  1.0000
  H   H4038     1.0  0.54119  0.83786  0.10300  1.0000
  H   H4039     1.0  0.63464  0.94206  0.15730  1.0000
  C   C5046     1.0  0.94781  0.75152  0.25418  1.0000
  H   H4040     1.0  0.81030  0.91814  0.28535  1.0000
  C   C5047     1.0  0.55277  0.85996  0.09868  1.0000
  C   C5048     1.0  0.67330  0.89118  0.15875  1.0000
  C   C5049     1.0  0.68528  0.93220  0.17846  1.0000
  C   C5050     1.0  0.98343  0.98196  0.21601  1.0000
  C   C5051     1.0  0.77010  0.81670  0.28701  1.0000
  H   H4041     1.0  0.65314  0.88551  0.14992  1.0000
  Fe  Fe342     1.0  0.73285  0.85216  0.19661  1.0000
  H   H4042     1.0  0.83052  0.77003  0.22339  1.0000
  S   S682      1.0  0.74139  0.83146  0.21915  1.0000
  C   C5052     1.0  0.75685  0.96447  0.22274  1.0000
  H   H4043     1.0  0.68512  0.87689  0.25619  1.0000
  C   C5053     1.0  0.77935  0.93772  0.22023  1.0000
  C   C5054     1.0  0.53242  0.90023  0.16275  1.0000
  H   H4044     1.0  0.53823  0.90200  0.14886  1.0000
  C   C5055     1.0  0.58039  0.90227  0.16637  1.0000
  H   H4045     1.0  0.52267  0.76794  0.09695  1.0000
  C   C5056     1.0  0.83563  0.78924  0.25412  1.0000
  H   H4046     1.0  0.63426  0.91727  0.21690  1.0000
  S   S683      1.0  0.71792  0.87211  0.21259  1.0000
  H   H4047     1.0  0.72026  0.95807  0.14729  1.0000
  C   C5057     1.0  0.63784  0.96551  0.20914  1.0000
  C   C5058     1.0  0.54100  0.77358  0.13584  1.0000
  C   C5059     1.0  0.77721  0.79796  0.18918  1.0000
  H   H4048     1.0  0.68400  0.88355  0.15070  1.0000
  C   C5060     1.0  0.66300  0.90932  0.18023  1.0000
  C   C5061     1.0  0.79016  0.78256  0.18761  1.0000
  C   C5062     1.0  0.85159  0.77188  0.17045  1.0000
  C   C5063     1.0  0.64186  0.90109  0.16943  1.0000
  C   C5064     1.0  0.54637  0.87273  0.13434  1.0000
  P   P167      1.0  0.75746  0.80036  0.29989  1.0000
  H   H4049     1.0  0.63438  0.91651  0.18867  1.0000
  C   C5065     1.0  0.78304  0.79873  0.23241  1.0000
  C   C5066     1.0  0.58122  0.91252  0.17730  1.0000
  C   C5067     1.0  0.86001  0.80369  0.23930  1.0000
  C   C5068     1.0  0.78769  0.94638  0.20385  1.0000
  H   H4050     1.0  0.79906  0.77761  0.19657  1.0000
  C   C5069     1.0  0.68280  0.91230  0.22231  1.0000
  C   C5070     1.0  0.55026  0.94064  0.15092  1.0000
  C   C5071     1.0  0.79012  0.89210  0.19159  1.0000
  C   C5072     1.0  0.73503  0.78197  0.26343  1.0000
  C   C5073     1.0  0.56746  0.96412  0.12414  1.0000
  C   C5074     1.0  0.80342  0.77035  0.23712  1.0000
  H   H4051     1.0  0.66721  0.94971  0.16260  1.0000
  Fe  Fe343     1.0  0.74356  0.88053  0.20678  1.0000
  H   H4052     1.0  0.79757  0.86452  0.19148  1.0000
  C   C5075     1.0  0.60198  0.96272  0.18598  1.0000
  H   H4053     1.0  0.90489  0.73548  0.18795  1.0000
  H   H4054     1.0  0.60961  0.93120  0.15531  1.0000
  C   C5076     1.0  0.96614  0.98337  0.21458  1.0000
  C   C5077     1.0  0.53502  0.78087  0.15058  1.0000
  C   C5078     1.0  0.76066  0.90353  0.25109  1.0000
  C   C5079     1.0  0.94388  0.75999  0.28141  1.0000
  C   C5080     1.0  0.82676  0.90578  0.22836  1.0000
  P   P168      1.0  0.84350  0.81283  0.28887  1.0000
  H   H4055     1.0  0.57414  0.97325  0.11382  1.0000
  C   C5081     1.0  0.85792  0.81028  0.25404  1.0000
  C   C5082     1.0  0.78965  0.84200  0.26670  1.0000
  H   H4056     1.0  0.62984  0.96253  0.17642  1.0000
  C   C5083     1.0  0.65985  0.94889  0.12482  1.0000
  C   C5084     1.0  0.58773  0.95657  0.18505  1.0000
  H   H4057     1.0  0.65634  0.79763  0.97863  1.0000
  H   H4058     1.0  0.53167  0.94567  0.13451  1.0000
  C   C5085     1.0  0.56560  0.94443  0.15273  1.0000
  C   C5086     1.0  0.52769  0.95179  0.08649  1.0000
  H   H4059     1.0  0.87852  0.75730  0.16990  1.0000
  H   H4060     1.0  0.68314  0.85713  0.28862  1.0000
  H   H4061     1.0  0.66609  0.88435  0.21003  1.0000
  H   H4062     1.0  0.78238  0.91829  0.19560  1.0000
  C   C5087     1.0  0.65989  0.93139  0.12607  1.0000
  H   H4063     1.0  0.57426  0.90803  0.15524  1.0000
  S   S684      1.0  0.52131  0.83553  0.16751  1.0000
  H   H4064     1.0  0.74333  0.75581  0.27804  1.0000
  Fe  Fe344     1.0  0.76511  0.84324  0.21305  1.0000
  C   C5088     1.0  0.68632  0.90172  0.23815  1.0000
  H   H4065     1.0  0.57484  0.96096  0.19289  1.0000
  H   H4066     1.0  0.58757  0.87640  0.16095  1.0000
  S   S685      1.0  0.75291  0.86261  0.23034  1.0000
  P   P169      1.0  0.57250  0.93594  0.17327  1.0000
  C   C5089     1.0  0.57422  0.95617  0.13917  1.0000
  C   C5090     1.0  0.78059  0.81492  0.27043  1.0000
  C   C5091     1.0  0.58798  0.88428  0.16951  1.0000
  C   C5092     1.0  0.81402  0.79576  0.21788  1.0000
  C   C5093     1.0  0.54355  0.94859  0.13586  1.0000
  P   P170      1.0  0.79008  0.91592  0.22990  1.0000
  C   C5094     1.0  0.95277  0.77354  0.27249  1.0000
  H   H4067     1.0  0.75275  0.92349  0.30523  1.0000
  C   C5095     1.0  0.55740  0.79615  0.97926  1.0000
  H   H4068     1.0  0.99283  0.96943  0.21669  1.0000
  H   H4069     1.0  0.68565  0.92529  0.21817  1.0000
  H   H4070     1.0  0.85496  0.89845  0.22690  1.0000
  H   H4071     1.0  0.74486  0.97143  0.23004  1.0000
  C   C5096     1.0  0.53386  0.86229  0.14272  1.0000
  C   C5097     1.0  0.93406  0.77830  0.19362  1.0000
  C   C5098     1.0  0.69638  0.91733  0.28761  1.0000
  C   C5099     1.0  0.74270  0.76964  0.27649  1.0000
  H   H4072     1.0  0.82691  0.89461  0.22356  1.0000
  C   C5100     1.0  0.86119  0.74078  0.17103  1.0000
  H   H4073     1.0  0.79833  0.82597  0.24752  1.0000
  H   H4074     1.0  0.79716  0.85172  0.25886  1.0000
  C   C5101     1.0  0.74956  0.77512  0.28756  1.0000
  H   H4075     1.0  0.67251  0.86579  0.23806  1.0000
  H   H4076     1.0  0.72960  0.77777  0.25492  1.0000
  C   C5102     1.0  0.84031  0.94238  0.28089  1.0000
  C   C5103     1.0  0.51146  0.77714  0.07418  1.0000
  H   H4077     1.0  0.96653  0.74871  0.14393  1.0000
  C   C5104     1.0  0.67359  0.96402  0.30230  1.0000
  C   C5105     1.0  0.67511  0.87889  0.23372  1.0000
  H   H4078     1.0  0.96066  0.76767  0.23114  1.0000
  C   C5106     1.0  0.77915  0.84400  0.28311  1.0000
  C   C5107     1.0  0.51744  0.89594  0.19852  1.0000
  C   C5108     1.0  0.86481  0.80666  0.29499  1.0000
  H   H4079     1.0  0.95248  0.79908  0.30512  1.0000
  H   H4080     1.0  0.81206  0.88554  0.28473  1.0000
  H   H4081     1.0  0.70637  0.96941  0.27940  1.0000
  C   C5109     1.0  0.64955  0.95994  0.24948  1.0000
  C   C5110     1.0  0.75443  0.89611  0.28266  1.0000
  H   H4082     1.0  0.58590  0.95961  0.14022  1.0000
  C   C5111     1.0  0.50087  0.73842  0.13568  1.0000
  H   H4083     1.0  0.54335  0.93172  0.16127  1.0000
  C   C5112     1.0  0.84494  0.80599  0.26912  1.0000
  Fe  Fe345     1.0  0.72848  0.85229  0.23481  1.0000
  C   C5113     1.0  0.83342  0.92759  0.28355  1.0000
  C   C5114     1.0  0.54405  0.95900  0.18893  1.0000
  C   C5115     1.0  0.77644  0.90801  0.25069  1.0000
  Fe  Fe346     1.0  0.61347  0.74879  0.05632  1.0000
  C   C5116     1.0  0.54707  0.74646  0.98769  1.0000
  H   H4084     1.0  0.67049  0.89638  0.27761  1.0000
  H   H4085     1.0  0.77905  0.77277  0.15458  1.0000
  H   H4086     1.0  0.55094  0.91445  0.20228  1.0000
  C   C5117     1.0  0.55269  0.94135  0.18956  1.0000
  H   H4087     1.0  0.52319  0.92252  0.22343  1.0000
  C   C5118     1.0  0.79912  0.88211  0.22414  1.0000
  C   C5119     1.0  0.81520  0.75392  0.12126  1.0000
  C   C5120     1.0  0.72146  0.74242  0.11151  1.0000
  C   C5121     1.0  0.84323  0.92262  0.23565  1.0000
  H   H4088     1.0  0.78674  0.97038  0.18409  1.0000
  H   H4089     1.0  0.86685  0.81817  0.25390  1.0000
  C   C5122     1.0  0.72711  0.85661  0.28053  1.0000
  C   C5123     1.0  0.52846  0.96350  0.20112  1.0000
  C   C5124     1.0  0.95900  0.77620  0.25440  1.0000
  H   H4090     1.0  0.71028  0.91688  0.28620  1.0000
  H   H4091     1.0  0.67861  0.96451  0.27472  1.0000
  S   S686      1.0  0.50564  0.79191  0.11881  1.0000
  C   C5125     1.0  0.61892  0.95730  0.17616  1.0000
  C   C5126     1.0  0.81170  0.96129  0.27726  1.0000
  H   H4092     1.0  0.68926  0.96652  0.14344  1.0000
  C   C5127     1.0  0.68231  0.88511  0.24395  1.0000
  C   C5128     1.0  0.87094  0.75789  0.28167  1.0000
  H   H4093     1.0  0.79954  0.94254  0.24117  1.0000
  C   C5129     1.0  0.54970  0.96957  0.07217  1.0000
  H   H4094     1.0  0.53725  0.92569  0.10052  1.0000
  H   H4095     1.0  0.76141  0.83328  0.30592  1.0000
  H   H4096     1.0  0.53501  0.80193  0.16171  1.0000
  H   H4097     1.0  0.87047  0.80639  0.22790  1.0000
  C   C5130     1.0  0.53426  0.88603  0.19262  1.0000
  H   H4098     1.0  0.73729  0.89459  0.26725  1.0000
  C   C5131     1.0  0.83352  0.84766  0.27087  1.0000
  C   C5132     1.0  0.78136  0.90606  0.26642  1.0000
  H   H4099     1.0  0.55471  0.75914  0.00355  1.0000
  H   H4100     1.0  0.68327  0.97758  0.22129  1.0000
  H   H4101     1.0  0.57619  0.95709  0.07662  1.0000
  H   H4102     1.0  0.81182  0.77265  0.13667  1.0000
  C   C5133     1.0  0.67675  0.73625  0.08042  1.0000
  H   H4103     1.0  0.79378  0.78163  0.28725  1.0000
  C   C5134     1.0  0.80502  0.94638  0.27949  1.0000
  H   H4104     1.0  0.90705  0.79016  0.19167  1.0000
  H   H4105     1.0  0.96595  0.78664  0.24744  1.0000
  H   H4106     1.0  0.82331  0.79224  0.28016  1.0000
  C   C5135     1.0  0.50780  0.90775  0.18646  1.0000
  C   C5136     1.0  0.74960  0.89777  0.26703  1.0000
  C   C5137     1.0  0.74265  0.93319  0.29921  1.0000
  C   C5138     1.0  0.66523  0.92863  0.29885  1.0000
  C   C5139     1.0  0.56272  0.95564  0.07870  1.0000
  H   H4107     1.0  0.59982  0.97199  0.19404  1.0000
  S   S687      1.0  0.71045  0.84561  0.26115  1.0000
  C   C5140     1.0  0.77094  0.97142  0.30008  1.0000
  C   C5141     1.0  0.67396  0.90570  0.28263  1.0000
  S   S688      1.0  0.67565  0.74216  0.01902  1.0000
  H   H4108     1.0  0.63929  0.97876  0.20734  1.0000
  C   C5142     1.0  0.87944  0.79573  0.28631  1.0000
  H   H4109     1.0  0.58109  0.96434  0.04305  1.0000
  C   C5143     1.0  0.53205  0.96766  0.07659  1.0000
  H   H4110     1.0  0.84164  0.91456  0.28644  1.0000
  C   C5144     1.0  0.93906  0.74944  0.21245  1.0000
  H   H4111     1.0  0.56832  0.92911  0.09380  1.0000
  H   H4112     1.0  0.83878  0.84296  0.25890  1.0000
  S   S689      1.0  0.52242  0.74080  0.03716  1.0000
  C   C5145     1.0  0.74917  0.79300  0.28536  1.0000
  H   H4113     1.0  0.95485  0.78191  0.27965  1.0000
  H   H4114     1.0  0.91555  0.73872  0.22488  1.0000
  S   S690      1.0  0.62474  0.73960  0.03133  1.0000
  C   C5146     1.0  0.77047  0.89988  0.28233  1.0000
  H   H4115     1.0  0.70970  0.74033  0.97969  1.0000
  C   C5147     1.0  0.94191  0.74847  0.27240  1.0000
  C   C5148     1.0  0.69538  0.85906  0.29012  1.0000
  P   P171      1.0  0.69492  0.74750  0.07342  1.0000
  C   C5149     1.0  0.72493  0.93181  0.30507  1.0000
  H   H4116     1.0  0.51402  0.95042  0.08994  1.0000
  H   H4117     1.0  0.54660  0.96693  0.11108  1.0000
  C   C5150     1.0  0.71689  0.74015  0.09707  1.0000
  C   C5151     1.0  0.81578  0.92960  0.28283  1.0000
  C   C5152     1.0  0.77493  0.98290  0.28391  1.0000
  H   H4118     1.0  0.52153  0.97855  0.07276  1.0000
  H   H4119     1.0  0.66905  0.81497  0.03348  1.0000
  H   H4120     1.0  0.61202  0.96920  0.22626  1.0000
  H   H4121     1.0  0.72800  0.80938  0.25157  1.0000
  H   H4122     1.0  0.70211  0.89670  0.27381  1.0000
  H   H4123     1.0  0.53434  0.97980  0.04179  1.0000
  H   H4124     1.0  0.74571  0.89197  0.29506  1.0000
  C   C5153     1.0  0.66602  0.73512  0.09735  1.0000
  H   H4125     1.0  0.80489  0.82111  0.30189  1.0000
  H   H4126     1.0  0.67571  0.96798  0.11905  1.0000
  C   C5154     1.0  0.80032  0.73773  0.19212  1.0000
  C   C5155     1.0  0.76493  0.97283  0.20623  1.0000
  H   H4127     1.0  0.81728  0.74033  0.20736  1.0000
  S   S691      1.0  0.85605  0.74120  0.25219  1.0000
  H   H4128     1.0  0.49943  0.76029  0.00678  1.0000
  C   C5156     1.0  0.72331  0.74210  0.04501  1.0000
  C   C5157     1.0  0.50007  0.90188  0.12529  1.0000
  H   H4129     1.0  0.57935  0.73468  0.01080  1.0000
  C   C5158     1.0  0.89529  0.78975  0.29217  1.0000
  C   C5159     1.0  0.50904  0.73868  0.11807  1.0000
  C   C5160     1.0  0.87584  0.75171  0.29778  1.0000
  C   C5161     1.0  0.90653  0.74289  0.28319  1.0000
  C   C5162     1.0  0.82701  0.84269  0.30241  1.0000
  S   S692      1.0  0.49658  0.78836  0.04581  1.0000
  H   H4130     1.0  0.53607  0.75711  0.98471  1.0000
  Fe  Fe347     1.0  0.50172  0.83582  0.15217  1.0000
  H   H4131     1.0  0.50288  0.82456  0.00802  1.0000
  C   C5163     1.0  0.52788  0.79376  0.97984  1.0000
  C   C5164     1.0  0.81900  0.86042  0.30148  1.0000
  H   H4132     1.0  0.52196  0.97721  0.20049  1.0000
  H   H4133     1.0  0.73916  0.86521  0.29637  1.0000
  C   C5165     1.0  0.80720  0.73397  0.20709  1.0000
  C   C5166     1.0  0.62752  0.75917  0.97944  1.0000
  H   H4134     1.0  0.81308  0.75510  0.30044  1.0000
  P   P172      1.0  0.68864  0.94310  0.30691  1.0000
  P   P173      1.0  0.79774  0.98296  0.27331  1.0000
  C   C5167     1.0  0.89669  0.79444  0.30684  1.0000
  C   C5168     1.0  0.49950  0.96786  0.17928  1.0000
  H   H4135     1.0  0.78138  0.96225  0.30591  1.0000
  C   C5169     1.0  0.98919  0.73766  0.12576  1.0000
  C   C5170     1.0  0.82862  0.80153  0.30641  1.0000
  H   H4136     1.0  0.73372  0.73470  0.11524  1.0000
  C   C5171     1.0  0.71313  0.73431  0.06073  1.0000
  H   H4137     1.0  0.74517  0.73773  0.02320  1.0000
  S   S693      1.0  0.50408  0.98299  0.11413  1.0000
  H   H4138     1.0  0.55202  0.73362  0.05606  1.0000
  C   C5172     1.0  0.57138  0.73367  0.00251  1.0000
  Fe  Fe348     1.0  0.88038  0.82983  0.45788  1.0000
  S   S694      1.0  0.86039  0.81912  0.48083  1.0000
  S   S695      1.0  0.87429  0.85672  0.44063  1.0000
  Fe  Fe349     1.0  0.90978  0.79813  0.46539  1.0000
  S   S696      1.0  0.89217  0.78500  0.48875  1.0000
  S   S697      1.0  0.93741  0.78267  0.45800  1.0000
  Fe  Fe350     1.0  0.87228  0.79375  0.47192  1.0000
  C   C5173     1.0  0.92694  0.82829  0.58259  1.0000
  Fe  Fe351     1.0  0.88223  0.81148  0.49524  1.0000
  S   S698      1.0  0.87865  0.81739  0.52150  1.0000
  S   S699      1.0  0.89062  0.80498  0.44788  1.0000
  S   S700      1.0  0.90152  0.82403  0.47297  1.0000
  S   S701      1.0  0.84901  0.80574  0.35709  1.0000
  Fe  Fe352     1.0  0.77850  0.88361  0.48754  1.0000
  S   S702      1.0  0.78157  0.85448  0.49219  1.0000
  S   S703      1.0  0.80070  0.89815  0.47709  1.0000
  Fe  Fe353     1.0  0.73842  0.88994  0.50000  1.0000
  S   S704      1.0  0.73848  0.86135  0.50567  1.0000
  S   S705      1.0  0.71191  0.90822  0.50485  1.0000
  Fe  Fe354     1.0  0.76186  0.85758  0.51725  1.0000
  S   S706      1.0  0.76429  0.84043  0.54376  1.0000
  Fe  Fe355     1.0  0.75795  0.86150  0.47993  1.0000
  S   S707      1.0  0.75628  0.84717  0.46044  1.0000
  S   S708      1.0  0.76023  0.88632  0.51345  1.0000
  S   S709      1.0  0.75630  0.89046  0.47357  1.0000
  Fe  Fe356     1.0  0.75626  0.84856  0.35428  1.0000
  S   S710      1.0  0.72720  0.85931  0.36284  1.0000
  S   S711      1.0  0.76722  0.81973  0.36012  1.0000
  Fe  Fe357     1.0  0.76475  0.88408  0.33714  1.0000
  S   S712      1.0  0.73633  0.89797  0.34383  1.0000
  H   H4139     1.0  0.85033  0.74194  0.47283  1.0000
  Fe  Fe358     1.0  0.73595  0.87971  0.37013  1.0000
  S   S713      1.0  0.72443  0.89063  0.39439  1.0000
  Fe  Fe359     1.0  0.73046  0.87624  0.33580  1.0000
  S   S714      1.0  0.70907  0.88164  0.32103  1.0000
  S   S715      1.0  0.76484  0.86740  0.36400  1.0000
  S   S716      1.0  0.75896  0.86393  0.32666  1.0000
  S   S717      1.0  0.78428  0.96835  0.34238  1.0000
  H   H4140     1.0  0.96892  0.73582  0.53481  1.0000
  C   C5174     1.0  0.86129  0.83591  0.63020  1.0000
  H   H4141     1.0  0.73945  0.95236  0.51167  1.0000
  H   H4142     1.0  0.87146  0.81251  0.59160  1.0000
  H   H4143     1.0  0.95780  0.76242  0.32363  1.0000
  C   C5175     1.0  0.75340  0.97200  0.30912  1.0000
  H   H4144     1.0  0.79664  0.77728  0.34432  1.0000
  C   C5176     1.0  0.98423  0.81154  0.53195  1.0000
  Fe  Fe360     1.0  0.79381  0.89816  0.63281  1.0000
  H   H4145     1.0  0.77566  0.96559  0.55319  1.0000
  C   C5177     1.0  0.79887  0.79999  0.32333  1.0000
  C   C5178     1.0  0.97462  0.76922  0.42091  1.0000
  H   H4146     1.0  0.91344  0.80867  0.58320  1.0000
  H   H4147     1.0  0.92045  0.80469  0.52545  1.0000
  H   H4148     1.0  0.99455  0.78032  0.42421  1.0000
  C   C5179     1.0  0.94247  0.74824  0.37388  1.0000
  C   C5180     1.0  0.70840  0.82448  0.32426  1.0000
  H   H4149     1.0  0.86835  0.84575  0.62170  1.0000
  H   H4150     1.0  0.77624  0.87155  0.41135  1.0000
  C   C5181     1.0  0.84306  0.88462  0.57096  1.0000
  C   C5182     1.0  0.68559  0.95073  0.56857  1.0000
  C   C5183     1.0  0.92276  0.77863  0.54166  1.0000
  H   H4151     1.0  0.71362  0.95805  0.60894  1.0000
  C   C5184     1.0  0.83232  0.94831  0.39049  1.0000
  C   C5185     1.0  0.82364  0.77651  0.33014  1.0000
  C   C5186     1.0  0.84958  0.83477  0.59254  1.0000
  C   C5187     1.0  0.96856  0.77068  0.46821  1.0000
  C   C5188     1.0  0.69405  0.89659  0.56096  1.0000
  C   C5189     1.0  0.95764  0.75518  0.36679  1.0000
  H   H4152     1.0  0.68254  0.96166  0.52573  1.0000
  S   S718      1.0  0.92306  0.75469  0.33165  1.0000
  C   C5190     1.0  0.83729  0.86210  0.52469  1.0000
  C   C5191     1.0  0.69044  0.96959  0.42113  1.0000
  C   C5192     1.0  0.88072  0.80020  0.55491  1.0000
  H   H4153     1.0  0.91536  0.83561  0.59013  1.0000
  C   C5193     1.0  0.73388  0.87462  0.60225  1.0000
  S   S719      1.0  0.95635  0.74143  0.61111  1.0000
  H   H4154     1.0  0.73129  0.82214  0.35443  1.0000
  S   S720      1.0  0.78734  0.89754  0.32291  1.0000
  C   C5194     1.0  0.98227  0.77161  0.47509  1.0000
  H   H4155     1.0  0.72161  0.92061  0.31511  1.0000
  H   H4156     1.0  0.92036  0.74224  0.36854  1.0000
  H   H4157     1.0  0.95876  0.82073  0.52468  1.0000
  C   C5195     1.0  0.70661  0.95015  0.46915  1.0000
  C   C5196     1.0  0.72465  0.94373  0.46286  1.0000
  C   C5197     1.0  0.84775  0.94483  0.60085  1.0000
  H   H4158     1.0  0.89391  0.75413  0.52096  1.0000
  C   C5198     1.0  0.78652  0.91611  0.33038  1.0000
  H   H4159     1.0  0.69085  0.87065  0.63791  1.0000
  C   C5199     1.0  0.80112  0.93853  0.33049  1.0000
  C   C5200     1.0  0.78516  0.94756  0.33927  1.0000
  C   C5201     1.0  0.77007  0.94043  0.34430  1.0000
  C   C5202     1.0  0.77073  0.92474  0.33981  1.0000
  H   H4160     1.0  0.80661  0.81944  0.57909  1.0000
  H   H4161     1.0  0.97360  0.84122  0.33463  1.0000
  H   H4162     1.0  0.75775  0.94721  0.35122  1.0000
  H   H4163     1.0  0.75890  0.91960  0.34333  1.0000
  C   C5203     1.0  0.77410  0.85013  0.55434  1.0000
  C   C5204     1.0  0.78489  0.86184  0.54447  1.0000
  C   C5205     1.0  0.79204  0.87027  0.55280  1.0000
  H   H4164     1.0  0.78794  0.86427  0.53038  1.0000
  H   H4165     1.0  0.80018  0.87948  0.54508  1.0000
  C   C5206     1.0  0.74861  0.85939  0.44144  1.0000
  C   C5207     1.0  0.74326  0.87763  0.43847  1.0000
  C   C5208     1.0  0.73630  0.88712  0.42378  1.0000
  C   C5209     1.0  0.73468  0.87847  0.41187  1.0000
  C   C5210     1.0  0.74066  0.86024  0.41442  1.0000
  C   C5211     1.0  0.74750  0.85071  0.42925  1.0000
  H   H4166     1.0  0.74421  0.88437  0.44766  1.0000
  H   H4167     1.0  0.73229  0.90120  0.42157  1.0000
  H   H4168     1.0  0.73963  0.85343  0.40520  1.0000
  H   H4169     1.0  0.75179  0.83658  0.43134  1.0000
  C   C5212     1.0  0.94289  0.83400  0.57686  1.0000
  H   H4170     1.0  0.94158  0.81053  0.47169  1.0000
  H   H4171     1.0  0.74044  0.92483  0.50315  1.0000
  C   C5213     1.0  0.82623  0.80970  0.35813  1.0000
  C   C5214     1.0  0.81705  0.79620  0.36561  1.0000
  C   C5215     1.0  0.79888  0.79942  0.36634  1.0000
  C   C5216     1.0  0.78984  0.81613  0.35947  1.0000
  C   C5217     1.0  0.79900  0.82970  0.35187  1.0000
  C   C5218     1.0  0.81718  0.82650  0.35135  1.0000
  H   H4172     1.0  0.82384  0.78329  0.37098  1.0000
  H   H4173     1.0  0.79187  0.78887  0.37202  1.0000
  H   H4174     1.0  0.79217  0.84258  0.34621  1.0000
  H   H4175     1.0  0.82428  0.83697  0.34551  1.0000
  C   C5219     1.0  0.87794  0.79917  0.53908  1.0000
  C   C5220     1.0  0.87544  0.78346  0.53727  1.0000
  C   C5221     1.0  0.87656  0.76856  0.55101  1.0000
  H   H4176     1.0  0.87276  0.78277  0.52526  1.0000
  H   H4177     1.0  0.87488  0.75634  0.54956  1.0000
  C   C5222     1.0  0.85354  0.86840  0.44995  1.0000
  C   C5223     1.0  0.85051  0.88656  0.44820  1.0000
  C   C5224     1.0  0.83422  0.89567  0.45656  1.0000
  C   C5225     1.0  0.82080  0.88671  0.46628  1.0000
  C   C5226     1.0  0.82369  0.86872  0.46743  1.0000
  C   C5227     1.0  0.83997  0.85960  0.45925  1.0000
  H   H4178     1.0  0.86086  0.89348  0.44072  1.0000
  H   H4179     1.0  0.83202  0.90963  0.45553  1.0000
  H   H4180     1.0  0.81343  0.86174  0.47460  1.0000
  H   H4181     1.0  0.84176  0.84585  0.45972  1.0000
  H   H4182     1.0  0.78911  0.84417  0.42983  1.0000
  H   H4183     1.0  0.78873  0.87847  0.37955  1.0000
  H   H4184     1.0  0.87228  0.78384  0.43599  1.0000
  C   C5228     1.0  0.95388  0.78461  0.46705  1.0000
  C   C5229     1.0  0.95284  0.79964  0.47278  1.0000
  C   C5230     1.0  0.87936  0.88730  0.47261  1.0000
  C   C5231     1.0  0.95781  0.82428  0.56739  1.0000
  C   C5232     1.0  0.70751  0.85683  0.46224  1.0000
  C   C5233     1.0  0.80353  0.91861  0.50766  1.0000
  C   C5234     1.0  0.80830  0.93417  0.50673  1.0000
  C   C5235     1.0  0.82443  0.93353  0.51047  1.0000
  C   C5236     1.0  0.83582  0.91734  0.51504  1.0000
  H   H4185     1.0  0.87920  0.89611  0.45997  1.0000
  H   H4186     1.0  0.90364  0.86986  0.46324  1.0000
  C   C5237     1.0  0.69704  0.86614  0.45016  1.0000
  H   H4187     1.0  0.79122  0.91905  0.50439  1.0000
  H   H4188     1.0  0.79953  0.94672  0.50305  1.0000
  H   H4189     1.0  0.82810  0.94563  0.50975  1.0000
  C   C5238     1.0  0.83189  0.83372  0.54199  1.0000
  C   C5239     1.0  0.95826  0.82062  0.37484  1.0000
  C   C5240     1.0  0.97120  0.80597  0.38014  1.0000
  C   C5241     1.0  0.83764  0.76199  0.61172  1.0000
  S   S721      1.0  0.88393  0.75024  0.58269  1.0000
  Fe  Fe361     1.0  0.89641  0.75312  0.34922  1.0000
  C   C5242     1.0  0.96121  0.83751  0.37225  1.0000
  C   C5243     1.0  0.93175  0.79708  0.40458  1.0000
  C   C5244     1.0  0.92454  0.78400  0.41746  1.0000
  C   C5245     1.0  0.91611  0.77345  0.41318  1.0000
  C   C5246     1.0  0.89580  0.86861  0.37599  1.0000
  C   C5247     1.0  0.90455  0.86543  0.35944  1.0000
  C   C5248     1.0  0.91753  0.85007  0.35777  1.0000
  H   H4190     1.0  0.96930  0.79287  0.38199  1.0000
  H   H4191     1.0  0.78492  0.80594  0.32633  1.0000
  H   H4192     1.0  0.80519  0.76519  0.60323  1.0000
  Fe  Fe362     1.0  0.87555  0.74395  0.38613  1.0000
  H   H4193     1.0  0.93813  0.80516  0.40832  1.0000
  H   H4194     1.0  0.92542  0.78198  0.43082  1.0000
  H   H4195     1.0  0.91047  0.76343  0.42320  1.0000
  H   H4196     1.0  0.88567  0.88045  0.37732  1.0000
  H   H4197     1.0  0.90125  0.87487  0.34789  1.0000
  H   H4198     1.0  0.92437  0.84805  0.34483  1.0000
  C   C5249     1.0  0.97617  0.73823  0.43405  1.0000
  C   C5250     1.0  0.93751  0.75292  0.34487  1.0000
  H   H4199     1.0  0.80603  0.83301  0.60512  1.0000
  C   C5251     1.0  0.70332  0.88326  0.47250  1.0000
  C   C5252     1.0  0.69312  0.89282  0.46012  1.0000
  C   C5253     1.0  0.68956  0.88399  0.44933  1.0000
  P   P174      1.0  0.68342  0.91583  0.45935  1.0000
  C   C5254     1.0  0.66446  0.91627  0.47743  1.0000
  C   C5255     1.0  0.69941  0.92692  0.46078  1.0000
  C   C5256     1.0  0.71747  0.92105  0.45392  1.0000
  C   C5257     1.0  0.73003  0.92944  0.45491  1.0000
  C   C5258     1.0  0.97816  0.83433  0.50648  1.0000
  C   C5259     1.0  0.72393  0.96497  0.56641  1.0000
  C   C5260     1.0  0.69397  0.94192  0.46792  1.0000
  C   C5261     1.0  0.64849  0.91367  0.47578  1.0000
  C   C5262     1.0  0.63405  0.91305  0.49007  1.0000
  C   C5263     1.0  0.82696  0.83080  0.52810  1.0000
  C   C5264     1.0  0.68473  0.94314  0.59956  1.0000
  C   C5265     1.0  0.66604  0.91732  0.49377  1.0000
  C   C5266     1.0  0.67780  0.92636  0.43846  1.0000
  C   C5267     1.0  0.66203  0.93903  0.43709  1.0000
  C   C5268     1.0  0.65780  0.94670  0.42073  1.0000
  C   C5269     1.0  0.66944  0.94199  0.40566  1.0000
  C   C5270     1.0  0.68551  0.92998  0.40693  1.0000
  C   C5271     1.0  0.68972  0.92232  0.42320  1.0000
  H   H4200     1.0  0.70596  0.88967  0.48123  1.0000
  H   H4201     1.0  0.68126  0.89081  0.44007  1.0000
  H   H4202     1.0  0.72187  0.90984  0.44802  1.0000
  H   H4203     1.0  0.74398  0.92468  0.44978  1.0000
  S   S722      1.0  0.72769  0.98201  0.41663  1.0000
  H   H4204     1.0  0.91532  0.75412  0.47438  1.0000
  H   H4205     1.0  0.97237  0.76153  0.57260  1.0000
  H   H4206     1.0  0.64731  0.91180  0.46356  1.0000
  H   H4207     1.0  0.62177  0.91100  0.48874  1.0000
  H   H4208     1.0  0.85799  0.84417  0.58827  1.0000
  C   C5272     1.0  0.84297  0.94152  0.58704  1.0000
  H   H4209     1.0  0.67854  0.91824  0.49564  1.0000
  H   H4210     1.0  0.65306  0.94306  0.44857  1.0000
  H   H4211     1.0  0.83020  0.75165  0.42499  1.0000
  S   S723      1.0  0.77671  0.85826  0.63187  1.0000
  H   H4212     1.0  0.69490  0.92658  0.39538  1.0000
  H   H4213     1.0  0.70221  0.91300  0.42386  1.0000
  C   C5273     1.0  0.98959  0.76855  0.42673  1.0000
  H   H4214     1.0  0.79120  0.78847  0.55352  1.0000
  H   H4215     1.0  0.81288  0.94390  0.32666  1.0000
  H   H4216     1.0  0.78039  0.97971  0.64074  1.0000
  C   C5274     1.0  0.86639  0.81128  0.30976  1.0000
  C   C5275     1.0  0.74764  0.94198  0.63885  1.0000
  C   C5276     1.0  0.97240  0.82210  0.52142  1.0000
  C   C5277     1.0  0.95359  0.75836  0.33764  1.0000
  C   C5278     1.0  0.68707  0.93394  0.32997  1.0000
  C   C5279     1.0  0.69323  0.94181  0.33977  1.0000
  C   C5280     1.0  0.69511  0.93329  0.35677  1.0000
  C   C5281     1.0  0.69088  0.91683  0.36410  1.0000
  C   C5282     1.0  0.68445  0.90908  0.35455  1.0000
  C   C5283     1.0  0.68251  0.91758  0.33757  1.0000
  H   H4217     1.0  0.99375  0.73700  0.60630  1.0000
  C   C5284     1.0  0.93241  0.80952  0.32559  1.0000
  S   S724      1.0  0.77294  0.90089  0.61843  1.0000
  Fe  Fe363     1.0  0.89456  0.75502  0.60321  1.0000
  C   C5285     1.0  0.75311  0.96399  0.61220  1.0000
  C   C5286     1.0  0.99332  0.78633  0.56400  1.0000
  H   H4218     1.0  0.98805  0.85129  0.43539  1.0000
  C   C5287     1.0  0.80179  0.92283  0.32611  1.0000
  H   H4219     1.0  0.73451  0.94973  0.46421  1.0000
  H   H4220     1.0  0.76729  0.96685  0.46619  1.0000
  H   H4221     1.0  0.75030  0.96316  0.32162  1.0000
  C   C5288     1.0  0.83168  0.95460  0.57759  1.0000
  C   C5289     1.0  0.71091  0.95877  0.51931  1.0000
  C   C5290     1.0  0.85670  0.74752  0.45971  1.0000
  Fe  Fe364     1.0  0.86238  0.74102  0.35571  1.0000
  H   H4222     1.0  0.81683  0.95538  0.35384  1.0000
  H   H4223     1.0  0.69739  0.95416  0.33400  1.0000
  H   H4224     1.0  0.70058  0.93917  0.36390  1.0000
  H   H4225     1.0  0.69316  0.90972  0.37691  1.0000
  H   H4226     1.0  0.68179  0.89605  0.35997  1.0000
  H   H4227     1.0  0.67845  0.91080  0.33016  1.0000
  C   C5291     1.0  0.71104  0.98038  0.56796  1.0000
  C   C5292     1.0  0.93237  0.74715  0.36294  1.0000
  H   H4228     1.0  0.70119  0.83362  0.34819  1.0000
  H   H4229     1.0  0.92375  0.75202  0.55499  1.0000
  H   H4230     1.0  0.84916  0.77949  0.31420  1.0000
  H   H4231     1.0  0.68029  0.94661  0.61220  1.0000
  C   C5293     1.0  0.98971  0.82492  0.38018  1.0000
  C   C5294     1.0  0.80463  0.80684  0.57896  1.0000
  H   H4232     1.0  0.72556  0.97910  0.45281  1.0000
  C   C5295     1.0  0.84570  0.74171  0.63771  1.0000
  C   C5296     1.0  0.69520  0.95372  0.52074  1.0000
  H   H4233     1.0  0.95632  0.75497  0.41984  1.0000
  C   C5297     1.0  0.79243  0.93584  0.64239  1.0000
  C   C5298     1.0  0.63558  0.91464  0.50618  1.0000
  H   H4234     1.0  0.97736  0.79656  0.31867  1.0000
  H   H4235     1.0  0.85651  0.93450  0.60802  1.0000
  C   C5299     1.0  0.70179  0.92225  0.58150  1.0000
  H   H4236     1.0  0.83970  0.76539  0.59760  1.0000
  C   C5300     1.0  0.88476  0.74111  0.50677  1.0000
  H   H4237     1.0  0.92152  0.81017  0.31990  1.0000
  C   C5301     1.0  0.73928  0.80988  0.31573  1.0000
  C   C5302     1.0  0.97690  0.83962  0.37491  1.0000
  C   C5303     1.0  0.69603  0.92690  0.59783  1.0000
  C   C5304     1.0  0.98951  0.75851  0.63804  1.0000
  H   H4238     1.0  0.81315  0.86527  0.31341  1.0000
  C   C5305     1.0  0.71072  0.93777  0.63235  1.0000
  H   H4239     1.0  0.96926  0.75915  0.46376  1.0000
  C   C5306     1.0  0.87033  0.87837  0.54199  1.0000
  C   C5307     1.0  0.85717  0.81689  0.59438  1.0000
  H   H4240     1.0  0.72231  0.95583  0.55981  1.0000
  H   H4241     1.0  0.84304  0.95042  0.39474  1.0000
  C   C5308     1.0  0.70879  0.95517  0.62299  1.0000
  C   C5309     1.0  0.96815  0.76344  0.52593  1.0000
  P   P175      1.0  0.84749  0.96563  0.62314  1.0000
  C   C5310     1.0  0.76205  0.80788  0.63739  1.0000
  C   C5311     1.0  0.92253  0.79084  0.52586  1.0000
  C   C5312     1.0  0.69575  0.93830  0.51602  1.0000
  H   H4242     1.0  0.64559  0.95640  0.41969  1.0000
  H   H4243     1.0  0.70046  0.91814  0.60919  1.0000
  H   H4244     1.0  0.97974  0.79763  0.58661  1.0000
  H   H4245     1.0  0.83240  0.82364  0.55382  1.0000
  C   C5313     1.0  0.67944  0.95502  0.58495  1.0000
  C   C5314     1.0  0.82784  0.81023  0.60434  1.0000
  H   H4246     1.0  0.99026  0.82478  0.45951  1.0000
  Fe  Fe365     1.0  0.92677  0.75085  0.61744  1.0000
  H   H4247     1.0  0.77570  0.79634  0.61538  1.0000
  H   H4248     1.0  0.67730  0.89304  0.54623  1.0000
  C   C5315     1.0  0.71908  0.86118  0.63101  1.0000
  C   C5316     1.0  0.77838  0.85472  0.58100  1.0000
  C   C5317     1.0  0.97129  0.77805  0.54678  1.0000
  C   C5318     1.0  0.80550  0.78387  0.33352  1.0000
  C   C5319     1.0  0.80381  0.77642  0.59246  1.0000
  P   P176      1.0  0.81382  0.79448  0.61144  1.0000
  H   H4249     1.0  0.69697  0.95664  0.42710  1.0000
  Fe  Fe366     1.0  0.89133  0.74782  0.64214  1.0000
  C   C5320     1.0  0.73905  0.93788  0.40333  1.0000
  C   C5321     1.0  0.74138  0.92709  0.39184  1.0000
  C   C5322     1.0  0.75801  0.91646  0.38685  1.0000
  C   C5323     1.0  0.77237  0.91682  0.39313  1.0000
  C   C5324     1.0  0.77017  0.92780  0.40451  1.0000
  C   C5325     1.0  0.75339  0.93835  0.40955  1.0000
  P   P177      1.0  0.78860  0.92723  0.41334  1.0000
  C   C5326     1.0  0.79733  0.90432  0.42177  1.0000
  C   C5327     1.0  0.80542  0.93729  0.39724  1.0000
  C   C5328     1.0  0.81933  0.94016  0.40264  1.0000
  C   C5329     1.0  0.98658  0.84151  0.32613  1.0000
  C   C5330     1.0  0.82029  0.82828  0.60227  1.0000
  C   C5331     1.0  0.98732  0.74447  0.61630  1.0000
  C   C5332     1.0  0.80456  0.94287  0.37957  1.0000
  C   C5333     1.0  0.78559  0.89367  0.43231  1.0000
  C   C5334     1.0  0.79198  0.87592  0.43896  1.0000
  C   C5335     1.0  0.81003  0.86848  0.43453  1.0000
  C   C5336     1.0  0.82178  0.87884  0.42364  1.0000
  C   C5337     1.0  0.81550  0.89674  0.41735  1.0000
  C   C5338     1.0  0.78117  0.93956  0.43034  1.0000
  C   C5339     1.0  0.77802  0.95796  0.42574  1.0000
  C   C5340     1.0  0.84728  0.74603  0.61964  1.0000
  C   C5341     1.0  0.77118  0.95923  0.45623  1.0000
  C   C5342     1.0  0.77396  0.94094  0.46093  1.0000
  C   C5343     1.0  0.77897  0.93115  0.44803  1.0000
  H   H4250     1.0  0.72620  0.94614  0.40724  1.0000
  H   H4251     1.0  0.73030  0.92677  0.38693  1.0000
  H   H4252     1.0  0.75967  0.90783  0.37822  1.0000
  H   H4253     1.0  0.78516  0.90843  0.38923  1.0000
  H   H4254     1.0  0.75121  0.94691  0.41834  1.0000
  H   H4255     1.0  0.82009  0.93604  0.41628  1.0000
  H   H4256     1.0  0.66502  0.96753  0.32898  1.0000
  H   H4257     1.0  0.87865  0.95604  0.59566  1.0000
  H   H4258     1.0  0.86583  0.75208  0.30974  1.0000
  H   H4259     1.0  0.79380  0.94120  0.37506  1.0000
  H   H4260     1.0  0.77149  0.89913  0.43548  1.0000
  H   H4261     1.0  0.78293  0.86785  0.44744  1.0000
  H   H4262     1.0  0.81489  0.85471  0.43976  1.0000
  H   H4263     1.0  0.83582  0.87305  0.42039  1.0000
  H   H4264     1.0  0.82490  0.90446  0.40904  1.0000
  H   H4265     1.0  0.77911  0.96475  0.41218  1.0000
  H   H4266     1.0  0.82820  0.93752  0.63653  1.0000
  H   H4267     1.0  0.96936  0.79041  0.52000  1.0000
  H   H4268     1.0  0.77243  0.93425  0.47457  1.0000
  H   H4269     1.0  0.78121  0.91704  0.45196  1.0000
  H   H4270     1.0  0.90899  0.76714  0.39264  1.0000
  C   C5344     1.0  0.71045  0.86533  0.47352  1.0000
  H   H4271     1.0  0.94368  0.84592  0.57980  1.0000
  C   C5345     1.0  0.76625  0.77213  0.32710  1.0000
  P   P178      1.0  0.97632  0.79633  0.55161  1.0000
  C   C5346     1.0  0.82713  0.84348  0.51253  1.0000
  C   C5347     1.0  0.70212  0.87419  0.54410  1.0000
  C   C5348     1.0  0.71843  0.86815  0.54903  1.0000
  C   C5349     1.0  0.72280  0.87656  0.55951  1.0000
  C   C5350     1.0  0.71075  0.89103  0.56533  1.0000
  C   C5351     1.0  0.98841  0.85375  0.31024  1.0000
  H   H4272     1.0  0.97571  0.76443  0.34314  1.0000
  C   C5352     1.0  0.96371  0.75947  0.34866  1.0000
  C   C5353     1.0  0.73790  0.90736  0.56805  1.0000
  C   C5354     1.0  0.74870  0.90968  0.57774  1.0000
  C   C5355     1.0  0.76519  0.91382  0.56933  1.0000
  C   C5356     1.0  0.77083  0.91599  0.55121  1.0000
  C   C5357     1.0  0.75978  0.91451  0.54143  1.0000
  C   C5358     1.0  0.74335  0.91026  0.54978  1.0000
  H   H4273     1.0  0.74706  0.85388  0.62031  1.0000
  S   S725      1.0  0.81165  0.87564  0.62181  1.0000
  H   H4274     1.0  0.96570  0.81201  0.48454  1.0000
  C   C5359     1.0  0.89305  0.86076  0.49061  1.0000
  H   H4275     1.0  0.71875  0.85804  0.48269  1.0000
  H   H4276     1.0  0.89706  0.74022  0.31121  1.0000
  C   C5360     1.0  0.96801  0.75414  0.42445  1.0000
  H   H4277     1.0  0.96908  0.84210  0.49819  1.0000
  H   H4278     1.0  0.69906  0.86796  0.53550  1.0000
  H   H4279     1.0  0.72783  0.85702  0.54456  1.0000
  H   H4280     1.0  0.73568  0.87184  0.56292  1.0000
  H   H4281     1.0  0.81635  0.97760  0.40959  1.0000
  H   H4282     1.0  0.74463  0.90787  0.59181  1.0000
  H   H4283     1.0  0.77385  0.91480  0.57692  1.0000
  H   H4284     1.0  0.78386  0.91855  0.54479  1.0000
  H   H4285     1.0  0.76405  0.91633  0.52738  1.0000
  H   H4286     1.0  0.73504  0.90908  0.54192  1.0000
  H   H4287     1.0  0.75301  0.77626  0.33454  1.0000
  C   C5361     1.0  0.78861  0.86694  0.57102  1.0000
  H   H4288     1.0  0.69499  0.85957  0.44124  1.0000
  H   H4289     1.0  0.81079  0.89061  0.51278  1.0000
  H   H4290     1.0  0.70199  0.93157  0.55392  1.0000
  Fe  Fe367     1.0  0.89724  0.78304  0.61979  1.0000
  C   C5362     1.0  0.87316  0.76169  0.42569  1.0000
  C   C5363     1.0  0.79892  0.80536  0.56485  1.0000
  C   C5364     1.0  0.91509  0.77573  0.39595  1.0000
  H   H4291     1.0  0.80479  0.75446  0.41194  1.0000
  C   C5365     1.0  0.82950  0.97420  0.59602  1.0000
  H   H4292     1.0  0.65304  0.91745  0.52060  1.0000
  C   C5366     1.0  0.82186  0.76444  0.42117  1.0000
  C   C5367     1.0  0.77328  0.96772  0.43861  1.0000
  C   C5368     1.0  0.79684  0.78255  0.40900  1.0000
  C   C5369     1.0  0.80077  0.79757  0.41089  1.0000
  C   C5370     1.0  0.81529  0.79606  0.41797  1.0000
  C   C5371     1.0  0.82547  0.77936  0.42355  1.0000
  P   P179      1.0  0.81996  0.81503  0.42163  1.0000
  C   C5372     1.0  0.81242  0.81357  0.44494  1.0000
  C   C5373     1.0  0.84331  0.81509  0.41398  1.0000
  C   C5374     1.0  0.85050  0.82642  0.41891  1.0000
  C   C5375     1.0  0.86851  0.82666  0.41291  1.0000
  C   C5376     1.0  0.87932  0.81602  0.40152  1.0000
  C   C5377     1.0  0.87208  0.80545  0.39580  1.0000
  C   C5378     1.0  0.85414  0.80497  0.40196  1.0000
  C   C5379     1.0  0.79445  0.81387  0.45280  1.0000
  C   C5380     1.0  0.78849  0.81217  0.47087  1.0000
  C   C5381     1.0  0.80041  0.80992  0.48129  1.0000
  C   C5382     1.0  0.81841  0.80887  0.47370  1.0000
  C   C5383     1.0  0.82446  0.81040  0.45566  1.0000
  C   C5384     1.0  0.80914  0.83477  0.40850  1.0000
  C   C5385     1.0  0.81583  0.83865  0.39036  1.0000
  C   C5386     1.0  0.80852  0.85438  0.37999  1.0000
  C   C5387     1.0  0.79439  0.86630  0.38760  1.0000
  C   C5388     1.0  0.78736  0.86238  0.40552  1.0000
  C   C5389     1.0  0.79467  0.84668  0.41597  1.0000
  H   H4293     1.0  0.71715  0.92708  0.62567  1.0000
  H   H4294     1.0  0.84837  0.91704  0.51772  1.0000
  H   H4295     1.0  0.85445  0.90142  0.48491  1.0000
  H   H4296     1.0  0.79244  0.81026  0.40682  1.0000
  H   H4297     1.0  0.83629  0.77791  0.42966  1.0000
  H   H4298     1.0  0.84227  0.83492  0.42756  1.0000
  H   H4299     1.0  0.87407  0.83501  0.41723  1.0000
  H   H4300     1.0  0.89328  0.81600  0.39704  1.0000
  H   H4301     1.0  0.88034  0.79761  0.38657  1.0000
  H   H4302     1.0  0.84879  0.79687  0.39709  1.0000
  H   H4303     1.0  0.78498  0.81545  0.44499  1.0000
  H   H4304     1.0  0.77455  0.81273  0.47677  1.0000
  H   H4305     1.0  0.79576  0.80870  0.49527  1.0000
  H   H4306     1.0  0.82779  0.80633  0.48187  1.0000
  H   H4307     1.0  0.83859  0.80848  0.45040  1.0000
  H   H4308     1.0  0.82678  0.82954  0.38420  1.0000
  H   H4309     1.0  0.81376  0.85728  0.36603  1.0000
  H   H4310     1.0  0.82341  0.81856  0.52923  1.0000
  C   C5390     1.0  0.96046  0.80656  0.34093  1.0000
  C   C5391     1.0  0.93053  0.79969  0.38718  1.0000
  C   C5392     1.0  0.92161  0.83759  0.37271  1.0000
  S   S726      1.0  0.79734  0.87850  0.58064  1.0000
  S   S727      1.0  0.85624  0.77446  0.47349  1.0000
  P   P180      1.0  0.93837  0.81766  0.37081  1.0000
  C   C5393     1.0  0.91309  0.84118  0.38927  1.0000
  C   C5394     1.0  0.90018  0.85657  0.39088  1.0000
  H   H4311     1.0  0.89353  0.85911  0.40374  1.0000
  C   C5395     1.0  0.74235  0.81196  0.33109  1.0000
  C   C5396     1.0  0.77107  0.84633  0.57263  1.0000
  C   C5397     1.0  0.88040  0.76935  0.56643  1.0000
  H   H4312     1.0  0.82533  0.88728  0.55451  1.0000
  C   C5398     1.0  0.80701  0.92932  0.56433  1.0000
  C   C5399     1.0  0.92232  0.78869  0.38294  1.0000
  H   H4313     1.0  0.95153  0.84907  0.36805  1.0000
  H   H4314     1.0  0.91626  0.83212  0.40104  1.0000
  H   H4315     1.0  0.82359  0.84109  0.50166  1.0000
  H   H4316     1.0  0.85648  0.73731  0.61163  1.0000
  C   C5400     1.0  0.89316  0.87250  0.47446  1.0000
  H   H4317     1.0  0.84115  0.85098  0.55118  1.0000
  H   H4318     1.0  0.87947  0.76716  0.41254  1.0000
  H   H4319     1.0  0.78776  0.94019  0.60357  1.0000
  H   H4320     1.0  0.97148  0.80471  0.34685  1.0000
  H   H4321     1.0  0.81755  0.91973  0.55846  1.0000
  H   H4322     1.0  0.92156  0.78978  0.36969  1.0000
  H   H4323     1.0  0.71372  0.84310  0.46261  1.0000
  H   H4324     1.0  0.88303  0.80826  0.32747  1.0000
  H   H4325     1.0  0.68355  0.93438  0.51737  1.0000
  H   H4326     1.0  0.80016  0.94432  0.53991  1.0000
  C   C5401     1.0  0.71203  0.92774  0.50992  1.0000
  C   C5402     1.0  0.83116  0.90164  0.51588  1.0000
  H   H4327     1.0  0.86383  0.88075  0.58443  1.0000
  C   C5403     1.0  0.79714  0.94300  0.55390  1.0000
  H   H4328     1.0  0.91533  0.81858  0.34813  1.0000
  C   C5404     1.0  0.86538  0.89031  0.48688  1.0000
  C   C5405     1.0  0.94299  0.81295  0.34938  1.0000
  C   C5406     1.0  0.92897  0.81433  0.34157  1.0000
  C   C5407     1.0  0.81483  0.90239  0.51230  1.0000
  H   H4329     1.0  0.83241  0.88682  0.58220  1.0000
  C   C5408     1.0  0.72784  0.93290  0.50808  1.0000
  H   H4330     1.0  0.68007  0.94706  0.47282  1.0000
  C   C5409     1.0  0.92398  0.78530  0.51072  1.0000
  C   C5410     1.0  0.86526  0.87859  0.50318  1.0000
  C   C5411     1.0  0.83904  0.88479  0.55533  1.0000
  S   S728      1.0  0.87223  0.76450  0.33815  1.0000
  C   C5412     1.0  0.92623  0.75510  0.52710  1.0000
  H   H4331     1.0  0.96790  0.78146  0.41392  1.0000
  C   C5413     1.0  0.96654  0.80054  0.47985  1.0000
  H   H4332     1.0  0.82880  0.76417  0.33827  1.0000
  C   C5414     1.0  0.77723  0.80163  0.62552  1.0000
  H   H4333     1.0  0.97010  0.82886  0.56293  1.0000
  C   C5415     1.0  0.95692  0.80865  0.56381  1.0000
  C   C5416     1.0  0.88226  0.80523  0.31561  1.0000
  C   C5417     1.0  0.86913  0.77109  0.43898  1.0000
  C   C5418     1.0  0.87903  0.86363  0.50481  1.0000
  P   P181      1.0  0.84650  0.88101  0.52126  1.0000
  H   H4334     1.0  0.74894  0.94956  0.57159  1.0000
  C   C5419     1.0  0.85258  0.88142  0.54082  1.0000
  C   C5420     1.0  0.83252  0.85895  0.51074  1.0000
  C   C5421     1.0  0.73454  0.86238  0.61805  1.0000
  C   C5422     1.0  0.80340  0.92824  0.58231  1.0000
  C   C5423     1.0  0.79181  0.95379  0.63592  1.0000
  H   H4335     1.0  0.80283  0.73916  0.33082  1.0000
  S   S729      1.0  0.84940  0.75431  0.37826  1.0000
  H   H4336     1.0  0.99256  0.80435  0.62904  1.0000
  C   C5424     1.0  0.92441  0.76089  0.54236  1.0000
  H   H4337     1.0  0.92644  0.76375  0.49942  1.0000
  C   C5425     1.0  0.77897  0.95363  0.57964  1.0000
  C   C5426     1.0  0.71170  0.82674  0.33931  1.0000
  C   C5427     1.0  0.78316  0.95507  0.56151  1.0000
  C   C5428     1.0  0.79816  0.77498  0.57827  1.0000
  H   H4338     1.0  0.81598  0.98088  0.57486  1.0000
  C   C5429     1.0  0.96387  0.80189  0.32488  1.0000
  C   C5430     1.0  0.74192  0.97396  0.58035  1.0000
  C   C5431     1.0  0.92589  0.81294  0.57878  1.0000
  H   H4339     1.0  0.82531  0.85431  0.59476  1.0000
  P   P182      1.0  0.76131  0.96983  0.58900  1.0000
  H   H4340     1.0  0.83338  0.86828  0.49832  1.0000
  H   H4341     1.0  0.62447  0.91393  0.51730  1.0000
  C   C5432     1.0  0.77732  0.75695  0.33452  1.0000
  H   H4342     1.0  0.66626  0.94797  0.39296  1.0000
  C   C5433     1.0  0.72728  0.94852  0.51273  1.0000
  C   C5434     1.0  0.83143  0.95377  0.37290  1.0000
  C   C5435     1.0  0.83695  0.84933  0.54037  1.0000
  C   C5436     1.0  0.70210  0.88386  0.61200  1.0000
  H   H4343     1.0  0.90347  0.84904  0.49203  1.0000
  H   H4344     1.0  0.88475  0.78598  0.58050  1.0000
  H   H4345     1.0  0.67094  0.96774  0.58619  1.0000
  H   H4346     1.0  0.68264  0.87101  0.31217  1.0000
  C   C5437     1.0  0.88208  0.78527  0.56852  1.0000
  H   H4347     1.0  0.81884  0.98216  0.54240  1.0000
  C   C5438     1.0  0.78977  0.94068  0.58984  1.0000
  S   S730      1.0  0.88647  0.76758  0.37092  1.0000
  H   H4348     1.0  0.87866  0.85389  0.51698  1.0000
  H   H4349     1.0  0.75846  0.93627  0.61345  1.0000
  C   C5439     1.0  0.72865  0.82037  0.34278  1.0000
  H   H4350     1.0  0.81122  0.91789  0.59048  1.0000
  H   H4351     1.0  0.76292  0.83708  0.58029  1.0000
  C   C5440     1.0  0.80736  0.79231  0.59277  1.0000
  C   C5441     1.0  0.65161  0.91669  0.50804  1.0000
  H   H4352     1.0  0.70254  0.96129  0.47527  1.0000
  H   H4353     1.0  0.92089  0.78297  0.55355  1.0000
  C   C5442     1.0  0.71773  0.88582  0.59931  1.0000
  C   C5443     1.0  0.72212  0.81621  0.31244  1.0000
  C   C5444     1.0  0.73856  0.97275  0.63967  1.0000
  H   H4354     1.0  0.99368  0.76084  0.47571  1.0000
  C   C5445     1.0  0.80756  0.76603  0.41385  1.0000
  H   H4355     1.0  0.68937  0.89173  0.60964  1.0000
  C   C5446     1.0  0.94086  0.80302  0.56957  1.0000
  C   C5447     1.0  0.86074  0.88121  0.57219  1.0000
  C   C5448     1.0  0.91933  0.74564  0.46519  1.0000
  C   C5449     1.0  0.94985  0.80329  0.31725  1.0000
  H   H4356     1.0  0.79670  0.81664  0.55429  1.0000
  H   H4357     1.0  0.93985  0.79100  0.56705  1.0000
  C   C5450     1.0  0.77217  0.78155  0.31015  1.0000
  C   C5451     1.0  0.86953  0.74494  0.42963  1.0000
  C   C5452     1.0  0.75356  0.94645  0.62076  1.0000
  C   C5453     1.0  0.96881  0.74955  0.62050  1.0000
  S   S731      1.0  0.73438  0.97221  0.37021  1.0000
  C   C5454     1.0  0.84110  0.96125  0.60542  1.0000
  H   H4358     1.0  0.79553  0.76269  0.57802  1.0000
  H   H4359     1.0  0.88808  0.87544  0.55863  1.0000
  C   C5455     1.0  0.92588  0.76755  0.51128  1.0000
  C   C5456     1.0  0.83116  0.84045  0.59635  1.0000
  Fe  Fe368     1.0  0.86134  0.77688  0.36126  1.0000
  C   C5457     1.0  0.86087  0.76395  0.45604  1.0000
  H   H4360     1.0  0.88110  0.87606  0.53096  1.0000
  H   H4361     1.0  0.92302  0.79488  0.49864  1.0000
  C   C5458     1.0  0.87437  0.87816  0.55768  1.0000
  H   H4362     1.0  0.93821  0.74423  0.38790  1.0000
  H   H4363     1.0  0.88245  0.81240  0.55641  1.0000
  H   H4364     1.0  0.95205  0.74397  0.49456  1.0000
  H   H4365     1.0  0.77595  0.85189  0.59509  1.0000
  C   C5459     1.0  0.84637  0.80467  0.59998  1.0000
  C   C5460     1.0  0.81759  0.95103  0.36746  1.0000
  C   C5461     1.0  0.99133  0.73759  0.43978  1.0000
  C   C5462     1.0  0.86862  0.97208  0.61501  1.0000
  C   C5463     1.0  0.98124  0.78649  0.48097  1.0000
  C   C5464     1.0  0.70108  0.96885  0.63182  1.0000
  H   H4366     1.0  0.94699  0.74171  0.46433  1.0000
  H   H4367     1.0  0.82797  0.95210  0.56687  1.0000
  S   S732      1.0  0.91451  0.77156  0.59715  1.0000
  C   C5465     1.0  0.79574  0.78945  0.56446  1.0000
  Fe  Fe369     1.0  0.78973  0.87685  0.60945  1.0000
  S   S733      1.0  0.91110  0.76357  0.63969  1.0000
  H   H4368     1.0  0.68207  0.96018  0.55710  1.0000
  C   C5466     1.0  0.82596  0.77364  0.62189  1.0000
  C   C5467     1.0  0.68990  0.88835  0.55013  1.0000
  H   H4369     1.0  0.84786  0.92872  0.58379  1.0000
  P   P183      1.0  0.71683  0.90159  0.57887  1.0000
  C   C5468     1.0  0.83517  0.78528  0.31659  1.0000
  S   S734      1.0  0.80578  0.92099  0.62959  1.0000
  H   H4370     1.0  0.68427  0.90731  0.56571  1.0000
  C   C5469     1.0  0.97104  0.76233  0.55952  1.0000
  C   C5470     1.0  0.66369  0.97292  0.31560  1.0000
  C   C5471     1.0  0.96934  0.77858  0.53008  1.0000
  C   C5472     1.0  0.70283  0.87179  0.62791  1.0000
  C   C5473     1.0  0.74488  0.97719  0.62165  1.0000
  H   H4371     1.0  0.81414  0.91595  0.31928  1.0000
  C   C5474     1.0  0.69687  0.93449  0.56681  1.0000
  C   C5475     1.0  0.97004  0.74718  0.55527  1.0000
  H   H4372     1.0  0.77103  0.98191  0.43492  1.0000
  H   H4373     1.0  0.85257  0.79094  0.60092  1.0000
  C   C5476     1.0  0.73923  0.96164  0.57278  1.0000
  H   H4374     1.0  0.98477  0.97631  0.37739  1.0000
  C   C5477     1.0  0.84994  0.94588  0.64003  1.0000
  C   C5478     1.0  0.98683  0.80812  0.38283  1.0000
  H   H4375     1.0  0.82697  0.83401  0.31513  1.0000
  H   H4376     1.0  0.74597  0.87527  0.59235  1.0000
  H   H4377     1.0  0.96711  0.76386  0.51287  1.0000
  H   H4378     1.0  0.79947  0.95833  0.62306  1.0000
  H   H4379     1.0  0.78561  0.78379  0.40356  1.0000
  C   C5479     1.0  0.86132  0.73793  0.44667  1.0000
  H   H4380     1.0  0.69529  0.82955  0.32148  1.0000
  S   S735      1.0  0.89089  0.81184  0.61935  1.0000
  H   H4381     1.0  0.97920  0.85264  0.37278  1.0000
  H   H4382     1.0  0.90873  0.78916  0.31178  1.0000
  H   H4383     1.0  0.84140  0.96021  0.36348  1.0000
  H   H4384     1.0  0.75538  0.80737  0.33400  1.0000
  C   C5480     1.0  0.88136  0.96511  0.60157  1.0000
  S   S736      1.0  0.87613  0.76837  0.62394  1.0000
  H   H4385     1.0  0.77279  0.74985  0.34767  1.0000
  H   H4386     1.0  0.85520  0.81884  0.31736  1.0000
  C   C5481     1.0  0.86950  0.81812  0.63187  1.0000
  C   C5482     1.0  0.96070  0.76004  0.63279  1.0000
  C   C5483     1.0  0.93728  0.73855  0.45947  1.0000
  S   S737      1.0  0.96791  0.75969  0.38078  1.0000
  C   C5484     1.0  0.79409  0.80241  0.62675  1.0000
  C   C5485     1.0  0.79424  0.75087  0.32499  1.0000
  C   C5486     1.0  0.96892  0.74767  0.53837  1.0000
  C   C5487     1.0  0.89688  0.74285  0.51526  1.0000
  H   H4387     1.0  0.83776  0.85470  0.63839  1.0000
  H   H4388     1.0  0.69479  0.96331  0.39610  1.0000
  H   H4389     1.0  0.68698  0.97990  0.44348  1.0000
  H   H4390     1.0  0.97079  0.73495  0.56495  1.0000
  C   C5488     1.0  0.68921  0.97332  0.40370  1.0000
  C   C5489     1.0  0.99138  0.78903  0.58074  1.0000
  C   C5490     1.0  0.90659  0.74212  0.45881  1.0000
  C   C5491     1.0  0.82491  0.97089  0.58212  1.0000
  C   C5492     1.0  0.81032  0.80870  0.30968  1.0000
  C   C5493     1.0  0.84380  0.84098  0.63934  1.0000
  H   H4391     1.0  0.62705  0.95101  0.63673  1.0000
  S   S738      1.0  0.70926  0.97723  0.52722  1.0000
  H   H4392     1.0  0.74908  0.80739  0.63628  1.0000
  C   C5494     1.0  0.89789  0.96972  0.59569  1.0000
  H   H4393     1.0  0.90768  0.96427  0.58534  1.0000
  H   H4394     1.0  0.98370  0.97519  0.44991  1.0000
  H   H4395     1.0  0.98958  0.82453  0.60041  1.0000
  H   H4396     1.0  0.94649  0.76433  0.63590  1.0000
  H   H4397     1.0  0.87271  0.75114  0.50574  1.0000
  C   C5495     1.0  0.90182  0.98136  0.60312  1.0000
  H   H4398     1.0  0.89273  0.74780  0.46319  1.0000
  C   C5496     1.0  0.82448  0.76916  0.64008  1.0000
  Fe  Fe370     1.0  0.76147  0.88239  0.64208  1.0000
  C   C5497     1.0  0.79546  0.80960  0.63997  1.0000
  C   C5498     1.0  0.97104  0.76453  0.64153  1.0000
  H   H4399     1.0  0.80828  0.81064  0.64097  1.0000
  C   C5499     1.0  0.68460  0.98293  0.43048  1.0000
  H   H4400     1.0  0.70008  0.98235  0.62456  1.0000
  C   C5500     1.0  0.83067  0.98281  0.63198  1.0000
  H   H4401     1.0  0.78027  0.98290  0.60697  1.0000
  H   H4402     1.0  0.69947  0.98324  0.56249  1.0000
  H   H4403     1.0  0.69327  0.98344  0.31234  1.0000
  Fe  Fe371     1.0  0.52017  0.88611  0.77681  1.0000
  S   S739      1.0  0.51858  0.89723  0.74879  1.0000
  S   S740      1.0  0.52000  0.90308  0.79440  1.0000
  Fe  Fe372     1.0  0.51774  0.85010  0.77544  1.0000
  S   S741      1.0  0.51527  0.85792  0.74753  1.0000
  C   C5501     1.0  0.53842  0.93264  0.84823  1.0000
  Fe  Fe373     1.0  0.53698  0.87189  0.74394  1.0000
  S   S742      1.0  0.56101  0.86933  0.72208  1.0000
  C   C5502     1.0  0.58261  0.90854  0.79120  1.0000
  C   C5503     1.0  0.69892  0.91595  0.71113  1.0000
  S   S743      1.0  0.54082  0.86222  0.77142  1.0000
  C   C5504     1.0  0.56217  0.89197  0.81248  1.0000
  C   C5505     1.0  0.55305  0.81821  0.86020  1.0000
  H   H4404     1.0  0.74154  0.86705  0.74611  1.0000
  C   C5506     1.0  0.60758  0.95585  0.66003  1.0000
  C   C5507     1.0  0.55411  0.76500  0.81777  1.0000
  C   C5508     1.0  0.50744  0.93265  0.85187  1.0000
  H   H4405     1.0  0.58156  0.83613  0.76738  1.0000
  C   C5509     1.0  0.65663  0.93875  0.70435  1.0000
  C   C5510     1.0  0.50940  0.96303  0.72897  1.0000
  C   C5511     1.0  0.51507  0.81005  0.82699  1.0000
  C   C5512     1.0  0.62229  0.75064  0.81931  1.0000
  C   C5513     1.0  0.59945  0.91452  0.82657  1.0000
  C   C5514     1.0  0.96058  0.77168  0.72613  1.0000
  H   H4406     1.0  0.58141  0.74094  0.93316  1.0000
  H   H4407     1.0  0.71675  0.95509  0.69143  1.0000
  C   C5515     1.0  0.66526  0.82151  0.82086  1.0000
  S   S744      1.0  0.51114  0.78815  0.90601  1.0000
  H   H4408     1.0  0.74887  0.92828  0.64543  1.0000
  H   H4409     1.0  0.84404  0.73990  0.69788  1.0000
  Fe  Fe374     1.0  0.62541  0.77253  0.87460  1.0000
  S   S745      1.0  0.62965  0.74828  0.86465  1.0000
  S   S746      1.0  0.61442  0.79997  0.86133  1.0000
  H   H4410     1.0  0.71170  0.76097  0.87892  1.0000
  C   C5516     1.0  0.61465  0.76101  0.95031  1.0000
  C   C5517     1.0  0.56963  0.80704  0.93536  1.0000
  C   C5518     1.0  0.69007  0.73449  0.91328  1.0000
  C   C5519     1.0  0.54029  0.75697  0.81929  1.0000
  C   C5520     1.0  0.66411  0.81781  0.83894  1.0000
  C   C5521     1.0  0.52051  0.90757  0.68017  1.0000
  Fe  Fe375     1.0  0.63995  0.88049  0.74750  1.0000
  S   S747      1.0  0.63213  0.86932  0.77619  1.0000
  S   S748      1.0  0.61874  0.90034  0.73530  1.0000
  Fe  Fe376     1.0  0.67876  0.86236  0.74499  1.0000
  S   S749      1.0  0.67402  0.84984  0.77354  1.0000
  S   S750      1.0  0.70748  0.85595  0.73125  1.0000
  Fe  Fe377     1.0  0.64984  0.84433  0.76944  1.0000
  S   S751      1.0  0.64444  0.81718  0.77981  1.0000
  Fe  Fe378     1.0  0.65695  0.87596  0.77734  1.0000
  S   S752      1.0  0.65574  0.85497  0.74043  1.0000
  S   S753      1.0  0.66360  0.88908  0.74912  1.0000
  P   P184      1.0  0.58228  0.96207  0.69023  1.0000
  S   S754      1.0  0.51732  0.82323  0.79209  1.0000
  S   S755      1.0  0.81203  0.83434  0.66048  1.0000
  H   H4411     1.0  0.72116  0.93140  0.72634  1.0000
  H   H4412     1.0  0.71096  0.85435  0.82141  1.0000
  C   C5522     1.0  0.51278  0.81161  0.84417  1.0000
  H   H4413     1.0  0.50790  0.93939  0.79687  1.0000
  C   C5523     1.0  0.50527  0.83967  0.92330  1.0000
  C   C5524     1.0  0.52726  0.76305  0.84805  1.0000
  S   S756      1.0  0.78101  0.88169  0.65748  1.0000
  H   H4414     1.0  0.71074  0.77011  0.96922  1.0000
  H   H4415     1.0  0.54402  0.83092  0.85969  1.0000
  C   C5525     1.0  0.69592  0.74295  0.89604  1.0000
  C   C5526     1.0  0.51638  0.82470  0.81331  1.0000
  H   H4416     1.0  0.69661  0.86563  0.78928  1.0000
  C   C5527     1.0  0.70582  0.93132  0.81971  1.0000
  C   C5528     1.0  0.63719  0.96138  0.65266  1.0000
  C   C5529     1.0  0.92512  0.75902  0.69119  1.0000
  H   H4417     1.0  0.62735  0.96615  0.72185  1.0000
  H   H4418     1.0  0.58931  0.91935  0.78696  1.0000
  S   S757      1.0  0.51828  0.74261  0.89460  1.0000
  H   H4419     1.0  0.67380  0.92568  0.66568  1.0000
  P   P185      1.0  0.71320  0.75316  0.94108  1.0000
  P   P186      1.0  0.57256  0.78238  0.82924  1.0000
  H   H4420     1.0  0.57909  0.78794  0.88586  1.0000
  C   C5530     1.0  0.81736  0.97869  0.64679  1.0000
  H   H4421     1.0  0.71973  0.85205  0.64345  1.0000
  C   C5531     1.0  0.69219  0.93495  0.75622  1.0000
  C   C5532     1.0  0.69754  0.94765  0.65957  1.0000
  H   H4422     1.0  0.58694  0.87249  0.83618  1.0000
  C   C5533     1.0  0.69543  0.73757  0.92684  1.0000
  H   H4423     1.0  0.73126  0.90514  0.79189  1.0000
  C   C5534     1.0  0.71940  0.86435  0.76784  1.0000
  C   C5535     1.0  0.69540  0.96513  0.65003  1.0000
  C   C5536     1.0  0.62421  0.95567  0.64863  1.0000
  C   C5537     1.0  0.50649  0.94614  0.73661  1.0000
  H   H4424     1.0  0.55251  0.97267  0.77320  1.0000
  C   C5538     1.0  0.57509  0.95426  0.81273  1.0000
  H   H4425     1.0  0.59761  0.95147  0.65670  1.0000
  C   C5539     1.0  0.53547  0.95262  0.75820  1.0000
  C   C5540     1.0  0.95523  0.75804  0.70561  1.0000
  H   H4426     1.0  0.59327  0.93306  0.71842  1.0000
  H   H4427     1.0  0.83580  0.80070  0.66058  1.0000
  C   C5541     1.0  0.71337  0.86403  0.70861  1.0000
  C   C5542     1.0  0.70103  0.87567  0.69928  1.0000
  C   C5543     1.0  0.70662  0.88305  0.68147  1.0000
  C   C5544     1.0  0.72453  0.87883  0.67304  1.0000
  C   C5545     1.0  0.73670  0.86681  0.68226  1.0000
  C   C5546     1.0  0.73113  0.85944  0.70000  1.0000
  H   H4428     1.0  0.68732  0.87927  0.70590  1.0000
  H   H4429     1.0  0.69713  0.89224  0.67436  1.0000
  H   H4430     1.0  0.75048  0.86335  0.67581  1.0000
  H   H4431     1.0  0.74068  0.85041  0.70717  1.0000
  C   C5547     1.0  0.62191  0.80422  0.83851  1.0000
  C   C5548     1.0  0.61721  0.82121  0.82874  1.0000
  C   C5549     1.0  0.62430  0.82539  0.81076  1.0000
  C   C5550     1.0  0.63524  0.81223  0.80226  1.0000
  C   C5551     1.0  0.63902  0.79493  0.81181  1.0000
  C   C5552     1.0  0.63275  0.79101  0.82999  1.0000
  H   H4432     1.0  0.60809  0.83116  0.83509  1.0000
  H   H4433     1.0  0.62095  0.83867  0.80343  1.0000
  H   H4434     1.0  0.64744  0.78470  0.80524  1.0000
  H   H4435     1.0  0.63646  0.77783  0.83734  1.0000
  H   H4436     1.0  0.66524  0.91825  0.80623  1.0000
  C   C5553     1.0  0.56601  0.88010  0.80168  1.0000
  Fe  Fe379     1.0  0.50082  0.76846  0.89950  1.0000
  C   C5554     1.0  0.52683  0.75605  0.83441  1.0000
  H   H4437     1.0  0.54606  0.90829  0.76279  1.0000
  H   H4438     1.0  0.55749  0.90108  0.69553  1.0000
  H   H4439     1.0  0.64789  0.87274  0.85029  1.0000
  C   C5555     1.0  0.61247  0.90744  0.83643  1.0000
  H   H4440     1.0  0.55623  0.82157  0.77487  1.0000
  Fe  Fe380     1.0  0.79740  0.85904  0.64527  1.0000
  C   C5556     1.0  0.56704  0.97809  0.78891  1.0000
  H   H4441     1.0  0.51572  0.79756  0.82430  1.0000
  H   H4442     1.0  0.55026  0.81586  0.83561  1.0000
  H   H4443     1.0  0.54114  0.77635  0.85737  1.0000
  C   C5557     1.0  0.56099  0.81035  0.87448  1.0000
  H   H4444     1.0  0.86697  0.79182  0.64535  1.0000
  H   H4445     1.0  0.55831  0.81708  0.88496  1.0000
  C   C5558     1.0  0.55662  0.80963  0.84654  1.0000
  C   C5559     1.0  0.52251  0.95381  0.77358  1.0000
  H   H4446     1.0  0.85384  0.90370  0.67699  1.0000
  H   H4447     1.0  0.88641  0.78906  0.66963  1.0000
  C   C5560     1.0  0.55074  0.74998  0.89292  1.0000
  S   S758      1.0  0.75688  0.97500  0.67495  1.0000
  H   H4448     1.0  0.51595  0.96648  0.77663  1.0000
  H   H4449     1.0  0.66341  0.83236  0.90951  1.0000
  C   C5561     1.0  0.50232  0.89722  0.70821  1.0000
  H   H4450     1.0  0.54412  0.76363  0.89187  1.0000
  H   H4451     1.0  0.57610  0.75418  0.89336  1.0000
  C   C5562     1.0  0.71045  0.90209  0.71958  1.0000
  Fe  Fe381     1.0  0.63867  0.75269  0.90731  1.0000
  H   H4452     1.0  0.68720  0.94916  0.78449  1.0000
  H   H4453     1.0  0.65979  0.83443  0.81398  1.0000
  H   H4454     1.0  0.58578  0.77299  0.86189  1.0000
  H   H4455     1.0  0.55185  0.79878  0.80150  1.0000
  C   C5563     1.0  0.57716  0.87729  0.72637  1.0000
  C   C5564     1.0  0.59518  0.86937  0.72198  1.0000
  C   C5565     1.0  0.60802  0.87603  0.72526  1.0000
  C   C5566     1.0  0.60286  0.89092  0.73241  1.0000
  C   C5567     1.0  0.58486  0.89889  0.73662  1.0000
  C   C5568     1.0  0.57203  0.89193  0.73384  1.0000
  H   H4456     1.0  0.59916  0.85799  0.71625  1.0000
  H   H4457     1.0  0.62192  0.86984  0.72196  1.0000
  H   H4458     1.0  0.58074  0.91031  0.74227  1.0000
  H   H4459     1.0  0.55817  0.89821  0.73694  1.0000
  H   H4460     1.0  0.88364  0.75950  0.68759  1.0000
  C   C5569     1.0  0.51633  0.84066  0.81676  1.0000
  C   C5570     1.0  0.51366  0.84229  0.83397  1.0000
  C   C5571     1.0  0.51132  0.82786  0.84774  1.0000
  H   H4461     1.0  0.63488  0.75142  0.81017  1.0000
  C   C5572     1.0  0.81843  0.74466  0.71561  1.0000
  H   H4462     1.0  0.51820  0.85184  0.80624  1.0000
  C   C5573     1.0  0.57388  0.82005  0.94077  1.0000
  H   H4463     1.0  0.51819  0.79325  0.97318  1.0000
  H   H4464     1.0  0.70435  0.93313  0.83274  1.0000
  H   H4465     1.0  0.69156  0.74066  0.88558  1.0000
  C   C5574     1.0  0.54405  0.93623  0.75434  1.0000
  H   H4466     1.0  0.87414  0.92387  0.67092  1.0000
  C   C5575     1.0  0.67388  0.96261  0.74447  1.0000
  H   H4467     1.0  0.78349  0.91602  0.66425  1.0000
  C   C5576     1.0  0.67177  0.80080  0.84718  1.0000
  P   P187      1.0  0.65454  0.83525  0.85088  1.0000
  C   C5577     1.0  0.73420  0.90584  0.69403  1.0000
  H   H4468     1.0  0.63024  0.90784  0.78083  1.0000
  H   H4469     1.0  0.53218  0.91760  0.81588  1.0000
  C   C5578     1.0  0.60784  0.76491  0.81811  1.0000
  H   H4470     1.0  0.60961  0.82812  0.90812  1.0000
  H   H4471     1.0  0.70551  0.89475  0.73251  1.0000
  C   C5579     1.0  0.92670  0.77567  0.68066  1.0000
  C   C5580     1.0  0.65269  0.82657  0.87416  1.0000
  H   H4472     1.0  0.51744  0.94198  0.86872  1.0000
  C   C5581     1.0  0.52636  0.92213  0.78094  1.0000
  C   C5582     1.0  0.70500  0.93403  0.65052  1.0000
  C   C5583     1.0  0.86046  0.80549  0.64330  1.0000
  C   C5584     1.0  0.75470  0.95026  0.72417  1.0000
  C   C5585     1.0  0.65928  0.83392  0.88407  1.0000
  H   H4473     1.0  0.60979  0.76175  0.93901  1.0000
  C   C5586     1.0  0.59023  0.94519  0.72273  1.0000
  S   S759      1.0  0.65218  0.76552  0.88093  1.0000
  C   C5587     1.0  0.70605  0.87273  0.77980  1.0000
  C   C5588     1.0  0.67946  0.78761  0.83770  1.0000
  H   H4474     1.0  0.53343  0.90715  0.67141  1.0000
  H   H4475     1.0  0.90829  0.74009  0.70068  1.0000
  H   H4476     1.0  0.54854  0.93599  0.85234  1.0000
  H   H4477     1.0  0.56586  0.82469  0.95232  1.0000
  C   C5589     1.0  0.57433  0.94296  0.69118  1.0000
  C   C5590     1.0  0.64486  0.81207  0.88250  1.0000
  H   H4478     1.0  0.68534  0.91947  0.71803  1.0000
  H   H4479     1.0  0.72759  0.92572  0.67222  1.0000
  C   C5591     1.0  0.58843  0.82740  0.93113  1.0000
  H   H4480     1.0  0.61801  0.89352  0.86157  1.0000
  H   H4481     1.0  0.57762  0.74802  0.85273  1.0000
  H   H4482     1.0  0.55443  0.73388  0.93038  1.0000
  C   C5592     1.0  0.73132  0.87363  0.75542  1.0000
  H   H4483     1.0  0.59630  0.89804  0.76843  1.0000
  H   H4484     1.0  0.51613  0.74979  0.83566  1.0000
  C   C5593     1.0  0.74888  0.75529  0.93320  1.0000
  H   H4485     1.0  0.57090  0.79686  0.97250  1.0000
  H   H4486     1.0  0.67406  0.81135  0.79742  1.0000
  H   H4487     1.0  0.60246  0.82772  0.78713  1.0000
  H   H4488     1.0  0.69239  0.83238  0.83379  1.0000
  S   S760      1.0  0.64838  0.75372  0.93009  1.0000
  C   C5594     1.0  0.58664  0.89647  0.78063  1.0000
  H   H4489     1.0  0.65334  0.75249  0.96331  1.0000
  H   H4490     1.0  0.50689  0.92696  0.66173  1.0000
  H   H4491     1.0  0.72129  0.76660  0.90267  1.0000
  C   C5595     1.0  0.51896  0.89677  0.69691  1.0000
  C   C5596     1.0  0.66872  0.85091  0.84303  1.0000
  H   H4492     1.0  0.76508  0.93727  0.68225  1.0000
  H   H4493     1.0  0.69370  0.89689  0.78819  1.0000
  H   H4494     1.0  0.97116  0.76362  0.67936  1.0000
  C   C5597     1.0  0.66452  0.78390  0.95764  1.0000
  C   C5598     1.0  0.70425  0.96439  0.69378  1.0000
  H   H4495     1.0  0.60320  0.92081  0.81297  1.0000
  C   C5599     1.0  0.53226  0.81475  0.93780  1.0000
  H   H4496     1.0  0.58866  0.85212  0.86492  1.0000
  C   C5600     1.0  0.74163  0.93859  0.75433  1.0000
  C   C5601     1.0  0.63174  0.85863  0.83025  1.0000
  C   C5602     1.0  0.83206  0.74945  0.70139  1.0000
  C   C5603     1.0  0.83031  0.76660  0.69136  1.0000
  C   C5604     1.0  0.81486  0.77919  0.69534  1.0000
  C   C5605     1.0  0.80117  0.77458  0.70937  1.0000
  C   C5606     1.0  0.80291  0.75743  0.71947  1.0000
  H   H4497     1.0  0.62452  0.92053  0.70146  1.0000
  C   C5607     1.0  0.58174  0.91341  0.83416  1.0000
  H   H4498     1.0  0.49891  0.84978  0.94656  1.0000
  C   C5608     1.0  0.68938  0.95323  0.75009  1.0000
  C   C5609     1.0  0.59178  0.94446  0.73955  1.0000
  H   H4499     1.0  0.74772  0.90152  0.68720  1.0000
  C   C5610     1.0  0.56745  0.76558  0.94039  1.0000
  H   H4500     1.0  0.67195  0.79751  0.86087  1.0000
  C   C5611     1.0  0.60071  0.85422  0.85538  1.0000
  C   C5612     1.0  0.56865  0.74981  0.93596  1.0000
  C   C5613     1.0  0.52929  0.92227  0.82774  1.0000
  C   C5614     1.0  0.71576  0.90011  0.76613  1.0000
  C   C5615     1.0  0.91273  0.78649  0.67304  1.0000
  C   C5616     1.0  0.57940  0.80250  0.91946  1.0000
  H   H4501     1.0  0.61460  0.93916  0.77676  1.0000
  H   H4502     1.0  0.73893  0.80557  0.91457  1.0000
  H   H4503     1.0  0.84096  0.77007  0.68042  1.0000
  H   H4504     1.0  0.81347  0.79252  0.68756  1.0000
  H   H4505     1.0  0.78916  0.78436  0.71240  1.0000
  H   H4506     1.0  0.52539  0.75415  0.93602  1.0000
  C   C5617     1.0  0.55000  0.92854  0.69609  1.0000
  C   C5618     1.0  0.61693  0.96741  0.67952  1.0000
  H   H4507     1.0  0.79205  0.75426  0.73019  1.0000
  H   H4508     1.0  0.64571  0.91603  0.67386  1.0000
  Fe  Fe382     1.0  0.49707  0.88244  0.75498  1.0000
  C   C5619     1.0  0.89557  0.76409  0.68593  1.0000
  H   H4509     1.0  0.50140  0.92331  0.83233  1.0000
  C   C5620     1.0  0.68878  0.96167  0.69111  1.0000
  C   C5621     1.0  0.57009  0.90655  0.80709  1.0000
  Fe  Fe383     1.0  0.61763  0.73709  0.89240  1.0000
  H   H4510     1.0  0.59180  0.83721  0.93555  1.0000
  P   P188      1.0  0.94345  0.74473  0.70050  1.0000
  C   C5622     1.0  0.73132  0.76441  0.93287  1.0000
  H   H4511     1.0  0.52302  0.82834  0.95912  1.0000
  C   C5623     1.0  0.76357  0.81477  0.65066  1.0000
  C   C5624     1.0  0.66866  0.93655  0.68853  1.0000
  C   C5625     1.0  0.55605  0.94355  0.69467  1.0000
  H   H4512     1.0  0.66100  0.97287  0.69122  1.0000
  C   C5626     1.0  0.71260  0.75761  0.90588  1.0000
  C   C5627     1.0  0.55893  0.96751  0.78415  1.0000
  H   H4513     1.0  0.53059  0.88797  0.70118  1.0000
  H   H4514     1.0  0.58107  0.94958  0.82397  1.0000
  H   H4515     1.0  0.51318  0.85478  0.83656  1.0000
  H   H4516     1.0  0.51485  0.82696  0.90155  1.0000
  H   H4517     1.0  0.77623  0.75716  0.92723  1.0000
  C   C5628     1.0  0.72264  0.91956  0.68549  1.0000
  C   C5629     1.0  0.50539  0.91876  0.67473  1.0000
  C   C5630     1.0  0.59386  0.80994  0.90978  1.0000
  C   C5631     1.0  0.58768  0.95984  0.74563  1.0000
  C   C5632     1.0  0.70382  0.97938  0.69923  1.0000
  H   H4518     1.0  0.70665  0.92047  0.65755  1.0000
  C   C5633     1.0  0.95158  0.76108  0.72250  1.0000
  H   H4519     1.0  0.52192  0.96480  0.72021  1.0000
  C   C5634     1.0  0.71907  0.91787  0.81344  1.0000
  C   C5635     1.0  0.53584  0.77314  0.94182  1.0000
  C   C5636     1.0  0.72784  0.78261  0.92609  1.0000
  H   H4520     1.0  0.55937  0.86924  0.80557  1.0000
  H   H4521     1.0  0.93874  0.78031  0.67808  1.0000
  C   C5637     1.0  0.67953  0.92612  0.75603  1.0000
  C   C5638     1.0  0.50762  0.84001  0.93953  1.0000
  S   S761      1.0  0.61954  0.96840  0.78635  1.0000
  S   S762      1.0  0.54108  0.97141  0.74345  1.0000
  C   C5639     1.0  0.60386  0.96162  0.67563  1.0000
  H   H4522     1.0  0.54005  0.75143  0.80875  1.0000
  H   H4523     1.0  0.81601  0.77793  0.64830  1.0000
  C   C5640     1.0  0.72095  0.91563  0.79659  1.0000
  H   H4524     1.0  0.83353  0.75011  0.66185  1.0000
  H   H4525     1.0  0.75199  0.74129  0.93842  1.0000
  P   P189      1.0  0.54984  0.79879  0.94681  1.0000
  H   H4526     1.0  0.58861  0.76722  0.96692  1.0000
  H   H4527     1.0  0.60138  0.80624  0.89757  1.0000
  C   C5641     1.0  0.89710  0.78078  0.67581  1.0000
  C   C5642     1.0  0.64863  0.92273  0.68216  1.0000
  S   S763      1.0  0.87609  0.73796  0.66900  1.0000
  C   C5643     1.0  0.90958  0.75315  0.69339  1.0000
  C   C5644     1.0  0.57821  0.88239  0.78572  1.0000
  H   H4528     1.0  0.65415  0.92875  0.75048  1.0000
  H   H4529     1.0  0.56392  0.90286  0.85760  1.0000
  C   C5645     1.0  0.63291  0.75714  0.94930  1.0000
  C   C5646     1.0  0.78281  0.92991  0.65912  1.0000
  C   C5647     1.0  0.70487  0.92470  0.69389  1.0000
  C   C5648     1.0  0.73046  0.93555  0.73088  1.0000
  H   H4530     1.0  0.53862  0.80507  0.91412  1.0000
  C   C5649     1.0  0.49886  0.74380  0.97308  1.0000
  C   C5650     1.0  0.60790  0.89909  0.85397  1.0000
  C   C5651     1.0  0.74285  0.94439  0.71865  1.0000
  H   H4531     1.0  0.65980  0.94425  0.71344  1.0000
  H   H4532     1.0  0.74304  0.94706  0.70487  1.0000
  P   P190      1.0  0.56536  0.92193  0.82091  1.0000
  C   C5652     1.0  0.52120  0.82771  0.94669  1.0000
  C   C5653     1.0  0.66411  0.93555  0.75020  1.0000
  C   C5654     1.0  0.52079  0.93620  0.85744  1.0000
  C   C5655     1.0  0.97704  0.77630  0.69614  1.0000
  C   C5656     1.0  0.63353  0.96727  0.66808  1.0000
  H   H4533     1.0  0.67572  0.76844  0.93826  1.0000
  H   H4534     1.0  0.61451  0.87672  0.81407  1.0000
  C   C5657     1.0  0.96806  0.76574  0.69249  1.0000
  H   H4535     1.0  0.51673  0.93487  0.73360  1.0000
  H   H4536     1.0  0.55267  0.94223  0.78968  1.0000
  C   C5658     1.0  0.83979  0.91941  0.65704  1.0000
  C   C5659     1.0  0.51660  0.82717  0.91416  1.0000
  H   H4537     1.0  0.62613  0.90828  0.83036  1.0000
  C   C5660     1.0  0.60445  0.73465  0.84435  1.0000
  C   C5661     1.0  0.55913  0.95023  0.79347  1.0000
  H   H4538     1.0  0.58113  0.87327  0.77727  1.0000
  C   C5662     1.0  0.51170  0.92575  0.83698  1.0000
  C   C5663     1.0  0.69629  0.94034  0.79230  1.0000
  H   H4539     1.0  0.74107  0.93692  0.76807  1.0000
  C   C5664     1.0  0.56213  0.91284  0.69401  1.0000
  C   C5665     1.0  0.67294  0.97434  0.69372  1.0000
  H   H4540     1.0  0.58961  0.89962  0.68978  1.0000
  C   C5666     1.0  0.57731  0.90463  0.85167  1.0000
  H   H4541     1.0  0.53590  0.92893  0.69922  1.0000
  C   C5667     1.0  0.57542  0.79917  0.80938  1.0000
  C   C5668     1.0  0.58917  0.80812  0.80550  1.0000
  C   C5669     1.0  0.59151  0.82123  0.79030  1.0000
  C   C5670     1.0  0.57979  0.82593  0.77914  1.0000
  C   C5671     1.0  0.56562  0.81764  0.78328  1.0000
  C   C5672     1.0  0.56332  0.80444  0.79839  1.0000
  H   H4542     1.0  0.56459  0.76545  0.80606  1.0000
  C   C5673     1.0  0.59846  0.82230  0.91567  1.0000
  H   H4543     1.0  0.59814  0.80488  0.81422  1.0000
  C   C5674     1.0  0.63458  0.91694  0.78535  1.0000
  C   C5675     1.0  0.61523  0.86787  0.82665  1.0000
  C   C5676     1.0  0.55433  0.77256  0.83120  1.0000
  C   C5677     1.0  0.56831  0.79317  0.84700  1.0000
  C   C5678     1.0  0.53944  0.92099  0.76570  1.0000
  C   C5679     1.0  0.67353  0.80844  0.81132  1.0000
  H   H4544     1.0  0.73863  0.89853  0.74451  1.0000
  H   H4545     1.0  0.72026  0.85076  0.76793  1.0000
  H   H4546     1.0  0.60957  0.77632  0.80777  1.0000
  C   C5680     1.0  0.57635  0.78541  0.86133  1.0000
  C   C5681     1.0  0.57256  0.79393  0.87506  1.0000
  C   C5682     1.0  0.59972  0.86560  0.83917  1.0000
  H   H4547     1.0  0.64356  0.86071  0.82038  1.0000
  H   H4548     1.0  0.66665  0.89454  0.83767  1.0000
  C   C5683     1.0  0.59157  0.76419  0.83014  1.0000
  C   C5684     1.0  0.54101  0.77119  0.84654  1.0000
  C   C5685     1.0  0.58999  0.74888  0.84321  1.0000
  C   C5686     1.0  0.72808  0.89704  0.71103  1.0000
  C   C5687     1.0  0.61722  0.84484  0.85897  1.0000
  C   C5688     1.0  0.63294  0.84694  0.84641  1.0000
  C   C5689     1.0  0.66171  0.86849  0.84432  1.0000
  C   C5690     1.0  0.64067  0.93316  0.70889  1.0000
  H   H4549     1.0  0.61751  0.83571  0.87137  1.0000
  C   C5691     1.0  0.65075  0.81205  0.90999  1.0000
  H   H4550     1.0  0.51696  0.76214  0.85985  1.0000
  H   H4551     1.0  0.68603  0.78118  0.81245  1.0000
  C   C5692     1.0  0.68031  0.79143  0.81978  1.0000
  H   H4552     1.0  0.63167  0.93423  0.72138  1.0000
  C   C5693     1.0  0.67235  0.88087  0.83728  1.0000
  C   C5694     1.0  0.69008  0.87579  0.82902  1.0000
  H   H4553     1.0  0.68463  0.77434  0.84426  1.0000
  H   H4554     1.0  0.57573  0.79339  0.91435  1.0000
  H   H4555     1.0  0.73604  0.95196  0.66236  1.0000
  H   H4556     1.0  0.61437  0.97180  0.69150  1.0000
  S   S764      1.0  0.65937  0.88877  0.79742  1.0000
  C   C5695     1.0  0.68666  0.84583  0.83500  1.0000
  H   H4557     1.0  0.68122  0.91208  0.76063  1.0000
  C   C5696     1.0  0.77249  0.94197  0.66935  1.0000
  C   C5697     1.0  0.55346  0.74574  0.93444  1.0000
  H   H4558     1.0  0.65015  0.96101  0.64395  1.0000
  C   C5698     1.0  0.69727  0.85825  0.82800  1.0000
  C   C5699     1.0  0.56734  0.94342  0.80773  1.0000
  C   C5700     1.0  0.78028  0.81551  0.65201  1.0000
  C   C5701     1.0  0.77129  0.96002  0.66263  1.0000
  H   H4559     1.0  0.69813  0.88551  0.82314  1.0000
  H   H4560     1.0  0.66532  0.84512  0.87807  1.0000
  P   P191      1.0  0.68983  0.94270  0.68310  1.0000
  S   S765      1.0  0.61137  0.76195  0.90187  1.0000
  H   H4561     1.0  0.58687  0.89089  0.87507  1.0000
  C   C5702     1.0  0.58456  0.96136  0.71183  1.0000
  H   H4562     1.0  0.54638  0.95541  0.69664  1.0000
  H   H4563     1.0  0.64901  0.96107  0.74094  1.0000
  H   H4564     1.0  0.64993  0.94970  0.80164  1.0000
  C   C5703     1.0  0.72954  0.89149  0.75452  1.0000
  C   C5704     1.0  0.72966  0.93270  0.74883  1.0000
  H   H4565     1.0  0.83077  0.91074  0.65967  1.0000
  C   C5705     1.0  0.54286  0.92521  0.83356  1.0000
  C   C5706     1.0  0.63131  0.94651  0.78885  1.0000
  H   H4566     1.0  0.98026  0.78753  0.71574  1.0000
  H   H4567     1.0  0.63969  0.80621  0.87512  1.0000
  H   H4568     1.0  0.76411  0.95733  0.71457  1.0000
  C   C5707     1.0  0.66120  0.95377  0.74471  1.0000
  H   H4569     1.0  0.65013  0.80630  0.92375  1.0000
  P   P192      1.0  0.71193  0.92344  0.76433  1.0000
  C   C5708     1.0  0.59033  0.89766  0.86158  1.0000
  C   C5709     1.0  0.63666  0.92526  0.69773  1.0000
  C   C5710     1.0  0.51804  0.93851  0.78505  1.0000
  C   C5711     1.0  0.74172  0.79153  0.91975  1.0000
  H   H4570     1.0  0.68416  0.95299  0.81398  1.0000
  S   S766      1.0  0.49733  0.87314  0.78327  1.0000
  H   H4571     1.0  0.52303  0.78203  0.94393  1.0000
  H   H4572     1.0  0.60049  0.92590  0.68730  1.0000
  H   H4573     1.0  0.69897  0.96033  0.75008  1.0000
  C   C5712     1.0  0.70437  0.89048  0.77907  1.0000
  C   C5713     1.0  0.64407  0.80473  0.90027  1.0000
  H   H4574     1.0  0.63836  0.79327  0.90649  1.0000
  C   C5714     1.0  0.65826  0.82669  0.90193  1.0000
  C   C5715     1.0  0.86418  0.92685  0.66330  1.0000
  C   C5716     1.0  0.58639  0.92700  0.68933  1.0000
  C   C5717     1.0  0.84288  0.81056  0.65220  1.0000
  C   C5718     1.0  0.70960  0.92687  0.78587  1.0000
  C   C5719     1.0  0.66459  0.92829  0.67757  1.0000
  C   C5720     1.0  0.58030  0.91205  0.69066  1.0000
  H   H4575     1.0  0.55410  0.93531  0.74247  1.0000
  H   H4576     1.0  0.73678  0.88577  0.71725  1.0000
  C   C5721     1.0  0.65425  0.92282  0.79972  1.0000
  H   H4577     1.0  0.59585  0.93189  0.74799  1.0000
  H   H4578     1.0  0.91408  0.79921  0.66470  1.0000
  C   C5722     1.0  0.85274  0.91550  0.66676  1.0000
  C   C5723     1.0  0.64569  0.94062  0.79704  1.0000
  C   C5724     1.0  0.53007  0.81477  0.92134  1.0000
  C   C5725     1.0  0.75416  0.94727  0.74200  1.0000
  C   C5726     1.0  0.70723  0.75444  0.89233  1.0000
  C   C5727     1.0  0.64871  0.91099  0.79386  1.0000
  H   H4579     1.0  0.72789  0.90920  0.82164  1.0000
  C   C5728     1.0  0.69445  0.94253  0.80915  1.0000
  C   C5729     1.0  0.91951  0.73542  0.73176  1.0000
  H   H4580     1.0  0.55282  0.88984  0.82488  1.0000
  C   C5730     1.0  0.62577  0.93465  0.78302  1.0000
  C   C5731     1.0  0.70665  0.74923  0.92327  1.0000
  H   H4581     1.0  0.93818  0.73390  0.67110  1.0000
  C   C5732     1.0  0.62358  0.97953  0.72353  1.0000
  H   H4582     1.0  0.78147  0.82104  0.66218  1.0000
  H   H4583     1.0  0.85244  0.73632  0.72474  1.0000
  H   H4584     1.0  0.76322  0.95203  0.74627  1.0000
  C   C5733     1.0  0.86274  0.94206  0.65003  1.0000
  C   C5734     1.0  0.49639  0.97762  0.73305  1.0000
  C   C5735     1.0  0.56889  0.74466  0.89362  1.0000
  C   C5736     1.0  0.58232  0.97605  0.73479  1.0000
  C   C5737     1.0  0.53707  0.75730  0.93749  1.0000
  C   C5738     1.0  0.74024  0.95519  0.64831  1.0000
  H   H4585     1.0  0.51247  0.80019  0.85459  1.0000
  C   C5739     1.0  0.56695  0.98197  0.68260  1.0000
  H   H4586     1.0  0.71587  0.98149  0.70105  1.0000
  C   C5740     1.0  0.67833  0.77281  0.94850  1.0000
  C   C5741     1.0  0.97329  0.77932  0.71294  1.0000
  S   S767      1.0  0.50628  0.83027  0.86933  1.0000
  H   H4587     1.0  0.57931  0.76865  0.94135  1.0000
  C   C5742     1.0  0.55113  0.77762  0.94283  1.0000
  C   C5743     1.0  0.69784  0.77368  0.96599  1.0000
  H   H4588     1.0  0.87162  0.95074  0.64766  1.0000
  H   H4589     1.0  0.75183  0.81967  0.65984  1.0000
  C   C5744     1.0  0.57509  0.97147  0.80320  1.0000
  C   C5745     1.0  0.58104  0.97687  0.71783  1.0000
  H   H4590     1.0  0.98693  0.78210  0.68583  1.0000
  H   H4591     1.0  0.71439  0.78989  0.92569  1.0000
  C   C5746     1.0  0.63925  0.75591  0.96395  1.0000
  C   C5747     1.0  0.75915  0.78236  0.92014  1.0000
  H   H4592     1.0  0.95769  0.77400  0.73917  1.0000
  H   H4593     1.0  0.50108  0.88889  0.72118  1.0000
  C   C5748     1.0  0.69503  0.76729  0.95286  1.0000
  H   H4594     1.0  0.76989  0.78930  0.91527  1.0000
  C   C5749     1.0  0.83434  0.75329  0.64791  1.0000
  H   H4595     1.0  0.65152  0.78773  0.95456  1.0000
  C   C5750     1.0  0.54124  0.73747  0.89391  1.0000
  H   H4596     1.0  0.91221  0.74890  0.72914  1.0000
  C   C5751     1.0  0.76272  0.76426  0.92686  1.0000
  H   H4597     1.0  0.94180  0.75535  0.73290  1.0000
  H   H4598     1.0  0.81676  0.96521  0.65313  1.0000
  H   H4599     1.0  0.67160  0.97678  0.74033  1.0000
  H   H4600     1.0  0.68977  0.97594  0.65660  1.0000
  H   H4601     1.0  0.61604  0.97204  0.75161  1.0000
  C   C5752     1.0  0.62060  0.73552  0.83238  1.0000
  H   H4602     1.0  0.64370  0.97138  0.67132  1.0000
  C   C5753     1.0  0.60277  0.76419  0.96596  1.0000
  H   H4603     1.0  0.58146  0.97966  0.80682  1.0000
  C   C5754     1.0  0.83836  0.93457  0.64383  1.0000
  H   H4604     1.0  0.58865  0.95918  0.75877  1.0000
  C   C5755     1.0  0.66722  0.78951  0.97121  1.0000
  H   H4605     1.0  0.96465  0.77236  0.65121  1.0000
  C   C5756     1.0  0.54480  0.79616  0.97028  1.0000
  Fe  Fe384     1.0  0.65542  0.74012  0.87346  1.0000
  S   S768      1.0  0.73174  0.88911  0.65118  1.0000
  H   H4606     1.0  0.54756  0.98031  0.70707  1.0000
  C   C5757     1.0  0.78103  0.96589  0.64592  1.0000
  C   C5758     1.0  0.83438  0.82830  0.64995  1.0000
  C   C5759     1.0  0.61703  0.98282  0.74031  1.0000
  H   H4607     1.0  0.99492  0.74432  0.72536  1.0000
  H   H4608     1.0  0.73265  0.98290  0.64703  1.0000
  C   C5760     1.0  0.68390  0.78446  0.97532  1.0000
